@<TRIPOS>MOLECULE
ZINC01809738
   27    28     0     0     0
SMALL
USER_CHARGES

@<TRIPOS>ATOM
      1 C1          1.1750    1.7928    0.0005 C.ar      1 <0>        -0.1101
      2 C2         -0.0126    1.0758    0.0080 C.ar      1 <0>        -0.1010
      3 C3         -1.2156    1.7582    0.0173 C.ar      1 <0>        -0.0642
      4 C4         -1.2161    3.1304    0.0310 C.ar      1 <0>        -0.1442
      5 C5         -0.0267    3.8938    0.0233 C.ar      1 <0>         0.0897
      6 C6          1.1840    3.1634    0.0073 C.ar      1 <0>        -0.0649
      7 N1         -0.1914    5.2346    0.0326 N.2       1 <0>        -0.4936
      8 C7         -1.3782    5.7994    0.0479 C.2       1 <0>         0.1317
      9 S1         -2.4725    4.3864    0.0509 S.3       1 <0>        -0.0043
     10 S2         -1.7864    7.5134    0.0618 S.3       1 <0>         0.0621
     11 C8         -3.5931    7.4061    0.0795 C.3       1 <0>        -0.1256
     12 C9         -4.1876    8.8158    0.0935 C.3       1 <0>        -0.0905
     13 C10        -5.7149    8.7251    0.1085 C.3       1 <0>        -0.6703
     14 S3         -6.4197   10.3965    0.1252 S.o2      1 <0>         2.6396
     15 O1         -6.1318   11.0368    1.3606 O.2       1 <0>        -1.0511
     16 O2         -6.1568   11.0509   -1.1085 O.2       1 <0>        -1.0511
     17 H1          2.1137    1.2590   -0.0114 H         1 <0>         0.1341
     18 H2          0.0021   -0.0041    0.0020 H         1 <0>         0.1383
     19 H3         -2.1488    1.2145    0.0184 H         1 <0>         0.1334
     20 H4          2.1261    3.6913    0.0008 H         1 <0>         0.1334
     21 H5         -3.9344    6.8767   -0.8101 H         1 <0>         0.1001
     22 H6         -3.9164    6.8666    0.9697 H         1 <0>         0.1001
     23 H7         -3.8464    9.3452    0.9832 H         1 <0>         0.0860
     24 H8         -3.8644    9.3553   -0.7967 H         1 <0>         0.0860
     25 H9         -6.0561    8.1957   -0.7811 H         1 <0>         0.1102
     26 H10        -6.0381    8.1856    0.9987 H         1 <0>         0.1102
     27 O3         -7.9269   10.1852    0.1392 O.3       1 <0>        -1.0838
@<TRIPOS>BOND
     1    1    6 ar
     2    1    2 ar
     3    1   17 1
     4    2    3 ar
     5    2   18 1
     6    3    4 ar
     7    3   19 1
     8    4    9 1
     9    4    5 ar
    10    5    6 ar
    11    5    7 1
    12    6   20 1
    13    7    8 2
    14    8    9 1
    15    8   10 1
    16   10   11 1
    17   11   12 1
    18   11   21 1
    19   11   22 1
    20   12   13 1
    21   12   23 1
    22   12   24 1
    23   13   14 1
    24   13   25 1
    25   13   26 1
    26   14   15 2
    27   14   16 2
    28   14   27 1
@<TRIPOS>MOLECULE
ZINC03855713
   26    27     0     0     0
SMALL
USER_CHARGES

@<TRIPOS>ATOM
      1 C1         -0.5791    4.1867    1.2912 C.ar      1 <0>        -0.1451
      2 C2         -0.9990    5.4906    1.4668 C.ar      1 <0>        -0.0883
      3 C3         -2.3168    5.7562    1.7948 C.ar      1 <0>        -0.0527
      4 C4         -3.2190    4.7172    1.9413 C.ar      1 <0>        -0.0922
      5 C5         -2.8061    3.4118    1.7608 C.ar      1 <0>        -0.1173
      6 C6         -1.4838    3.1422    1.4319 C.ar      1 <0>         0.1683
      7 N1         -1.0631    1.8222    1.2486 N.pl3     1 <0>        -1.0416
      8 S1         -0.1225    1.4265   -0.0556 S.o2      1 <0>         2.7172
      9 O1          0.0453    0.0158   -0.0222 O.2       1 <0>        -0.9260
     10 O2          0.9784    2.3250   -0.0498 O.2       1 <0>        -0.9743
     11 C7         -1.0600    1.7881   -1.5029 C.2       1 <0>        -0.7099
     12 C8         -0.6599    2.7526   -2.3929 C.2       1 <0>        -0.0935
     13 C9         -1.4179    2.9944   -3.4950 C.2       1 <0>        -0.2551
     14 S2         -2.7295    1.8733   -3.3274 S.3       1 <0>         0.1836
     15 C10        -2.2319    1.1061   -1.7955 C.2       1 <0>        -0.0404
     16 C11        -2.8901    0.0371   -1.0424 C.2       1 <0>         0.5110
     17 O3         -2.4593   -0.2944    0.0457 O.co2     1 <0>        -0.5828
     18 Cl1        -2.8394    7.3960    2.0225 Cl        1 <0>        -0.0798
     19 H1          0.4508    3.9796    1.0403 H         1 <0>         0.1632
     20 H2         -0.2971    6.3035    1.3524 H         1 <0>         0.1367
     21 H3         -4.2471    4.9274    2.1967 H         1 <0>         0.1358
     22 H4         -3.5107    2.6013    1.8749 H         1 <0>         0.1420
     23 H5         -1.3221    1.1378    1.8853 H         1 <0>         0.4348
     24 H6          0.2467    3.3134   -2.2197 H         1 <0>         0.1412
     25 H7         -1.2452    3.7117   -4.2837 H         1 <0>         0.1843
     26 O4         -3.9743   -0.5803   -1.5552 O.co2     1 <0>        -0.7191
@<TRIPOS>BOND
     1    1    6 ar
     2    1    2 ar
     3    1   19 1
     4    2    3 ar
     5    2   20 1
     6    3    4 ar
     7    3   18 1
     8    4    5 ar
     9    4   21 1
    10    5    6 ar
    11    5   22 1
    12    6    7 1
    13    7    8 1
    14    7   23 1
    15    8    9 2
    16    8   10 2
    17    8   11 1
    18   11   15 2
    19   11   12 1
    20   12   13 2
    21   12   24 1
    22   13   14 1
    23   13   25 1
    24   14   15 1
    25   15   16 1
    26   16   17 2
    27   16   26 1
@<TRIPOS>MOLECULE
ZINC03865054
   28    29     0     0     0
SMALL
USER_CHARGES

@<TRIPOS>ATOM
      1 C1          2.4595    3.7305    0.9533 C.ar      1 <0>        -0.1302
      2 C2          3.3805    3.4773   -0.0478 C.ar      1 <0>        -0.1168
      3 C3          3.1317    2.5046   -0.9976 C.ar      1 <0>        -0.0834
      4 C4          1.9480    1.7723   -0.9505 C.ar      1 <0>        -0.0667
      5 C5          1.0113    2.0300    0.0679 C.ar      1 <0>        -0.1082
      6 C6          1.2769    3.0173    1.0128 C.ar      1 <0>        -0.1080
      7 C7         -0.2504    1.2606    0.1303 C.2       1 <0>         0.5741
      8 O1         -0.2203    0.0462    0.1717 O.2       1 <0>        -0.4646
      9 N1         -1.4337    1.9059    0.1357 N.am      1 <0>        -0.6750
     10 C8         -2.6210    1.1881    0.3131 C.ar      1 <0>         0.1811
     11 C9         -3.8161    1.6848   -0.1908 C.ar      1 <0>        -0.1485
     12 C10        -4.9861    0.9715   -0.0188 C.ar      1 <0>        -0.0870
     13 C11        -4.9703   -0.2316    0.6649 C.ar      1 <0>        -0.0652
     14 C12        -3.7817   -0.7263    1.1726 C.ar      1 <0>        -0.0854
     15 C13        -2.6079   -0.0199    0.9984 C.ar      1 <0>        -0.1215
     16 Cl1        -6.4440   -1.1223    0.8856 Cl        1 <0>        -0.0846
     17 C14         1.6769    0.7312   -1.9642 C.2       1 <0>         0.4794
     18 O2          0.6014    0.1672   -1.9829 O.co2     1 <0>        -0.5996
     19 H1          2.6639    4.4931    1.6902 H         1 <0>         0.1217
     20 H2          4.2993    4.0435   -0.0875 H         1 <0>         0.1220
     21 H3          3.8549    2.3126   -1.7763 H         1 <0>         0.1376
     22 H4          0.5609    3.2232    1.7946 H         1 <0>         0.1219
     23 H5         -1.4619    2.8682    0.0165 H         1 <0>         0.4082
     24 H6         -3.8299    2.6260   -0.7203 H         1 <0>         0.1328
     25 H7         -5.9150    1.3551   -0.4143 H         1 <0>         0.1326
     26 H8         -3.7720   -1.6658    1.7051 H         1 <0>         0.1331
     27 H9         -1.6805   -0.4065    1.3945 H         1 <0>         0.1520
     28 O3          2.6226    0.4079   -2.8673 O.co2     1 <0>        -0.7520
@<TRIPOS>BOND
     1    1    6 ar
     2    1    2 ar
     3    1   19 1
     4    2    3 ar
     5    2   20 1
     6    3    4 ar
     7    3   21 1
     8    4    5 ar
     9    4   17 1
    10    5    6 ar
    11    5    7 1
    12    6   22 1
    13    7    8 2
    14    7    9 am
    15    9   10 1
    16    9   23 1
    17   10   15 ar
    18   10   11 ar
    19   11   12 ar
    20   11   24 1
    21   12   13 ar
    22   12   25 1
    23   13   14 ar
    24   13   16 1
    25   14   15 ar
    26   14   26 1
    27   15   27 1
    28   17   18 2
    29   17   28 1
@<TRIPOS>MOLECULE
ZINC03881282
   23    24     0     0     0
SMALL
USER_CHARGES

@<TRIPOS>ATOM
      1 C1          1.1750    1.7928    0.0005 C.ar      1 <0>        -0.1113
      2 C2         -0.0126    1.0758    0.0080 C.ar      1 <0>        -0.1059
      3 C3         -1.2156    1.7582    0.0173 C.ar      1 <0>        -0.0622
      4 C4         -1.2161    3.1304    0.0310 C.ar      1 <0>        -0.1514
      5 C5         -0.0267    3.8938    0.0233 C.ar      1 <0>         0.0918
      6 C6          1.1840    3.1634    0.0073 C.ar      1 <0>        -0.0684
      7 N1         -0.1914    5.2346    0.0326 N.2       1 <0>        -0.5014
      8 C7         -1.3782    5.7994    0.0479 C.2       1 <0>         0.1374
      9 S1         -2.4725    4.3864    0.0509 S.3       1 <0>         0.0115
     10 S2         -1.7864    7.5134    0.0618 S.3       1 <0>         0.0398
     11 C8         -3.5931    7.4061    0.0795 C.3       1 <0>        -0.1002
     12 C9         -4.1876    8.8158    0.0935 C.3       1 <0>        -0.1450
     13 C10        -5.6919    8.7265    0.1083 C.2       1 <0>         0.4701
     14 O1         -6.2330    7.6461    0.1076 O.co2     1 <0>        -0.6342
     15 H1          2.1137    1.2590   -0.0114 H         1 <0>         0.1318
     16 H2          0.0021   -0.0041    0.0020 H         1 <0>         0.1363
     17 H3         -2.1488    1.2145    0.0184 H         1 <0>         0.1325
     18 H4          2.1261    3.6913    0.0008 H         1 <0>         0.1313
     19 H5         -3.9344    6.8767   -0.8101 H         1 <0>         0.0995
     20 H6         -3.9164    6.8666    0.9697 H         1 <0>         0.0995
     21 H7         -3.8464    9.3452    0.9832 H         1 <0>         0.0801
     22 H8         -3.8644    9.3553   -0.7967 H         1 <0>         0.0801
     23 O2         -6.4307    9.8471    0.1222 O.co2     1 <0>        -0.7614
@<TRIPOS>BOND
     1    1    6 ar
     2    1    2 ar
     3    1   15 1
     4    2    3 ar
     5    2   16 1
     6    3    4 ar
     7    3   17 1
     8    4    9 1
     9    4    5 ar
    10    5    6 ar
    11    5    7 1
    12    6   18 1
    13    7    8 2
    14    8    9 1
    15    8   10 1
    16   10   11 1
    17   11   12 1
    18   11   19 1
    19   11   20 1
    20   12   13 1
    21   12   21 1
    22   12   22 1
    23   13   14 2
    24   13   23 1
@<TRIPOS>MOLECULE
ZINC03881283
   31    32     0     0     0
SMALL
USER_CHARGES

@<TRIPOS>ATOM
      1 C1         -2.8802    0.7359    0.9938 C.ar      1 <0>        -0.1802
      2 C2         -3.9922    0.0306    1.4100 C.ar      1 <0>         0.0043
      3 C3         -4.1051   -0.3700    2.7287 C.ar      1 <0>        -0.6984
      4 C4         -3.1033   -0.0707    3.6338 C.ar      1 <0>         0.0001
      5 C5         -1.9862    0.6297    3.2230 C.ar      1 <0>        -0.1521
      6 C6         -1.8695    1.0336    1.8991 C.ar      1 <0>         0.2269
      7 N1         -0.7413    1.7426    1.4804 N.pl3     1 <0>        -1.0443
      8 S1          0.0272    1.3211    0.0754 S.o2      1 <0>         2.7160
      9 O1          1.1818    2.1441   -0.0186 O.2       1 <0>        -0.9214
     10 O2         -0.9686    1.2871   -0.9377 O.2       1 <0>        -0.9711
     11 C7          0.6022   -0.3328    0.2720 C.2       1 <0>        -0.7125
     12 C8          0.1216   -1.3553   -0.5065 C.2       1 <0>        -0.0953
     13 C9          0.5971   -2.6144   -0.3162 C.2       1 <0>        -0.2532
     14 S2          1.7435   -2.4148    0.9689 S.3       1 <0>         0.1895
     15 C10         1.5648   -0.6571    1.2166 C.2       1 <0>        -0.0422
     16 C11         2.2529    0.2152    2.1699 C.2       1 <0>         0.5113
     17 O3          1.9278    1.3829    2.2700 O.co2     1 <0>        -0.5846
     18 S3         -5.5285   -1.2643    3.2569 S.o2      1 <0>         2.7039
     19 O4         -6.0661   -1.8916    2.1007 O.2       1 <0>        -0.9671
     20 O5         -5.1423   -1.9973    4.4113 O.2       1 <0>        -0.9662
     21 N2         -6.6487   -0.1514    3.7557 N.pl3     1 <0>        -1.2514
     22 H1         -2.7947    1.0524   -0.0353 H         1 <0>         0.1658
     23 H2         -4.7764   -0.2047    0.7057 H         1 <0>         0.1471
     24 H3         -3.1945   -0.3854    4.6629 H         1 <0>         0.1460
     25 H4         -1.2040    0.8628    3.9303 H         1 <0>         0.1449
     26 H5         -0.4078    2.4818    2.0127 H         1 <0>         0.4378
     27 H6         -0.6261   -1.1621   -1.2615 H         1 <0>         0.1423
     28 H7          0.3259   -3.5199   -0.8386 H         1 <0>         0.1858
     29 H8         -6.4424    0.7955    3.7166 H         1 <0>         0.4172
     30 H9         -7.5113   -0.4466    4.0871 H         1 <0>         0.4183
     31 O6          3.2476   -0.2762    2.9373 O.co2     1 <0>        -0.7170
@<TRIPOS>BOND
     1    1    6 ar
     2    1    2 ar
     3    1   22 1
     4    2    3 ar
     5    2   23 1
     6    3    4 ar
     7    3   18 1
     8    4    5 ar
     9    4   24 1
    10    5    6 ar
    11    5   25 1
    12    6    7 1
    13    7    8 1
    14    7   26 1
    15    8    9 2
    16    8   10 2
    17    8   11 1
    18   11   15 2
    19   11   12 1
    20   12   13 2
    21   12   27 1
    22   13   14 1
    23   13   28 1
    24   14   15 1
    25   15   16 1
    26   16   17 2
    27   16   31 1
    28   18   19 2
    29   18   20 2
    30   18   21 1
    31   21   29 1
    32   21   30 1
@<TRIPOS>MOLECULE
ZINC03881284
   41    43     0     0     0
SMALL
USER_CHARGES

@<TRIPOS>ATOM
      1 C1         -3.4413   -0.9409    1.8046 C.ar      1 <0>        -0.0937
      2 C2         -4.3869   -0.2743    2.5615 C.ar      1 <0>        -0.1377
      3 C3         -4.1407    1.0112    3.0072 C.ar      1 <0>        -0.1279
      4 C4         -2.9405    1.6337    2.6993 C.ar      1 <0>         0.0694
      5 C5         -1.9889    0.9634    1.9309 C.ar      1 <0>         0.1954
      6 C6         -2.2440   -0.3257    1.4885 C.ar      1 <0>        -0.1734
      7 N1         -0.7772    1.5883    1.6120 N.pl3     1 <0>        -1.0270
      8 S1         -0.0630    1.3095    0.1442 S.o2      1 <0>         2.7142
      9 O1          0.0640   -0.1000    0.0155 O.2       1 <0>        -0.9785
     10 O2          1.0528    2.1856    0.0625 O.2       1 <0>        -0.9227
     11 C7         -1.2020    1.8278   -1.0963 C.2       1 <0>        -0.7116
     12 C8         -1.7556    0.9345   -1.9784 C.2       1 <0>        -0.0915
     13 C9         -2.6295    1.3839   -2.9175 C.2       1 <0>        -0.2581
     14 S2         -2.7110    3.0863   -2.6003 S.3       1 <0>         0.1716
     15 C10        -1.5827    3.1559   -1.2201 C.2       1 <0>        -0.0316
     16 C11        -1.1656    4.3132   -0.4266 C.2       1 <0>         0.5083
     17 O3         -0.3128    4.1869    0.4314 O.co2     1 <0>        -0.5666
     18 N2         -2.6868    2.9335    3.1541 N.pl3     1 <0>        -0.4916
     19 C12        -2.6175    2.9738    4.6204 C.3       1 <0>         0.0632
     20 C13        -2.1966    4.3735    5.0742 C.3       1 <0>        -0.1177
     21 C14        -3.2143    5.3976    4.5643 C.3       1 <0>        -0.1174
     22 C15        -3.3027    5.3016    3.0386 C.3       1 <0>        -0.1181
     23 C16        -3.6916    3.8751    2.6439 C.3       1 <0>         0.0726
     24 H1         -3.6382   -1.9452    1.4595 H         1 <0>         0.1252
     25 H2         -5.3206   -0.7592    2.8056 H         1 <0>         0.1188
     26 H3         -4.8813    1.5288    3.5988 H         1 <0>         0.1188
     27 H4         -1.5074   -0.8495    0.8974 H         1 <0>         0.1608
     28 H5         -0.3561    2.1845    2.2508 H         1 <0>         0.4362
     29 H6         -1.4997   -0.1135   -1.9273 H         1 <0>         0.1394
     30 H7         -3.1472    0.8176   -3.6776 H         1 <0>         0.1824
     31 H8         -3.5964    2.7361    5.0369 H         1 <0>         0.0317
     32 H9         -1.8873    2.2439    4.9697 H         1 <0>         0.0719
     33 H10        -1.2118    4.6064    4.6693 H         1 <0>         0.0767
     34 H11        -2.1604    4.4074    6.1630 H         1 <0>         0.0624
     35 H12        -2.8954    6.4005    4.8483 H         1 <0>         0.0617
     36 H13        -4.1913    5.1881    4.9997 H         1 <0>         0.0516
     37 H14        -2.3353    5.5492    2.6018 H         1 <0>         0.0878
     38 H15        -4.0568    5.9987    2.6732 H         1 <0>         0.0644
     39 H16        -3.7414    3.7996    1.5576 H         1 <0>         0.0762
     40 H17        -4.6653    3.6332    3.0698 H         1 <0>         0.0281
     41 O4         -1.7271    5.5198   -0.6470 O.co2     1 <0>        -0.7237
@<TRIPOS>BOND
     1    1    6 ar
     2    1    2 ar
     3    1   24 1
     4    2    3 ar
     5    2   25 1
     6    3    4 ar
     7    3   26 1
     8    4    5 ar
     9    4   18 1
    10    5    6 ar
    11    5    7 1
    12    6   27 1
    13    7    8 1
    14    7   28 1
    15    8    9 2
    16    8   10 2
    17    8   11 1
    18   11   15 2
    19   11   12 1
    20   12   13 2
    21   12   29 1
    22   13   14 1
    23   13   30 1
    24   14   15 1
    25   15   16 1
    26   16   17 2
    27   16   41 1
    28   18   23 1
    29   18   19 1
    30   19   20 1
    31   19   31 1
    32   19   32 1
    33   20   21 1
    34   20   33 1
    35   20   34 1
    36   21   22 1
    37   21   35 1
    38   21   36 1
    39   22   23 1
    40   22   37 1
    41   22   38 1
    42   23   39 1
    43   23   40 1
@<TRIPOS>MOLECULE
ZINC03881285
   29    30     0     0     0
SMALL
USER_CHARGES

@<TRIPOS>ATOM
      1 C1          2.3143    4.0050    4.5261 C.3       1 <0>        -0.0601
      2 C2          1.7694    3.7281    3.1487 C.2       1 <0>        -0.0287
      3 C3          2.0281    2.6195    2.3955 C.2       1 <0>        -0.0918
      4 C4          1.2783    2.8075    1.1445 C.2       1 <0>        -0.7559
      5 C5          0.6568    3.9907    1.2615 C.2       1 <0>         0.1329
      6 O1          0.9510    4.5261    2.4566 O.3       1 <0>        -0.1681
      7 C6         -0.2321    4.6174    0.2184 C.3       1 <0>        -0.1161
      8 S1          1.2150    1.7072   -0.2302 S.o2      1 <0>         2.7089
      9 O2          2.4891    1.0828   -0.3096 O.2       1 <0>        -0.9212
     10 O3          0.6573    2.4405   -1.3121 O.2       1 <0>        -0.9528
     11 N1          0.1270    0.5165    0.1452 N.pl3     1 <0>        -1.0042
     12 C7         -1.2171    0.8368    0.3447 C.2       1 <0>         0.1002
     13 C8         -2.3284    0.2185   -0.1439 C.2       1 <0>        -0.1772
     14 C9         -3.5729    0.7206    0.1939 C.2       1 <0>        -0.1361
     15 C10        -3.6481    1.8077    0.9972 C.2       1 <0>        -0.1892
     16 S2         -1.9265    2.1584    1.3129 S.3       1 <0>         0.0502
     17 C11         2.8793    1.4746    2.7597 C.2       1 <0>         0.5126
     18 O4          4.0628    1.4852    2.4837 O.co2     1 <0>        -0.6049
     19 H1          3.2578    4.5442    4.4419 H         1 <0>         0.0778
     20 H2          1.5994    4.6089    5.0850 H         1 <0>         0.0715
     21 H3          2.4798    3.0624    5.0477 H         1 <0>         0.0932
     22 H4         -1.2425    4.2203    0.3159 H         1 <0>         0.1020
     23 H5         -0.2514    5.6981    0.3592 H         1 <0>         0.0858
     24 H6          0.1546    4.3872   -0.7744 H         1 <0>         0.1211
     25 H7          0.4229   -0.4040    0.2226 H         1 <0>         0.4339
     26 H8         -2.2397   -0.6477   -0.7828 H         1 <0>         0.1390
     27 H9         -4.4718    0.2514   -0.1780 H         1 <0>         0.1361
     28 H10        -4.5241    2.3266    1.3576 H         1 <0>         0.1867
     29 O5          2.3459    0.4149    3.3991 O.co2     1 <0>        -0.7458
@<TRIPOS>BOND
     1    1    2 1
     2    1   19 1
     3    1   20 1
     4    1   21 1
     5    2    6 1
     6    2    3 2
     7    3    4 1
     8    3   17 1
     9    4    5 2
    10    4    8 1
    11    5    6 1
    12    5    7 1
    13    7   22 1
    14    7   23 1
    15    7   24 1
    16    8    9 2
    17    8   10 2
    18    8   11 1
    19   11   12 1
    20   11   25 1
    21   12   16 1
    22   12   13 2
    23   13   14 1
    24   13   26 1
    25   14   15 2
    26   14   27 1
    27   15   16 1
    28   15   28 1
    29   17   18 2
    30   17   29 1
@<TRIPOS>MOLECULE
ZINC03881286
   32    33     0     0     0
SMALL
USER_CHARGES

@<TRIPOS>ATOM
      1 C1          6.6644    0.4718    0.6694 C.3       1 <0>        -0.1235
      2 C2          5.2542    0.1508    0.2458 C.ar      1 <0>        -0.0272
      3 C3          4.6008   -0.9397    0.7886 C.ar      1 <0>        -0.1460
      4 C4          3.3073   -1.2341    0.4001 C.ar      1 <0>        -0.0117
      5 C5          2.6668   -0.4375   -0.5306 C.ar      1 <0>        -0.6849
      6 C6          3.3220    0.6503   -1.0769 C.ar      1 <0>        -0.0002
      7 C7          4.6140    0.9472   -0.6851 C.ar      1 <0>        -0.1383
      8 S1          1.0180   -0.8127   -1.0257 S.o2      1 <0>         2.6863
      9 O1          0.8256   -2.1990   -0.7796 O.2       1 <0>        -0.9534
     10 O2          0.8388   -0.2352   -2.3117 O.2       1 <0>        -0.9373
     11 N1          0.0021   -0.0041    0.0020 N.pl3     1 <0>        -1.0045
     12 C8         -0.0169    1.3916    0.0097 C.2       1 <0>         0.0138
     13 C9         -1.0887    2.2195    0.0184 C.2       1 <0>        -0.0844
     14 C10        -0.8174    3.6371    0.0294 C.2       1 <0>        -0.1530
     15 C11         0.5063    4.0229    0.0188 C.2       1 <0>        -0.1303
     16 S2          1.3625    2.5182    0.0026 S.3       1 <0>         0.0493
     17 C12         1.0721    5.4197    0.0205 C.3       1 <0>        -0.0493
     18 C13        -1.9048    4.6262    0.0447 C.2       1 <0>         0.5052
     19 O3         -1.6459    5.8140    0.0482 O.co2     1 <0>        -0.6262
     20 H1          7.3668   -0.0445    0.0149 H         1 <0>         0.0776
     21 H2          6.8282    1.5473    0.6018 H         1 <0>         0.0732
     22 H3          6.8183    0.1447    1.6977 H         1 <0>         0.0714
     23 H4          5.1010   -1.5619    1.5159 H         1 <0>         0.1311
     24 H5          2.7969   -2.0864    0.8239 H         1 <0>         0.1391
     25 H6          2.8232    1.2701   -1.8072 H         1 <0>         0.1472
     26 H7          5.1244    1.7995   -1.1089 H         1 <0>         0.1341
     27 H8         -0.5799   -0.5003    0.5987 H         1 <0>         0.4265
     28 H9         -2.0987    1.8370    0.0199 H         1 <0>         0.1481
     29 H10         2.1610    5.3706    0.0100 H         1 <0>         0.0538
     30 H11         0.7239    5.9538   -0.8635 H         1 <0>         0.0844
     31 H12         0.7408    5.9449    0.9163 H         1 <0>         0.0849
     32 O4         -3.1889    4.2161    0.0547 O.co2     1 <0>        -0.7559
@<TRIPOS>BOND
     1    1    2 1
     2    1   20 1
     3    1   21 1
     4    1   22 1
     5    2    7 ar
     6    2    3 ar
     7    3    4 ar
     8    3   23 1
     9    4    5 ar
    10    4   24 1
    11    5    6 ar
    12    5    8 1
    13    6    7 ar
    14    6   25 1
    15    7   26 1
    16    8    9 2
    17    8   10 2
    18    8   11 1
    19   11   12 1
    20   11   27 1
    21   12   16 1
    22   12   13 2
    23   13   14 1
    24   13   28 1
    25   14   15 2
    26   14   18 1
    27   15   16 1
    28   15   17 1
    29   17   29 1
    30   17   30 1
    31   17   31 1
    32   18   19 2
    33   18   32 1
@<TRIPOS>MOLECULE
ZINC03881287
   26    27     0     0     0
SMALL
USER_CHARGES

@<TRIPOS>ATOM
      1 C1         -1.0888    3.9504   -1.5875 C.ar      1 <0>        -0.0013
      2 C2         -1.1733    4.6419   -2.7813 C.ar      1 <0>        -0.1337
      3 C3         -1.7508    4.0441   -3.8873 C.ar      1 <0>         0.0181
      4 C4         -2.2382    2.7523   -3.7991 C.ar      1 <0>        -0.1326
      5 C5         -2.1480    2.0598   -2.6064 C.ar      1 <0>         0.0016
      6 C6         -1.5709    2.6577   -1.5016 C.ar      1 <0>        -0.6699
      7 S1         -1.4563    1.7742    0.0186 S.o2      1 <0>         2.6933
      8 O1         -2.4755    0.7845   -0.0090 O.2       1 <0>        -0.9542
      9 O2         -1.3685    2.7488    1.0490 O.2       1 <0>        -0.9535
     10 N1         -0.0111    0.9658    0.0074 N.pl3     1 <0>        -1.0159
     11 C7          1.1844    1.6779   -0.0002 C.2       1 <0>         0.1201
     12 C8          1.3207    2.8711    0.6790 C.2       1 <0>        -0.2133
     13 C9          2.5083    3.5245    0.6384 C.2       1 <0>        -0.2170
     14 S2          3.4968    2.5028   -0.3530 S.3       1 <0>         0.1575
     15 C10         2.3066    1.2176   -0.6905 C.2       1 <0>        -0.1739
     16 C11         2.4594    0.0417   -1.4582 C.2       1 <0>         0.5203
     17 O3          1.5259   -0.7296   -1.5825 O.co2     1 <0>        -0.6178
     18 Cl1        -1.8632    4.9143   -5.3852 Cl        1 <0>        -0.0615
     19 H1         -0.6420    4.4186   -0.7229 H         1 <0>         0.1501
     20 H2         -0.7926    5.6503   -2.8495 H         1 <0>         0.1433
     21 H3         -2.6888    2.2849   -4.6623 H         1 <0>         0.1442
     22 H4         -2.5282    1.0513   -2.5375 H         1 <0>         0.1517
     23 H5          0.0021   -0.0041    0.0020 H         1 <0>         0.4385
     24 H6          0.4910    3.2802    1.2363 H         1 <0>         0.1655
     25 H7          2.7745    4.4586    1.1106 H         1 <0>         0.1841
     26 O4          3.6407   -0.2267   -2.0540 O.co2     1 <0>        -0.7439
@<TRIPOS>BOND
     1    1    6 ar
     2    1    2 ar
     3    1   19 1
     4    2    3 ar
     5    2   20 1
     6    3    4 ar
     7    3   18 1
     8    4    5 ar
     9    4   21 1
    10    5    6 ar
    11    5   22 1
    12    6    7 1
    13    7    8 2
    14    7    9 2
    15    7   10 1
    16   10   11 1
    17   10   23 1
    18   11   15 2
    19   11   12 1
    20   12   13 2
    21   12   24 1
    22   13   14 1
    23   13   25 1
    24   14   15 1
    25   15   16 1
    26   16   17 2
    27   16   26 1
@<TRIPOS>MOLECULE
ZINC03881288
   29    30     0     0     0
SMALL
USER_CHARGES

@<TRIPOS>ATOM
      1 C1         -3.1143    2.3148   -3.6295 C.ar      1 <0>        -0.0829
      2 C2         -1.9022    2.9753   -3.5321 C.ar      1 <0>        -0.1462
      3 C3         -1.0216    2.6711   -2.5093 C.ar      1 <0>        -0.0395
      4 C4         -1.3422    1.6980   -1.5854 C.ar      1 <0>        -0.6530
      5 C5         -2.5634    1.0277   -1.6777 C.ar      1 <0>        -0.0153
      6 C6         -3.4500    1.3437   -2.7093 C.ar      1 <0>        -0.1020
      7 C7         -2.9163   -0.0109   -0.6882 C.2       1 <0>         0.4807
      8 O1         -2.1960   -0.2065    0.2701 O.co2     1 <0>        -0.6039
      9 S1         -0.2162    1.3070   -0.2878 S.o2      1 <0>         2.7148
     10 O2         -0.0487   -0.1040   -0.3068 O.2       1 <0>        -0.9274
     11 O3          0.8772    2.2057   -0.4144 O.2       1 <0>        -0.9861
     12 N1         -0.9684    1.6751    1.1408 N.pl3     1 <0>        -1.0317
     13 C8         -1.3676    2.9886    1.4021 C.ar      1 <0>         0.1708
     14 C9         -0.4949    4.0419    1.1611 C.ar      1 <0>        -0.1497
     15 C10        -0.8943    5.3395    1.4144 C.ar      1 <0>        -0.0883
     16 C11        -2.1582    5.5898    1.9194 C.ar      1 <0>        -0.0558
     17 C12        -3.0276    4.5418    2.1658 C.ar      1 <0>        -0.0922
     18 C13        -2.6357    3.2427    1.9085 C.ar      1 <0>        -0.1186
     19 Cl1        -2.6541    7.2215    2.2440 Cl        1 <0>        -0.0823
     20 H1         -3.7992    2.5604   -4.4276 H         1 <0>         0.1251
     21 H2         -1.6443    3.7348   -4.2553 H         1 <0>         0.1252
     22 H3         -0.0793    3.1938   -2.4363 H         1 <0>         0.1373
     23 H4         -4.3965    0.8293   -2.7862 H         1 <0>         0.1393
     24 H5         -1.1320    0.9790    1.7962 H         1 <0>         0.4370
     25 H6          0.4934    3.8468    0.7719 H         1 <0>         0.1624
     26 H7         -0.2180    6.1594    1.2224 H         1 <0>         0.1357
     27 H8         -4.0136    4.7399    2.5593 H         1 <0>         0.1342
     28 H9         -3.3148    2.4251    2.1007 H         1 <0>         0.1410
     29 O4         -4.0370   -0.7410   -0.8487 O.co2     1 <0>        -0.7289
@<TRIPOS>BOND
     1    1    6 ar
     2    1    2 ar
     3    1   20 1
     4    2    3 ar
     5    2   21 1
     6    3    4 ar
     7    3   22 1
     8    4    5 ar
     9    4    9 1
    10    5    6 ar
    11    5    7 1
    12    6   23 1
    13    7    8 2
    14    7   29 1
    15    9   10 2
    16    9   11 2
    17    9   12 1
    18   12   13 1
    19   12   24 1
    20   13   18 ar
    21   13   14 ar
    22   14   15 ar
    23   14   25 1
    24   15   16 ar
    25   15   26 1
    26   16   17 ar
    27   16   19 1
    28   17   18 ar
    29   17   27 1
    30   18   28 1
@<TRIPOS>MOLECULE
ZINC03881289
   29    30     0     0     0
SMALL
USER_CHARGES

@<TRIPOS>ATOM
      1 C1          7.9152   -1.1859    4.5123 C.ar      1 <0>        -0.1190
      2 C2          6.6036   -0.9989    4.9071 C.ar      1 <0>        -0.1224
      3 C3          5.6151   -0.8187    3.9578 C.ar      1 <0>        -0.0974
      4 C4          5.9380   -0.8260    2.6137 C.ar      1 <0>        -0.0910
      5 C5          7.2486   -1.0188    2.2188 C.ar      1 <0>        -0.1028
      6 C6          8.2381   -1.1933    3.1683 C.ar      1 <0>        -0.1259
      7 C7          4.8602   -0.6301    1.5788 C.3       1 <0>         0.1600
      8 N1          4.7185    0.7983    1.2858 N.pl3     1 <0>        -1.0967
      9 S1          3.9039    1.2886   -0.0701 S.o2      1 <0>         2.7212
     10 O1          4.4268    0.5325   -1.1536 O.2       1 <0>        -0.9841
     11 O2          3.9133    2.7095   -0.0580 O.2       1 <0>        -0.9361
     12 C8          2.2238    0.7945    0.1244 C.2       1 <0>        -0.7130
     13 C9          1.6460   -0.1247   -0.7146 C.2       1 <0>        -0.0959
     14 C10         0.3460   -0.4728   -0.5236 C.2       1 <0>        -0.2572
     15 S2         -0.1216    0.4796    0.8474 S.3       1 <0>         0.1740
     16 C11         1.4272    1.3181    1.1320 C.2       1 <0>        -0.0387
     17 C12         1.7685    2.3019    2.1609 C.2       1 <0>         0.5101
     18 O3          2.9141    2.6959    2.2694 O.co2     1 <0>        -0.5781
     19 H1          8.6876   -1.3260    5.2540 H         1 <0>         0.1191
     20 H2          6.3514   -0.9932    5.9572 H         1 <0>         0.1221
     21 H3          4.5904   -0.6726    4.2662 H         1 <0>         0.1271
     22 H4          7.5002   -1.0289    1.1685 H         1 <0>         0.1249
     23 H5          9.2628   -1.3391    2.8598 H         1 <0>         0.1208
     24 H6          3.9157   -1.0183    1.9598 H         1 <0>         0.0677
     25 H7          5.1307   -1.1628    0.6671 H         1 <0>         0.0837
     26 H8          5.1017    1.4569    1.8860 H         1 <0>         0.4265
     27 H9          2.2176   -0.5667   -1.5173 H         1 <0>         0.1405
     28 H10        -0.2498   -1.1759   -1.0866 H         1 <0>         0.1832
     29 O4          0.8125    2.7715    2.9887 O.co2     1 <0>        -0.7229
@<TRIPOS>BOND
     1    1    6 ar
     2    1    2 ar
     3    1   19 1
     4    2    3 ar
     5    2   20 1
     6    3    4 ar
     7    3   21 1
     8    4    5 ar
     9    4    7 1
    10    5    6 ar
    11    5   22 1
    12    6   23 1
    13    7    8 1
    14    7   24 1
    15    7   25 1
    16    8    9 1
    17    8   26 1
    18    9   10 2
    19    9   11 2
    20    9   12 1
    21   12   16 2
    22   12   13 1
    23   13   14 2
    24   13   27 1
    25   14   15 1
    26   14   28 1
    27   15   16 1
    28   16   17 1
    29   17   18 2
    30   17   29 1
@<TRIPOS>MOLECULE
ZINC03881290
   26    27     0     0     0
SMALL
USER_CHARGES

@<TRIPOS>ATOM
      1 C1         -0.5787    4.1867    1.2911 C.ar      1 <0>        -0.1520
      2 C2         -0.9987    5.4906    1.4667 C.ar      1 <0>        -0.0684
      3 C3         -2.3165    5.7562    1.7943 C.ar      1 <0>        -0.1090
      4 C4         -3.2185    4.7174    1.9413 C.ar      1 <0>        -0.0724
      5 C5         -2.8058    3.4119    1.7609 C.ar      1 <0>        -0.1243
      6 C6         -1.4835    3.1422    1.4320 C.ar      1 <0>         0.1800
      7 N1         -1.0629    1.8224    1.2488 N.pl3     1 <0>        -1.0421
      8 S1         -0.1224    1.4266   -0.0555 S.o2      1 <0>         2.7169
      9 O1          0.0453    0.0159   -0.0221 O.2       1 <0>        -0.9253
     10 O2          0.9786    2.3250   -0.0498 O.2       1 <0>        -0.9737
     11 C7         -1.0600    1.7881   -1.5028 C.2       1 <0>        -0.7104
     12 C8         -0.6598    2.7526   -2.3929 C.2       1 <0>        -0.0936
     13 C9         -1.4178    2.9944   -3.4949 C.2       1 <0>        -0.2548
     14 S2         -2.7295    1.8734   -3.3272 S.3       1 <0>         0.1842
     15 C10        -2.2319    1.1062   -1.7953 C.2       1 <0>        -0.0404
     16 C11        -2.8901    0.0372   -1.0421 C.2       1 <0>         0.5110
     17 O3         -2.4593   -0.2943    0.0459 O.co2     1 <0>        -0.5829
     18 Br1        -2.8859    7.5425    2.0410 Br        1 <0>        -0.0612
     19 H1          0.4510    3.9797    1.0398 H         1 <0>         0.1630
     20 H2         -0.2969    6.3035    1.3523 H         1 <0>         0.1362
     21 H3         -4.2465    4.9277    2.1971 H         1 <0>         0.1353
     22 H4         -3.5105    2.6015    1.8751 H         1 <0>         0.1419
     23 H5         -1.3219    1.1380    1.8855 H         1 <0>         0.4353
     24 H6          0.2468    3.3134   -2.2197 H         1 <0>         0.1413
     25 H7         -1.2451    3.7117   -4.2837 H         1 <0>         0.1845
     26 O4         -3.9743   -0.5802   -1.5549 O.co2     1 <0>        -0.7188
@<TRIPOS>BOND
     1    1    6 ar
     2    1    2 ar
     3    1   19 1
     4    2    3 ar
     5    2   20 1
     6    3    4 ar
     7    3   18 1
     8    4    5 ar
     9    4   21 1
    10    5    6 ar
    11    5   22 1
    12    6    7 1
    13    7    8 1
    14    7   23 1
    15    8    9 2
    16    8   10 2
    17    8   11 1
    18   11   15 2
    19   11   12 1
    20   12   13 2
    21   12   24 1
    22   13   14 1
    23   13   25 1
    24   14   15 1
    25   15   16 1
    26   16   17 2
    27   16   26 1
@<TRIPOS>MOLECULE
ZINC03881291
   28    29     0     0     0
SMALL
USER_CHARGES

@<TRIPOS>ATOM
      1 C1         -3.0935   -0.0660    3.6290 C.ar      1 <0>        -0.0713
      2 C2         -1.9878    0.6324    3.2172 C.ar      1 <0>        -0.1442
      3 C3         -1.8721    1.0363    1.8897 C.ar      1 <0>         0.1463
      4 C4         -2.8805    0.7372    0.9774 C.ar      1 <0>        -0.1724
      5 C5         -3.9863    0.0345    1.3814 C.ar      1 <0>        -0.0589
      6 C6         -4.1057   -0.3726    2.7140 C.ar      1 <0>        -0.1316
      7 C7         -5.2954   -1.1237    3.1530 C.2       1 <0>         0.4941
      8 O1         -5.3976   -1.4771    4.3111 O.co2     1 <0>        -0.6377
      9 N1         -0.7499    1.7446    1.4757 N.pl3     1 <0>        -1.0362
     10 S1          0.0233    1.3246    0.0728 S.o2      1 <0>         2.7187
     11 O2          1.1766    2.1498   -0.0180 O.2       1 <0>        -0.9399
     12 O3         -0.9696    1.2886   -0.9431 O.2       1 <0>        -0.9755
     13 C8          0.6010   -0.3282    0.2711 C.2       1 <0>        -0.7036
     14 C9          0.1245   -1.3517   -0.5086 C.2       1 <0>        -0.0893
     15 C10         0.6018   -2.6098   -0.3168 C.2       1 <0>        -0.2554
     16 S2          1.7444   -2.4079    0.9713 S.3       1 <0>         0.1695
     17 C11         1.5616   -0.6505    1.2184 C.2       1 <0>        -0.0407
     18 C12         2.2455    0.2232    2.1734 C.2       1 <0>         0.5141
     19 O4          1.9178    1.3903    2.2726 O.co2     1 <0>        -0.5806
     20 H1         -3.1825   -0.3792    4.6588 H         1 <0>         0.1274
     21 H2         -1.2056    0.8693    3.9232 H         1 <0>         0.1242
     22 H3         -2.7895    1.0555   -0.0507 H         1 <0>         0.1475
     23 H4         -4.7660   -0.2010    0.6722 H         1 <0>         0.1322
     24 H5         -0.4198    2.4850    2.0085 H         1 <0>         0.4281
     25 H6         -0.6216   -1.1599   -1.2656 H         1 <0>         0.1418
     26 H7          0.3338   -3.5159   -0.8399 H         1 <0>         0.1830
     27 O5         -6.2699   -1.4184    2.2701 O.co2     1 <0>        -0.7622
     28 O6          3.2390   -0.2662    2.9436 O.co2     1 <0>        -0.7275
@<TRIPOS>BOND
     1    1    6 ar
     2    1    2 ar
     3    1   20 1
     4    2    3 ar
     5    2   21 1
     6    3    4 ar
     7    3    9 1
     8    4    5 ar
     9    4   22 1
    10    5    6 ar
    11    5   23 1
    12    6    7 1
    13    7    8 2
    14    7   27 1
    15    9   10 1
    16    9   24 1
    17   10   11 2
    18   10   12 2
    19   10   13 1
    20   13   17 2
    21   13   14 1
    22   14   15 2
    23   14   25 1
    24   15   16 1
    25   15   26 1
    26   16   17 1
    27   17   18 1
    28   18   19 2
    29   18   28 1
@<TRIPOS>MOLECULE
ZINC03881292
   28    29     0     0     0
SMALL
USER_CHARGES

@<TRIPOS>ATOM
      1 C1          3.0248   -0.8570    0.1744 C.ar      1 <0>        -0.1243
      2 C2          2.5273   -1.3204    1.3754 C.ar      1 <0>        -0.0919
      3 C3          2.6239   -0.5302    2.5225 C.ar      1 <0>        -0.1030
      4 C4          3.2291    0.7252    2.4502 C.ar      1 <0>        -0.0902
      5 C5          3.7212    1.1831    1.2378 C.ar      1 <0>         0.1313
      6 C6          3.6199    0.3883    0.1016 C.ar      1 <0>        -0.1575
      7 N1          4.3242    2.4410    1.1589 N.pl3     1 <0>        -1.0374
      8 S1          3.9433    3.4652   -0.0854 S.o2      1 <0>         2.7208
      9 O1          4.0812    2.7159   -1.2849 O.2       1 <0>        -0.9798
     10 O2          4.6597    4.6702    0.1467 O.2       1 <0>        -0.9392
     11 C7          2.2327    3.8587    0.0688 C.2       1 <0>        -0.7088
     12 C8          1.3213    3.4761   -0.8829 C.2       1 <0>        -0.0883
     13 C9          0.0136    3.8104   -0.7219 C.2       1 <0>        -0.2609
     14 S2          0.0073    4.6719    0.7825 S.3       1 <0>         0.1721
     15 C10         1.7478    4.5651    1.1596 C.2       1 <0>        -0.0337
     16 C11         2.4755    5.0914    2.3157 C.2       1 <0>         0.5126
     17 O3          3.6587    4.8454    2.4529 O.co2     1 <0>        -0.5790
     18 C12         2.0922   -1.0237    3.8096 C.2       1 <0>         0.4921
     19 O4          2.1773   -0.3345    4.8062 O.co2     1 <0>        -0.6259
     20 H1          2.9491   -1.4698   -0.7117 H         1 <0>         0.1183
     21 H2          2.0637   -2.2944    1.4281 H         1 <0>         0.1280
     22 H3          3.3104    1.3393    3.3348 H         1 <0>         0.1341
     23 H4          4.0079    0.7450   -0.8410 H         1 <0>         0.1472
     24 H5          4.9659    2.7144    1.8330 H         1 <0>         0.4298
     25 H6          1.6399    2.9197   -1.7519 H         1 <0>         0.1398
     26 H7         -0.8196    3.5922   -1.3735 H         1 <0>         0.1817
     27 O5          1.8338    5.8492    3.2287 O.co2     1 <0>        -0.7247
     28 O6          1.5130   -2.2380    3.8779 O.co2     1 <0>        -0.7632
@<TRIPOS>BOND
     1    1    6 ar
     2    1    2 ar
     3    1   20 1
     4    2    3 ar
     5    2   21 1
     6    3    4 ar
     7    3   18 1
     8    4    5 ar
     9    4   22 1
    10    5    6 ar
    11    5    7 1
    12    6   23 1
    13    7    8 1
    14    7   24 1
    15    8    9 2
    16    8   10 2
    17    8   11 1
    18   11   15 2
    19   11   12 1
    20   12   13 2
    21   12   25 1
    22   13   14 1
    23   13   26 1
    24   14   15 1
    25   15   16 1
    26   16   17 2
    27   16   27 1
    28   18   19 2
    29   18   28 1
@<TRIPOS>MOLECULE
ZINC03881293
   28    29     0     0     0
SMALL
USER_CHARGES

@<TRIPOS>ATOM
      1 C1          1.0806    2.3056   -0.0930 C.ar      1 <0>        -0.1695
      2 C2         -0.1508    1.6924   -0.0911 C.ar      1 <0>        -0.0478
      3 C3         -0.2364    0.2984   -0.0148 C.ar      1 <0>        -0.1249
      4 C4          0.9330   -0.4681    0.0592 C.ar      1 <0>         0.0117
      5 C5          2.1623    0.1532    0.0568 C.ar      1 <0>        -0.1408
      6 C6          2.2420    1.5407   -0.0192 C.ar      1 <0>         0.1587
      7 N1          3.4843    2.1646   -0.0215 N.pl3     1 <0>        -1.0386
      8 S1          3.8074    3.3621   -1.1187 S.o2      1 <0>         2.7170
      9 O1          2.7556    4.3109   -1.0059 O.2       1 <0>        -0.9744
     10 O2          5.1731    3.7144   -0.9450 O.2       1 <0>        -0.9311
     11 C7          3.6717    2.6484   -2.7240 C.2       1 <0>        -0.7052
     12 C8          2.7184    3.0692   -3.6165 C.2       1 <0>        -0.0899
     13 C9          2.6544    2.4869   -4.8431 C.2       1 <0>        -0.2553
     14 S2          3.9349    1.3193   -4.7946 S.3       1 <0>         0.1718
     15 C10         4.5277    1.6404   -3.1427 C.2       1 <0>        -0.0402
     16 C11         5.6288    1.0043   -2.4175 C.2       1 <0>         0.5105
     17 O3          5.9485    1.4124   -1.3172 O.co2     1 <0>        -0.5776
     18 Cl1         0.8337   -2.1986    0.1546 Cl        1 <0>        -0.0502
     19 C12        -1.5533   -0.3615   -0.0120 C.2       1 <0>         0.4906
     20 O4         -1.6258   -1.5728    0.0543 O.co2     1 <0>        -0.6105
     21 H1          1.1468    3.3819   -0.1522 H         1 <0>         0.1536
     22 H2         -1.0506    2.2865   -0.1528 H         1 <0>         0.1417
     23 H3          3.0651   -0.4367    0.1142 H         1 <0>         0.1345
     24 H4          4.1618    1.8985    0.6196 H         1 <0>         0.4292
     25 H5          2.0268    3.8539   -3.3475 H         1 <0>         0.1419
     26 H6          1.9708    2.6996   -5.6517 H         1 <0>         0.1832
     27 O5          6.2890   -0.0346   -2.9696 O.co2     1 <0>        -0.7258
     28 O6         -2.6778    0.3780   -0.0830 O.co2     1 <0>        -0.7627
@<TRIPOS>BOND
     1    1    6 ar
     2    1    2 ar
     3    1   21 1
     4    2    3 ar
     5    2   22 1
     6    3    4 ar
     7    3   19 1
     8    4    5 ar
     9    4   18 1
    10    5    6 ar
    11    5   23 1
    12    6    7 1
    13    7    8 1
    14    7   24 1
    15    8    9 2
    16    8   10 2
    17    8   11 1
    18   11   15 2
    19   11   12 1
    20   12   13 2
    21   12   25 1
    22   13   14 1
    23   13   26 1
    24   14   15 1
    25   15   16 1
    26   16   17 2
    27   16   27 1
    28   19   20 2
    29   19   28 1
@<TRIPOS>MOLECULE
ZINC03881294
   29    30     0     0     0
SMALL
USER_CHARGES

@<TRIPOS>ATOM
      1 C1          5.0937    4.2976   -1.5334 C.ar      1 <0>        -0.0568
      2 C2          4.9981    2.9821   -1.1368 C.ar      1 <0>        -0.1819
      3 C3          4.5406    2.0165   -2.0262 C.ar      1 <0>         0.1379
      4 C4          4.1815    2.3758   -3.3272 C.ar      1 <0>         0.0675
      5 C5          4.2699    3.6931   -3.7279 C.ar      1 <0>        -0.0889
      6 C6          4.7305    4.6644   -2.8323 C.ar      1 <0>        -0.1241
      7 C7          4.8319    6.0718   -3.2576 C.2       1 <0>         0.4957
      8 O1          4.5158    6.3895   -4.3871 O.co2     1 <0>        -0.6361
      9 O2          3.7399    1.4283   -4.1973 O.3       1 <0>        -0.4931
     10 N1          4.4456    0.6876   -1.6209 N.pl3     1 <0>        -1.0278
     11 S1          4.0060    0.3256   -0.0658 S.o2      1 <0>         2.7181
     12 O3          4.8992    1.0326    0.7837 O.2       1 <0>        -0.9751
     13 O4          3.8534   -1.0859   -0.0051 O.2       1 <0>        -0.9365
     14 C8          2.4069    1.0169    0.1978 C.2       1 <0>        -0.7041
     15 C9          2.2035    2.0255    1.1055 C.2       1 <0>        -0.0896
     16 C10         0.9507    2.5258    1.2723 C.2       1 <0>        -0.2538
     17 S2          0.0018    1.5975    0.1573 S.3       1 <0>         0.1711
     18 C11         1.2985    0.5655   -0.5034 C.2       1 <0>        -0.0428
     19 C12         1.2145   -0.4843   -1.5203 C.2       1 <0>         0.5111
     20 O5          2.2275   -1.0253   -1.9210 O.co2     1 <0>        -0.5760
     21 H1          5.4498    5.0458   -0.8407 H         1 <0>         0.1360
     22 H2          5.2795    2.7001   -0.1330 H         1 <0>         0.1571
     23 H3          3.9888    3.9731   -4.7324 H         1 <0>         0.1339
     24 H4          2.7823    1.2950   -4.1809 H         1 <0>         0.3871
     25 H5          4.6368   -0.0260   -2.2494 H         1 <0>         0.4320
     26 H6          3.0294    2.4176    1.6805 H         1 <0>         0.1423
     27 H7          0.6252    3.3112    1.9384 H         1 <0>         0.1835
     28 O6          5.2752    7.0065   -2.3939 O.co2     1 <0>        -0.7597
     29 O7          0.0136   -0.8516   -2.0130 O.co2     1 <0>        -0.7270
@<TRIPOS>BOND
     1    1    6 ar
     2    1    2 ar
     3    1   21 1
     4    2    3 ar
     5    2   22 1
     6    3    4 ar
     7    3   10 1
     8    4    5 ar
     9    4    9 1
    10    5    6 ar
    11    5   23 1
    12    6    7 1
    13    7    8 2
    14    7   28 1
    15    9   24 1
    16   10   11 1
    17   10   25 1
    18   11   12 2
    19   11   13 2
    20   11   14 1
    21   14   18 2
    22   14   15 1
    23   15   16 2
    24   15   26 1
    25   16   17 1
    26   16   27 1
    27   17   18 1
    28   18   19 1
    29   19   20 2
    30   19   29 1
@<TRIPOS>MOLECULE
ZINC03881295
   28    29     0     0     0
SMALL
USER_CHARGES

@<TRIPOS>ATOM
      1 C1          0.5673    1.7662   -0.1015 C.ar      1 <0>        -0.0940
      2 C2          0.7608    3.1320   -0.0291 C.ar      1 <0>        -0.1076
      3 C3         -0.3329    3.9881   -0.0366 C.ar      1 <0>         0.1691
      4 C4         -1.6183    3.4672   -0.1170 C.ar      1 <0>        -0.0700
      5 C5         -1.8044    2.1011   -0.1944 C.ar      1 <0>        -0.0267
      6 C6         -0.7134    1.2512   -0.1814 C.ar      1 <0>        -0.0752
      7 N1         -3.1732    1.5455   -0.2857 N.pl3     1 <0>         0.0292
      8 O1         -3.3383    0.3405   -0.3493 O.2       1 <0>        -0.1641
      9 O2         -4.1345    2.2934   -0.2972 O.3       1 <0>        -0.1535
     10 N2         -0.1408    5.3696    0.0360 N.pl3     1 <0>        -1.0398
     11 S1          1.0150    6.0953   -0.9020 S.o2      1 <0>         2.7170
     12 O3          0.9236    7.4911   -0.6518 O.2       1 <0>        -0.9181
     13 O4          2.2167    5.3631   -0.7048 O.2       1 <0>        -0.9727
     14 C7          0.5482    5.8536   -2.5838 C.2       1 <0>        -0.7151
     15 C8          1.3140    5.1016   -3.4385 C.2       1 <0>        -0.0959
     16 C9          0.9111    4.9449   -4.7272 C.2       1 <0>        -0.2551
     17 S2         -0.5658    5.8503   -4.7933 S.3       1 <0>         0.1906
     18 C10        -0.6126    6.4105   -3.1001 C.2       1 <0>        -0.0401
     19 C11        -1.6138    7.2428   -2.4308 C.2       1 <0>         0.5099
     20 O5         -1.5303    7.4515   -1.2354 O.co2     1 <0>        -0.5840
     21 H1          1.4172    1.1000   -0.0960 H         1 <0>         0.1531
     22 H2          1.7614    3.5336    0.0330 H         1 <0>         0.1748
     23 H3         -2.4709    4.1301   -0.1230 H         1 <0>         0.1627
     24 H4         -0.8619    0.1829   -0.2382 H         1 <0>         0.1535
     25 H5         -0.6843    5.9040    0.6360 H         1 <0>         0.4391
     26 H6          2.2266    4.6399   -3.0915 H         1 <0>         0.1419
     27 H7          1.3943    4.3909   -5.5184 H         1 <0>         0.1853
     28 O6         -2.6288    7.7782   -3.1397 O.co2     1 <0>        -0.7142
@<TRIPOS>BOND
     1    1    6 ar
     2    1    2 ar
     3    1   21 1
     4    2    3 ar
     5    2   22 1
     6    3    4 ar
     7    3   10 1
     8    4    5 ar
     9    4   23 1
    10    5    6 ar
    11    5    7 1
    12    6   24 1
    13    7    8 2
    14    7    9 1
    15   10   11 1
    16   10   25 1
    17   11   12 2
    18   11   13 2
    19   11   14 1
    20   14   18 2
    21   14   15 1
    22   15   16 2
    23   15   26 1
    24   16   17 1
    25   16   27 1
    26   17   18 1
    27   18   19 1
    28   19   20 2
    29   19   28 1
@<TRIPOS>MOLECULE
ZINC03881296
   28    29     0     0     0
SMALL
USER_CHARGES

@<TRIPOS>ATOM
      1 C1          4.0048    4.2820   -0.6979 C.ar      1 <0>        -0.0245
      2 C2          3.4118    4.6975   -1.8764 C.ar      1 <0>        -0.1515
      3 C3          3.0646    3.7719   -2.8430 C.ar      1 <0>        -0.0269
      4 C4          3.3089    2.4285   -2.6345 C.ar      1 <0>        -0.0842
      5 C5          3.9042    2.0078   -1.4523 C.ar      1 <0>         0.2689
      6 C6          4.2467    2.9400   -0.4807 C.ar      1 <0>        -0.1875
      7 N1          4.1528    0.6502   -1.2382 N.pl3     1 <0>        -1.0255
      8 S1          4.0646    0.0235    0.2921 S.o2      1 <0>         2.7098
      9 O1          4.3270   -1.3683    0.1767 O.2       1 <0>        -0.9117
     10 O2          2.8680    0.5278    0.8691 O.2       1 <0>        -0.9639
     11 C7          5.3981    0.7126    1.2149 C.2       1 <0>        -0.7220
     12 C8          5.1750    1.5115    2.3079 C.2       1 <0>        -0.1032
     13 C9          6.2375    2.0189    2.9871 C.2       1 <0>        -0.2506
     14 S2          7.5997    1.3931    2.1163 S.3       1 <0>         0.1942
     15 C10         6.7193    0.4707    0.8685 C.2       1 <0>        -0.0366
     16 C11         7.2522   -0.3317   -0.2338 C.2       1 <0>         0.5081
     17 O3          6.4961   -0.8180   -1.0530 O.co2     1 <0>        -0.5809
     18 N2          2.9364    1.4384   -3.6696 N.pl3     1 <0>         0.0416
     19 O4          2.4144    1.8080   -4.7062 O.2       1 <0>        -0.1621
     20 O5          3.1519    0.2539   -3.4849 O.3       1 <0>        -0.1676
     21 H1          4.2744    5.0076    0.0552 H         1 <0>         0.1476
     22 H2          3.2193    5.7472   -2.0418 H         1 <0>         0.1482
     23 H3          2.6014    4.0996   -3.7620 H         1 <0>         0.1563
     24 H4          4.7056    2.6158    0.4417 H         1 <0>         0.1555
     25 H5          4.3771    0.0744   -1.9859 H         1 <0>         0.4506
     26 H6          4.1670    1.7343    2.6250 H         1 <0>         0.1449
     27 H7          6.2339    2.6575    3.8580 H         1 <0>         0.1874
     28 O6          8.5820   -0.5318   -0.3409 O.co2     1 <0>        -0.7142
@<TRIPOS>BOND
     1    1    6 ar
     2    1    2 ar
     3    1   21 1
     4    2    3 ar
     5    2   22 1
     6    3    4 ar
     7    3   23 1
     8    4    5 ar
     9    4   18 1
    10    5    6 ar
    11    5    7 1
    12    6   24 1
    13    7    8 1
    14    7   25 1
    15    8    9 2
    16    8   10 2
    17    8   11 1
    18   11   15 2
    19   11   12 1
    20   12   13 2
    21   12   26 1
    22   13   14 1
    23   13   27 1
    24   14   15 1
    25   15   16 1
    26   16   17 2
    27   16   28 1
    28   18   19 2
    29   18   20 1
@<TRIPOS>MOLECULE
ZINC03881297
   26    27     0     0     0
SMALL
USER_CHARGES

@<TRIPOS>ATOM
      1 C1         -0.5786    4.1867    1.2910 C.ar      1 <0>        -0.1412
      2 C2         -0.9975    5.4912    1.4678 C.ar      1 <0>        -0.0753
      3 C3         -2.3148    5.7579    1.7953 C.ar      1 <0>        -0.0493
      4 C4         -3.2186    4.7184    1.9418 C.ar      1 <0>        -0.0114
      5 C5         -2.8057    3.4121    1.7608 C.ar      1 <0>        -0.1116
      6 C6         -1.4834    3.1425    1.4320 C.ar      1 <0>         0.1829
      7 N1         -1.0628    1.8226    1.2488 N.pl3     1 <0>        -1.0402
      8 S1         -0.1223    1.4266   -0.0554 S.o2      1 <0>         2.7168
      9 O1          0.0454    0.0159   -0.0219 O.2       1 <0>        -0.9225
     10 O2          0.9787    2.3250   -0.0498 O.2       1 <0>        -0.9727
     11 C7         -1.0599    1.7880   -1.5028 C.2       1 <0>        -0.7117
     12 C8         -0.6597    2.7524   -2.3929 C.2       1 <0>        -0.0942
     13 C9         -1.4178    2.9942   -3.4950 C.2       1 <0>        -0.2545
     14 S2         -2.7295    1.8732   -3.3271 S.3       1 <0>         0.1865
     15 C10        -2.2319    1.1061   -1.7951 C.2       1 <0>        -0.0402
     16 C11        -2.8900    0.0372   -1.0419 C.2       1 <0>         0.5107
     17 O3         -2.4592   -0.2942    0.0462 O.co2     1 <0>        -0.5834
     18 Cl1        -4.8710    5.0570    2.3523 Cl        1 <0>        -0.0483
     19 Cl2        -2.8362    7.3980    2.0226 Cl        1 <0>        -0.0567
     20 H1          0.4511    3.9793    1.0397 H         1 <0>         0.1700
     21 H2         -0.2948    6.3034    1.3546 H         1 <0>         0.1477
     22 H3         -3.5103    2.6016    1.8754 H         1 <0>         0.1529
     23 H4         -1.3218    1.1383    1.8857 H         1 <0>         0.4369
     24 H5          0.2469    3.3132   -2.2198 H         1 <0>         0.1417
     25 H6         -1.2451    3.7113   -4.2838 H         1 <0>         0.1847
     26 O4         -3.9743   -0.5802   -1.5545 O.co2     1 <0>        -0.7175
@<TRIPOS>BOND
     1    1    6 ar
     2    1    2 ar
     3    1   20 1
     4    2    3 ar
     5    2   21 1
     6    3    4 ar
     7    3   19 1
     8    4    5 ar
     9    4   18 1
    10    5    6 ar
    11    5   22 1
    12    6    7 1
    13    7    8 1
    14    7   23 1
    15    8    9 2
    16    8   10 2
    17    8   11 1
    18   11   15 2
    19   11   12 1
    20   12   13 2
    21   12   24 1
    22   13   14 1
    23   13   25 1
    24   14   15 1
    25   15   16 1
    26   16   17 2
    27   16   26 1
@<TRIPOS>MOLECULE
ZINC03881298
   30    31     0     0     0
SMALL
USER_CHARGES

@<TRIPOS>ATOM
      1 C1         -1.2312    6.6145   -0.6545 C.3       1 <0>         0.0357
      2 O1         -1.4509    5.4353   -1.4728 O.3       1 <0>        -0.3455
      3 C2         -0.9168    4.2770   -1.0337 C.2       1 <0>         0.5370
      4 O2         -0.2080    4.2702   -0.0453 O.2       1 <0>        -0.4635
      5 C3         -1.1903    3.0281   -1.7469 C.2       1 <0>        -0.1408
      6 C4         -0.8206    1.7329   -1.4153 C.2       1 <0>        -0.6355
      7 C5         -1.2175    0.7328   -2.2667 C.2       1 <0>        -0.1120
      8 C6         -1.9352    1.0514   -3.3762 C.2       1 <0>        -0.1938
      9 S1         -2.0836    2.7754   -3.2704 S.3       1 <0>         0.2791
     10 S2          0.1116    1.3864    0.0392 S.o2      1 <0>         2.7002
     11 O3          0.2486   -0.0263    0.1068 O.2       1 <0>        -0.9362
     12 O4          1.2318    2.2605    0.0214 O.2       1 <0>        -0.9140
     13 N1         -0.8177    1.8344    1.3346 N.pl3     1 <0>        -1.0472
     14 C7         -1.9945    1.1386    1.6242 C.ar      1 <0>         0.1814
     15 C8         -2.8944    0.8405    0.6086 C.ar      1 <0>        -0.1515
     16 C9         -4.0538    0.1474    0.8959 C.ar      1 <0>        -0.0630
     17 C10        -4.3259   -0.2401    2.1961 C.ar      1 <0>        -0.0454
     18 C11        -3.4341    0.0609    3.2118 C.ar      1 <0>        -0.0053
     19 C12        -2.2691    0.7491    2.9284 C.ar      1 <0>        -0.1114
     20 Cl1        -3.7788   -0.4268    4.8418 Cl        1 <0>        -0.0353
     21 Cl2        -5.7875   -1.1054    2.5546 Cl        1 <0>        -0.0404
     22 H1         -1.5763    6.4212    0.3612 H         1 <0>         0.0706
     23 H2         -0.1676    6.8522   -0.6379 H         1 <0>         0.0727
     24 H3         -1.7849    7.4551   -1.0726 H         1 <0>         0.1107
     25 H4         -0.9623   -0.2957   -2.0579 H         1 <0>         0.1650
     26 H5         -2.3194    0.3906   -4.1392 H         1 <0>         0.2065
     27 H6         -0.5452    2.5797    1.8924 H         1 <0>         0.4363
     28 H7         -2.6850    1.1463   -0.4058 H         1 <0>         0.1407
     29 H8         -4.7510   -0.0886    0.1056 H         1 <0>         0.1518
     30 H9         -1.5736    0.9838    3.7205 H         1 <0>         0.1531
@<TRIPOS>BOND
     1    1    2 1
     2    1   22 1
     3    1   23 1
     4    1   24 1
     5    2    3 1
     6    3    4 2
     7    3    5 1
     8    5    9 1
     9    5    6 2
    10    6    7 1
    11    6   10 1
    12    7    8 2
    13    7   25 1
    14    8    9 1
    15    8   26 1
    16   10   11 2
    17   10   12 2
    18   10   13 1
    19   13   14 1
    20   13   27 1
    21   14   19 ar
    22   14   15 ar
    23   15   16 ar
    24   15   28 1
    25   16   17 ar
    26   16   29 1
    27   17   18 ar
    28   17   21 1
    29   18   19 ar
    30   18   20 1
    31   19   30 1
@<TRIPOS>MOLECULE
ZINC03881299
   28    29     0     0     0
SMALL
USER_CHARGES

@<TRIPOS>ATOM
      1 C1          1.1752    1.7833    0.0004 C.ar      1 <0>        -0.1344
      2 C2         -0.0126    1.0758    0.0080 C.ar      1 <0>        -0.0053
      3 C3         -1.2188    1.7505    0.0173 C.ar      1 <0>        -0.0667
      4 C4         -1.2375    3.1329    0.0299 C.ar      1 <0>         0.0499
      5 C5         -0.0501    3.8402    0.0223 C.ar      1 <0>        -0.6751
      6 C6          1.1565    3.1653    0.0076 C.ar      1 <0>         0.0365
      7 S1         -0.0740    5.6020    0.0309 S.o2      1 <0>         2.6943
      8 O1         -1.3194    5.9886    0.5955 O.2       1 <0>        -0.9441
      9 O2          1.1710    6.0225    0.5719 O.2       1 <0>        -0.9463
     10 N1         -0.0957    6.0991   -1.5486 N.pl3     1 <0>        -1.0116
     11 C7         -1.1918    5.8073   -2.3548 C.2       1 <0>         0.1143
     12 C8         -2.4758    5.7845   -1.8505 C.2       1 <0>        -0.2190
     13 C9         -3.5083    5.4941   -2.6803 C.2       1 <0>        -0.2093
     14 S2         -2.7358    5.2376   -4.2104 S.3       1 <0>         0.1627
     15 C10        -1.0471    5.5290   -3.7146 C.2       1 <0>        -0.1748
     16 C11         0.1298    5.4867   -4.4946 C.2       1 <0>         0.5202
     17 O3          1.2095    5.7137   -3.9801 O.co2     1 <0>        -0.6192
     18 N2         -2.4905    0.9931    0.0193 N.pl3     1 <0>         0.0308
     19 O4         -2.4740   -0.2248    0.0126 O.2       1 <0>        -0.1598
     20 O5         -3.5535    1.5877    0.0276 O.3       1 <0>        -0.1495
     21 H1          2.1177    1.2561   -0.0115 H         1 <0>         0.1597
     22 H2          0.0021   -0.0041    0.0020 H         1 <0>         0.1616
     23 H3         -2.1800    3.6602    0.0411 H         1 <0>         0.1697
     24 H4          2.0843    3.7180    0.0014 H         1 <0>         0.1627
     25 H5          0.6555    6.5937   -1.9118 H         1 <0>         0.4403
     26 H6         -2.6565    5.9952   -0.8068 H         1 <0>         0.1665
     27 H7         -4.5606    5.4361   -2.4441 H         1 <0>         0.1873
     28 O6          0.0574    5.1945   -5.8106 O.co2     1 <0>        -0.7416
@<TRIPOS>BOND
     1    1    6 ar
     2    1    2 ar
     3    1   21 1
     4    2    3 ar
     5    2   22 1
     6    3    4 ar
     7    3   18 1
     8    4    5 ar
     9    4   23 1
    10    5    6 ar
    11    5    7 1
    12    6   24 1
    13    7    8 2
    14    7    9 2
    15    7   10 1
    16   10   11 1
    17   10   25 1
    18   11   15 2
    19   11   12 1
    20   12   13 2
    21   12   26 1
    22   13   14 1
    23   13   27 1
    24   14   15 1
    25   15   16 1
    26   16   17 2
    27   16   28 1
    28   18   19 2
    29   18   20 1
