@<TRIPOS>MOLECULE
ZINC00021789
   21    21     0     0     0
SMALL
USER_CHARGES

@<TRIPOS>ATOM
      1 C1         -4.8833    0.8605    0.0308 C.3       1 <0>         0.0362
      2 O1         -3.6751    1.6658    0.0290 O.3       1 <0>        -0.3534
      3 C2         -2.5002    1.0061    0.0198 C.2       1 <0>         0.5112
      4 O2         -2.4857   -0.2088    0.0136 O.2       1 <0>        -0.4976
      5 C3         -1.2319    1.7588    0.0174 C.ar      1 <0>        -0.1042
      6 C4         -0.0126    1.0758    0.0080 C.ar      1 <0>        -0.0736
      7 C5          1.1744    1.7837    0.0004 C.ar      1 <0>         0.0873
      8 C6          1.1563    3.1761    0.0071 C.ar      1 <0>         0.0940
      9 C7         -0.0571    3.8591    0.0219 C.ar      1 <0>         0.0853
     10 C8         -1.2471    3.1563    0.0304 C.ar      1 <0>        -0.0803
     11 O3         -0.0712    5.2190    0.0284 O.3       1 <0>        -0.4790
     12 O4          2.3248    3.8695   -0.0003 O.3       1 <0>        -0.4727
     13 O5          2.3613    1.1198   -0.0140 O.3       1 <0>        -0.4782
     14 H1         -4.9050    0.2360   -0.8623 H         1 <0>         0.0663
     15 H2         -4.8963    0.2269    0.9177 H         1 <0>         0.0665
     16 H3         -5.7556    1.5141    0.0384 H         1 <0>         0.1063
     17 H4          0.0021   -0.0041    0.0020 H         1 <0>         0.1536
     18 H5         -2.1879    3.6865    0.0422 H         1 <0>         0.1543
     19 H6         -0.0837    5.6164   -0.8531 H         1 <0>         0.3929
     20 H7          2.6549    4.0744   -0.8858 H         1 <0>         0.3918
     21 H8          2.6963    0.9322   -0.9015 H         1 <0>         0.3932
@<TRIPOS>BOND
     1    1    2 1
     2    1   14 1
     3    1   15 1
     4    1   16 1
     5    2    3 1
     6    3    4 2
     7    3    5 1
     8    5   10 ar
     9    5    6 ar
    10    6    7 ar
    11    6   17 1
    12    7    8 ar
    13    7   13 1
    14    8    9 ar
    15    8   12 1
    16    9   10 ar
    17    9   11 1
    18   10   18 1
    19   11   19 1
    20   12   20 1
    21   13   21 1
@<TRIPOS>MOLECULE
ZINC00330141
   15    15     0     0     0
SMALL
USER_CHARGES

@<TRIPOS>ATOM
      1 C1          3.7415    2.6962   -0.0192 C.ar      1 <0>        -0.0947
      2 C2          3.1045    2.4133   -1.2129 C.ar      1 <0>        -0.1397
      3 C3          1.8457    1.8317   -1.2083 C.ar      1 <0>         0.0964
      4 C4          1.2246    1.5332   -0.0014 C.ar      1 <0>         0.0527
      5 C5          1.8662    1.8241    1.1966 C.ar      1 <0>         0.0952
      6 C6          3.1271    2.4009    1.1833 C.ar      1 <0>        -0.1395
      7 O1          1.2604    1.5386    2.3803 O.3       1 <0>        -0.4861
      8 O2         -0.0110    0.9628    0.0073 O.3       1 <0>        -0.4818
      9 O3          1.2199    1.5534   -2.3833 O.3       1 <0>        -0.4915
     10 H1          4.7217    3.1496   -0.0261 H         1 <0>         0.1372
     11 H2          3.5880    2.6453   -2.1504 H         1 <0>         0.1376
     12 H3          3.6283    2.6231    2.1138 H         1 <0>         0.1375
     13 H4          1.4558    0.6541    2.7188 H         1 <0>         0.3905
     14 H5          0.0021   -0.0041    0.0020 H         1 <0>         0.3898
     15 H6          0.6682    2.2747   -2.7156 H         1 <0>         0.3963
@<TRIPOS>BOND
     1    1    6 ar
     2    1    2 ar
     3    1   10 1
     4    2    3 ar
     5    2   11 1
     6    3    4 ar
     7    3    9 1
     8    4    5 ar
     9    4    8 1
    10    5    6 ar
    11    5    7 1
    12    6   12 1
    13    7   13 1
    14    8   14 1
    15    9   15 1
@<TRIPOS>MOLECULE
ZINC00392003
   15    15     0     0     0
SMALL
USER_CHARGES

@<TRIPOS>ATOM
      1 C1          0.0353   -3.0427   -0.7067 C.2       1 <0>        -0.1093
      2 C2          0.0132   -1.9572   -1.5575 C.2       1 <0>        -0.0788
      3 C3         -0.0071   -0.6008   -1.2445 C.2       1 <0>        -0.0948
      4 C4          0.0021   -0.0041    0.0020 C.2       1 <0>         0.0584
      5 C5          0.0227   -0.6300    1.2743 C.2       1 <0>         0.3624
      6 O1          0.0220    0.1211    2.2402 O.2       1 <0>        -0.4896
      7 C6          0.0432   -2.0056    1.5652 C.2       1 <0>        -0.1820
      8 C7          0.0487   -3.0652    0.6858 C.2       1 <0>        -0.0442
      9 O2         -0.0163    1.3507    0.0095 O.3       1 <0>        -0.4849
     10 H1          0.0437   -4.0098   -1.1873 H         1 <0>         0.1299
     11 H2          0.0059   -2.1919   -2.6116 H         1 <0>         0.1319
     12 H3         -0.0276    0.0743   -2.0872 H         1 <0>         0.1353
     13 H4          0.0569   -2.2644    2.6137 H         1 <0>         0.1393
     14 H5          0.0661   -4.0463    1.1369 H         1 <0>         0.1301
     15 H6          0.8616    1.7560    0.0033 H         1 <0>         0.3965
@<TRIPOS>BOND
     1    1    8 1
     2    1    2 2
     3    1   10 1
     4    2    3 1
     5    2   11 1
     6    3    4 2
     7    3   12 1
     8    4    5 1
     9    4    9 1
    10    5    6 2
    11    5    7 1
    12    7    8 2
    13    7   13 1
    14    8   14 1
    15    9   15 1
@<TRIPOS>MOLECULE
ZINC03801154
   25    25     0     0     0
SMALL
USER_CHARGES

@<TRIPOS>ATOM
      1 C1          1.1755    1.7835    0.0004 C.ar      1 <0>        -0.1327
      2 C2         -0.0126    1.0758    0.0080 C.ar      1 <0>        -0.1230
      3 C3         -1.2215    1.7521    0.0174 C.ar      1 <0>         0.0864
      4 C4         -1.2368    3.1439    0.0304 C.ar      1 <0>         0.0944
      5 C5         -0.0431    3.8467    0.0228 C.ar      1 <0>        -0.1178
      6 C6          1.1603    3.1655    0.0080 C.ar      1 <0>        -0.1012
      7 C7          2.4579    3.9317   -0.0002 C.3       1 <0>        -0.0835
      8 C8          2.8833    4.1988   -1.4455 C.3       1 <0>        -0.0109
      9 H1          2.0759    4.7056   -1.9741 H         1 <0>         0.1389
     10 C9          4.1135    5.0690   -1.4543 C.2       1 <0>         0.4544
     11 O1          5.2030    4.5734   -1.6199 O.co2     1 <0>        -0.6146
     12 O2         -2.4210    3.8123    0.0449 O.3       1 <0>        -0.4897
     13 O3         -2.3908    1.0577    0.0191 O.3       1 <0>        -0.4924
     14 H2          2.1173    1.2551   -0.0111 H         1 <0>         0.1306
     15 H3          0.0021   -0.0041    0.0020 H         1 <0>         0.1390
     16 H4         -0.0522    4.9266    0.0280 H         1 <0>         0.1428
     17 H5          2.3232    4.8800    0.5200 H         1 <0>         0.1228
     18 H6          3.2281    3.3473    0.5031 H         1 <0>         0.0963
     19 H7          3.9263    2.4346   -1.6404 H         1 <0>         0.4338
     20 H8          2.3543    2.3483   -2.1763 H         1 <0>         0.4181
     21 H9         -2.7718    4.0101   -0.8343 H         1 <0>         0.3979
     22 H10        -2.7248    0.8520    0.9030 H         1 <0>         0.3985
     23 O4          3.9991    6.3948   -1.2783 O.co2     1 <0>        -0.6991
     24 N1          3.1878    2.9325   -2.1347 N.4       1 <0>        -0.6267
     25 H11         3.5025    3.1357   -3.0907 H         1 <0>         0.4376
@<TRIPOS>BOND
     1    1    6 ar
     2    1    2 ar
     3    1   14 1
     4    2    3 ar
     5    2   15 1
     6    3    4 ar
     7    3   13 1
     8    4    5 ar
     9    4   12 1
    10    5    6 ar
    11    5   16 1
    12    6    7 1
    13    7    8 1
    14    7   17 1
    15    7   18 1
    16    8    9 1
    17    8   10 1
    18    8   24 1
    19   10   11 2
    20   10   23 1
    21   12   21 1
    22   13   22 1
    23   19   24 1
    24   20   24 1
    25   24   25 1
@<TRIPOS>MOLECULE
ZINC03814480
   28    28     0     0     0
SMALL
USER_CHARGES

@<TRIPOS>ATOM
      1 C1         -7.4263    1.1159    0.0433 C.3       1 <0>        -0.1509
      2 C2         -6.1106    1.8969    0.0413 C.3       1 <0>        -0.1370
      3 C3         -4.9358    0.9168    0.0304 C.3       1 <0>         0.1162
      4 N1         -3.6760    1.6646    0.0285 N.am      1 <0>        -0.7260
      5 C4         -2.5008    1.0049    0.0194 C.2       1 <0>         0.5604
      6 O1         -2.4861   -0.2108    0.0127 O.2       1 <0>        -0.5286
      7 C5         -1.2314    1.7584    0.0174 C.ar      1 <0>        -0.1122
      8 C6         -0.0126    1.0758    0.0080 C.ar      1 <0>        -0.0781
      9 C7          1.1747    1.7838    0.0004 C.ar      1 <0>         0.0922
     10 C8          1.1565    3.1759    0.0077 C.ar      1 <0>         0.0828
     11 C9         -0.0569    3.8586    0.0230 C.ar      1 <0>         0.0914
     12 C10        -1.2469    3.1553    0.0305 C.ar      1 <0>        -0.1069
     13 O2         -0.0714    5.2185    0.0300 O.3       1 <0>        -0.4808
     14 O3          2.3250    3.8696    0.0002 O.3       1 <0>        -0.4733
     15 O4          2.3615    1.1199   -0.0145 O.3       1 <0>        -0.4798
     16 H1         -8.2633    1.8141    0.0511 H         1 <0>         0.0618
     17 H2         -7.4807    0.4934   -0.8498 H         1 <0>         0.0588
     18 H3         -7.4722    0.4837    0.9301 H         1 <0>         0.0591
     19 H4         -6.0562    2.5193    0.9344 H         1 <0>         0.0700
     20 H5         -6.0647    2.5290   -0.8455 H         1 <0>         0.0695
     21 H6         -4.9901    0.2943   -0.8627 H         1 <0>         0.0716
     22 H7         -4.9817    0.2847    0.9172 H         1 <0>         0.0716
     23 H8         -3.6877    2.6345    0.0338 H         1 <0>         0.4008
     24 H9          0.0021   -0.0041    0.0020 H         1 <0>         0.1523
     25 H10        -2.1879    3.6853    0.0420 H         1 <0>         0.1405
     26 H11        -0.0841    5.6163   -0.8513 H         1 <0>         0.3920
     27 H12         2.6549    4.0749   -0.8853 H         1 <0>         0.3898
     28 H13         2.6963    0.9326   -0.9022 H         1 <0>         0.3929
@<TRIPOS>BOND
     1    1    2 1
     2    1   16 1
     3    1   17 1
     4    1   18 1
     5    2    3 1
     6    2   19 1
     7    2   20 1
     8    3    4 1
     9    3   21 1
    10    3   22 1
    11    4    5 am
    12    4   23 1
    13    5    6 2
    14    5    7 1
    15    7   12 ar
    16    7    8 ar
    17    8    9 ar
    18    8   24 1
    19    9   10 ar
    20    9   15 1
    21   10   11 ar
    22   10   14 1
    23   11   12 ar
    24   11   13 1
    25   12   25 1
    26   13   26 1
    27   14   27 1
    28   15   28 1
@<TRIPOS>MOLECULE
ZINC03814482
   45    46     0     0     0
SMALL
USER_CHARGES

@<TRIPOS>ATOM
      1 C1         -0.0126    1.0758    0.0080 C.ar      1 <0>        -0.0776
      2 C2         -1.2314    1.7584    0.0174 C.ar      1 <0>        -0.1128
      3 C3         -1.2469    3.1553    0.0304 C.ar      1 <0>        -0.1068
      4 C4         -0.0569    3.8586    0.0224 C.ar      1 <0>         0.0913
      5 C5          1.1565    3.1759    0.0071 C.ar      1 <0>         0.0835
      6 C6          1.1747    1.7838    0.0004 C.ar      1 <0>         0.0926
      7 O1          2.3616    1.1199   -0.0140 O.3       1 <0>        -0.4797
      8 O2          2.3250    3.8696   -0.0008 O.3       1 <0>        -0.4734
      9 O3         -0.0713    5.2185    0.0289 O.3       1 <0>        -0.4809
     10 C7         -2.5008    1.0049    0.0198 C.2       1 <0>         0.5623
     11 O4         -2.4861   -0.2108    0.0136 O.2       1 <0>        -0.5251
     12 N1         -3.6760    1.6646    0.0290 N.am      1 <0>        -0.7261
     13 C8         -4.9358    0.9168    0.0314 C.3       1 <0>         0.1217
     14 C9         -6.1106    1.8968    0.0421 C.3       1 <0>        -0.1461
     15 C10        -7.4263    1.1158    0.0446 C.3       1 <0>         0.1218
     16 N2         -8.5512    2.0543    0.0549 N.am      1 <0>        -0.7262
     17 C11        -9.8164    1.5896    0.0588 C.2       1 <0>         0.5623
     18 O5        -10.0240    0.3917    0.0537 O.2       1 <0>        -0.5251
     19 C12       -10.9498    2.5352    0.0692 C.ar      1 <0>        -0.1127
     20 C13       -10.7125    3.9118    0.0808 C.ar      1 <0>        -0.1070
     21 C14       -11.7757    4.7953    0.0852 C.ar      1 <0>         0.0914
     22 C15       -13.0822    4.3140    0.0897 C.ar      1 <0>         0.0835
     23 C16       -13.3214    2.9424    0.0834 C.ar      1 <0>         0.0927
     24 C17       -12.2617    2.0549    0.0732 C.ar      1 <0>        -0.0777
     25 O6        -14.5987    2.4755    0.0877 O.3       1 <0>        -0.4797
     26 O7        -14.1257    5.1845    0.0997 O.3       1 <0>        -0.4734
     27 O8        -11.5454    6.1356    0.0909 O.3       1 <0>        -0.4808
     28 H1          0.0021   -0.0041    0.0020 H         1 <0>         0.1526
     29 H2         -2.1879    3.6853    0.0422 H         1 <0>         0.1402
     30 H3          2.6965    0.9323   -0.9015 H         1 <0>         0.3933
     31 H4          2.6548    4.0746   -0.8864 H         1 <0>         0.3902
     32 H5         -0.0843    5.6159   -0.8526 H         1 <0>         0.3922
     33 H6         -3.6878    2.6345    0.0340 H         1 <0>         0.4012
     34 H7         -4.9903    0.2940   -0.8616 H         1 <0>         0.0773
     35 H8         -4.9816    0.2849    0.9184 H         1 <0>         0.0772
     36 H9         -6.0561    2.5196    0.9350 H         1 <0>         0.0800
     37 H10        -6.0648    2.5287   -0.8449 H         1 <0>         0.0800
     38 H11        -7.4808    0.4931   -0.8483 H         1 <0>         0.0772
     39 H12        -7.4721    0.4840    0.9316 H         1 <0>         0.0773
     40 H13        -8.3855    3.0100    0.0590 H         1 <0>         0.4012
     41 H14        -9.6993    4.2856    0.0819 H         1 <0>         0.1401
     42 H15       -12.4477    0.9910    0.0686 H         1 <0>         0.1526
     43 H16       -14.9635    2.3358    0.9724 H         1 <0>         0.3933
     44 H17       -14.4233    5.4316    0.9860 H         1 <0>         0.3902
     45 H18       -11.4741    6.5187    0.9760 H         1 <0>         0.3921
@<TRIPOS>BOND
     1    1    6 ar
     2    1    2 ar
     3    1   28 1
     4    2    3 ar
     5    2   10 1
     6    3    4 ar
     7    3   29 1
     8    4    5 ar
     9    4    9 1
    10    5    6 ar
    11    5    8 1
    12    6    7 1
    13    7   30 1
    14    8   31 1
    15    9   32 1
    16   10   11 2
    17   10   12 am
    18   12   13 1
    19   12   33 1
    20   13   14 1
    21   13   34 1
    22   13   35 1
    23   14   15 1
    24   14   36 1
    25   14   37 1
    26   15   16 1
    27   15   38 1
    28   15   39 1
    29   16   17 am
    30   16   40 1
    31   17   18 2
    32   17   19 1
    33   19   24 ar
    34   19   20 ar
    35   20   21 ar
    36   20   41 1
    37   21   22 ar
    38   21   27 1
    39   22   23 ar
    40   22   26 1
    41   23   24 ar
    42   23   25 1
    43   24   42 1
    44   25   43 1
    45   26   44 1
    46   27   45 1
@<TRIPOS>MOLECULE
ZINC03814483
   22    22     0     0     0
SMALL
USER_CHARGES

@<TRIPOS>ATOM
      1 C1         -0.6753    1.7404   -3.7469 C.3       1 <0>        -0.1521
      2 C2          0.0310    1.2054   -2.4872 C.3       1 <0>        -0.1364
      3 H1          0.1014    0.2094   -2.5422 H         1 <0>         0.1269
      4 C3          1.3848    1.8752   -2.4902 C.2       1 <0>         0.3078
      5 C4          1.4878    2.6809   -3.5625 C.3       1 <0>        -0.0407
      6 C5          0.3382    2.6771   -4.3669 C.2       1 <0>         0.3917
      7 O1          0.1831    3.3168   -5.3880 O.2       1 <0>        -0.3984
      8 O2          2.5958    3.4243   -3.8390 O.3       1 <0>        -0.4892
      9 O3          2.3428    1.6931   -1.5580 O.2       1 <0>        -0.5012
     10 C6         -0.7527    1.5927   -1.2315 C.3       1 <0>         0.1204
     11 H2         -0.8452    2.6775   -1.1811 H         1 <0>         0.1115
     12 C7         -0.0127    1.0858    0.0080 C.3       1 <0>         0.0282
     13 O4         -0.6816    1.5467    1.1837 O.3       1 <0>        -0.5652
     14 O5         -2.0545    1.0054   -1.2824 O.3       1 <0>        -0.5394
     15 H3         -0.9025    1.0166   -4.3984 H         1 <0>         0.1190
     16 H4         -1.5809    2.2830   -3.4755 H         1 <0>         0.1323
     17 H5          3.2861    3.2693   -3.1323 H         1 <0>         0.4090
     18 H6          1.4067    3.3964   -2.8686 H         1 <0>         0.1772
     19 H7          0.0021   -0.0041    0.0020 H         1 <0>         0.0529
     20 H8          1.0099    1.4631    0.0003 H         1 <0>         0.0812
     21 H9         -0.2663    1.2624    2.0094 H         1 <0>         0.3845
     22 H10        -2.0487    0.0395   -1.3286 H         1 <0>         0.3802
@<TRIPOS>BOND
     1    1    6 1
     2    1    2 1
     3    1   15 1
     4    1   16 1
     5    2   10 1
     6    2    4 1
     7    2    3 1
     8    4    5 1
     9    4    9 2
    10    5    6 1
    11    5    8 1
    12    5   18 1
    13    6    7 2
    14    8   17 1
    15   10   11 1
    16   10   12 1
    17   10   14 1
    18   12   13 1
    19   12   19 1
    20   12   20 1
    21   13   21 1
    22   14   22 1
@<TRIPOS>MOLECULE
ZINC03814484
   15    15     0     0     0
SMALL
USER_CHARGES

@<TRIPOS>ATOM
      1 C1         -1.2194    1.7509    0.0173 C.ar      1 <0>        -0.0123
      2 C2         -0.0126    1.0758    0.0080 C.ar      1 <0>        -0.2487
      3 C3          1.1775    1.7847    0.0004 C.ar      1 <0>         0.2871
      4 C4          1.1551    3.1764    0.0081 C.ar      1 <0>        -0.0365
      5 C5         -0.0572    3.8465    0.0234 C.ar      1 <0>        -0.0385
      6 C6         -1.2416    3.1328    0.0308 C.ar      1 <0>        -0.1717
      7 N1         -2.5360    3.8503    0.0466 N.pl3     1 <0>         0.0693
      8 O1         -2.5572    5.0681    0.0530 O.2       1 <0>        -0.2255
      9 O2         -3.5800    3.2230    0.0532 O.3       1 <0>        -0.2239
     10 O3          2.3208    3.8768    0.0012 O.3       1 <0>        -0.4815
     11 H1         -2.1466    1.1971    0.0187 H         1 <0>         0.1275
     12 H2          0.0021   -0.0041    0.0020 H         1 <0>         0.1248
     13 H3         -0.0774    4.9263    0.0290 H         1 <0>         0.1301
     14 H4          2.6498    4.0842   -0.8841 H         1 <0>         0.3662
     15 O4          2.3652    1.1224   -0.0150 O.3       1 <0>        -0.6665
@<TRIPOS>BOND
     1    1    6 ar
     2    1    2 ar
     3    1   11 1
     4    2    3 ar
     5    2   12 1
     6    3    4 ar
     7    3   15 1
     8    4    5 ar
     9    4   10 1
    10    5    6 ar
    11    5   13 1
    12    6    7 1
    13    7    8 2
    14    7    9 1
    15   10   14 1
@<TRIPOS>MOLECULE
ZINC03814485
   17    17     0     0     0
SMALL
USER_CHARGES

@<TRIPOS>ATOM
      1 C1         -0.0126    1.0758    0.0080 C.ar      1 <0>        -0.1024
      2 C2         -1.2319    1.7588    0.0174 C.ar      1 <0>        -0.0893
      3 C3         -1.2471    3.1563    0.0304 C.ar      1 <0>        -0.0932
      4 C4         -0.0571    3.8591    0.0219 C.ar      1 <0>         0.0739
      5 C5          1.1563    3.1761    0.0071 C.ar      1 <0>         0.0471
      6 C6          1.1744    1.7837    0.0004 C.ar      1 <0>         0.0744
      7 O1          2.3613    1.1198   -0.0140 O.3       1 <0>        -0.4869
      8 O2          2.3248    3.8695   -0.0003 O.3       1 <0>        -0.4793
      9 O3         -0.0712    5.2190    0.0284 O.3       1 <0>        -0.4868
     10 C7         -2.5002    1.0061    0.0198 C.2       1 <0>         0.4905
     11 O4         -2.4857   -0.2088    0.0136 O.co2     1 <0>        -0.6248
     12 H1          0.0021   -0.0041    0.0020 H         1 <0>         0.1418
     13 H2         -2.1879    3.6865    0.0422 H         1 <0>         0.1456
     14 H3          2.6963    0.9322   -0.9015 H         1 <0>         0.3806
     15 H4          2.6549    4.0744   -0.8858 H         1 <0>         0.3751
     16 H5         -0.0837    5.6164   -0.8531 H         1 <0>         0.3809
     17 O5         -3.6751    1.6658    0.0290 O.co2     1 <0>        -0.7473
@<TRIPOS>BOND
     1    1    6 ar
     2    1    2 ar
     3    1   12 1
     4    2    3 ar
     5    2   10 1
     6    3    4 ar
     7    3   13 1
     8    4    5 ar
     9    4    9 1
    10    5    6 ar
    11    5    8 1
    12    6    7 1
    13    7   14 1
    14    8   15 1
    15    9   16 1
    16   10   11 2
    17   10   17 1
@<TRIPOS>MOLECULE
ZINC03814486
   51    52     0     0     0
SMALL
USER_CHARGES

@<TRIPOS>ATOM
      1 C1         -0.0126    1.0758    0.0080 C.ar      1 <0>        -0.0781
      2 C2         -1.2314    1.7584    0.0174 C.ar      1 <0>        -0.1125
      3 C3         -1.2469    3.1553    0.0304 C.ar      1 <0>        -0.1069
      4 C4         -0.0569    3.8586    0.0224 C.ar      1 <0>         0.0912
      5 C5          1.1565    3.1759    0.0071 C.ar      1 <0>         0.0830
      6 C6          1.1747    1.7838    0.0004 C.ar      1 <0>         0.0924
      7 O1          2.3616    1.1199   -0.0140 O.3       1 <0>        -0.4798
      8 O2          2.3250    3.8696   -0.0008 O.3       1 <0>        -0.4734
      9 O3         -0.0713    5.2185    0.0289 O.3       1 <0>        -0.4809
     10 C7         -2.5008    1.0049    0.0198 C.2       1 <0>         0.5609
     11 O4         -2.4861   -0.2108    0.0136 O.2       1 <0>        -0.5274
     12 N1         -3.6760    1.6646    0.0290 N.am      1 <0>        -0.7261
     13 C8         -4.9358    0.9168    0.0314 C.3       1 <0>         0.1167
     14 C9         -6.1106    1.8968    0.0421 C.3       1 <0>        -0.1315
     15 C10        -7.4263    1.1158    0.0446 C.3       1 <0>        -0.1143
     16 C11        -8.6011    2.0959    0.0554 C.3       1 <0>        -0.1315
     17 C12        -9.9168    1.3149    0.0579 C.3       1 <0>         0.1167
     18 N2        -11.0417    2.2533    0.0682 N.am      1 <0>        -0.7261
     19 C13       -12.3069    1.7887    0.0720 C.2       1 <0>         0.5609
     20 O5        -12.5146    0.5907    0.0670 O.2       1 <0>        -0.5274
     21 C14       -13.4403    2.7343    0.0824 C.ar      1 <0>        -0.1123
     22 C15       -13.2030    4.1109    0.0941 C.ar      1 <0>        -0.1071
     23 C16       -14.2662    4.9943    0.0985 C.ar      1 <0>         0.0914
     24 C17       -15.5727    4.5131    0.1029 C.ar      1 <0>         0.0830
     25 C18       -15.8119    3.1415    0.0966 C.ar      1 <0>         0.0925
     26 C19       -14.7522    2.2539    0.0864 C.ar      1 <0>        -0.0781
     27 O6        -17.0892    2.6745    0.1010 O.3       1 <0>        -0.4798
     28 O7        -16.6162    5.3835    0.1129 O.3       1 <0>        -0.4734
     29 O8        -14.0359    6.3347    0.1042 O.3       1 <0>        -0.4808
     30 H1          0.0021   -0.0041    0.0020 H         1 <0>         0.1523
     31 H2         -2.1879    3.6853    0.0422 H         1 <0>         0.1403
     32 H3          2.6965    0.9323   -0.9015 H         1 <0>         0.3931
     33 H4          2.6548    4.0746   -0.8864 H         1 <0>         0.3900
     34 H5         -0.0843    5.6159   -0.8526 H         1 <0>         0.3920
     35 H6         -3.6878    2.6345    0.0340 H         1 <0>         0.4007
     36 H7         -4.9903    0.2940   -0.8616 H         1 <0>         0.0725
     37 H8         -4.9816    0.2849    0.9184 H         1 <0>         0.0725
     38 H9         -6.0561    2.5196    0.9350 H         1 <0>         0.0719
     39 H10        -6.0648    2.5287   -0.8449 H         1 <0>         0.0717
     40 H11        -7.4808    0.4931   -0.8483 H         1 <0>         0.0724
     41 H12        -7.4721    0.4840    0.9316 H         1 <0>         0.0724
     42 H13        -8.5466    2.7187    0.9483 H         1 <0>         0.0717
     43 H14        -8.5553    2.7277   -0.8316 H         1 <0>         0.0719
     44 H15        -9.9713    0.6921   -0.8350 H         1 <0>         0.0725
     45 H16        -9.9626    0.6831    0.9449 H         1 <0>         0.0725
     46 H17       -10.8760    3.2090    0.0722 H         1 <0>         0.4007
     47 H18       -12.1898    4.4847    0.0951 H         1 <0>         0.1402
     48 H19       -14.9382    1.1901    0.0819 H         1 <0>         0.1523
     49 H20       -17.4540    2.5349    0.9856 H         1 <0>         0.3930
     50 H21       -16.9138    5.6307    0.9992 H         1 <0>         0.3900
     51 H22       -13.9646    6.7178    0.9892 H         1 <0>         0.3919
@<TRIPOS>BOND
     1    1    6 ar
     2    1    2 ar
     3    1   30 1
     4    2    3 ar
     5    2   10 1
     6    3    4 ar
     7    3   31 1
     8    4    5 ar
     9    4    9 1
    10    5    6 ar
    11    5    8 1
    12    6    7 1
    13    7   32 1
    14    8   33 1
    15    9   34 1
    16   10   11 2
    17   10   12 am
    18   12   13 1
    19   12   35 1
    20   13   14 1
    21   13   36 1
    22   13   37 1
    23   14   15 1
    24   14   38 1
    25   14   39 1
    26   15   16 1
    27   15   40 1
    28   15   41 1
    29   16   17 1
    30   16   42 1
    31   16   43 1
    32   17   18 1
    33   17   44 1
    34   17   45 1
    35   18   19 am
    36   18   46 1
    37   19   20 2
    38   19   21 1
    39   21   26 ar
    40   21   22 ar
    41   22   23 ar
    42   22   47 1
    43   23   24 ar
    44   23   29 1
    45   24   25 ar
    46   24   28 1
    47   25   26 ar
    48   25   27 1
    49   26   48 1
    50   27   49 1
    51   28   50 1
    52   29   51 1
@<TRIPOS>MOLECULE
ZINC03814487
   54    55     0     0     0
SMALL
USER_CHARGES

@<TRIPOS>ATOM
      1 C1         -0.0126    1.0758    0.0080 C.ar      1 <0>        -0.0781
      2 C2         -1.2314    1.7584    0.0174 C.ar      1 <0>        -0.1127
      3 C3         -1.2469    3.1553    0.0304 C.ar      1 <0>        -0.1068
      4 C4         -0.0569    3.8586    0.0224 C.ar      1 <0>         0.0914
      5 C5          1.1565    3.1759    0.0071 C.ar      1 <0>         0.0831
      6 C6          1.1747    1.7838    0.0004 C.ar      1 <0>         0.0922
      7 O1          2.3616    1.1199   -0.0140 O.3       1 <0>        -0.4798
      8 O2          2.3250    3.8696   -0.0008 O.3       1 <0>        -0.4733
      9 O3         -0.0713    5.2185    0.0289 O.3       1 <0>        -0.4807
     10 C7         -2.5008    1.0049    0.0198 C.2       1 <0>         0.5610
     11 O4         -2.4861   -0.2108    0.0136 O.2       1 <0>        -0.5284
     12 N1         -3.6760    1.6646    0.0290 N.am      1 <0>        -0.7260
     13 C8         -4.9358    0.9168    0.0314 C.3       1 <0>         0.1173
     14 C9         -6.1106    1.8968    0.0421 C.3       1 <0>        -0.1333
     15 C10        -7.4263    1.1158    0.0446 C.3       1 <0>        -0.1161
     16 C11        -8.6011    2.0959    0.0554 C.3       1 <0>        -0.1161
     17 C12        -9.9168    1.3149    0.0579 C.3       1 <0>        -0.1333
     18 C13       -11.0916    2.2950    0.0686 C.3       1 <0>         0.1173
     19 N2        -12.3514    1.5471    0.0710 N.am      1 <0>        -0.7259
     20 C14       -13.5266    2.2068    0.0802 C.2       1 <0>         0.5610
     21 O5        -13.5413    3.4226    0.0864 O.2       1 <0>        -0.5285
     22 C15       -14.7960    1.4533    0.0826 C.ar      1 <0>        -0.1125
     23 C16       -14.7805    0.0564    0.0695 C.ar      1 <0>        -0.1071
     24 C17       -15.9705   -0.6469    0.0771 C.ar      1 <0>         0.0916
     25 C18       -17.1839    0.0358    0.0861 C.ar      1 <0>         0.0830
     26 C19       -17.2021    1.4280    0.0938 C.ar      1 <0>         0.0923
     27 C20       -16.0148    2.1359    0.0920 C.ar      1 <0>        -0.0782
     28 O6        -18.3890    2.0919    0.1025 O.3       1 <0>        -0.4797
     29 O7        -18.3525   -0.6579    0.0879 O.3       1 <0>        -0.4734
     30 O8        -15.9561   -2.0068    0.0701 O.3       1 <0>        -0.4806
     31 H1          0.0021   -0.0041    0.0020 H         1 <0>         0.1522
     32 H2         -2.1879    3.6853    0.0422 H         1 <0>         0.1405
     33 H3          2.6965    0.9323   -0.9015 H         1 <0>         0.3929
     34 H4          2.6548    4.0746   -0.8864 H         1 <0>         0.3899
     35 H5         -0.0843    5.6159   -0.8526 H         1 <0>         0.3920
     36 H6         -3.6878    2.6345    0.0340 H         1 <0>         0.4010
     37 H7         -4.9903    0.2940   -0.8616 H         1 <0>         0.0713
     38 H8         -4.9816    0.2849    0.9184 H         1 <0>         0.0716
     39 H9         -6.0561    2.5196    0.9350 H         1 <0>         0.0718
     40 H10        -6.0648    2.5287   -0.8449 H         1 <0>         0.0711
     41 H11        -7.4808    0.4931   -0.8483 H         1 <0>         0.0678
     42 H12        -7.4721    0.4840    0.9316 H         1 <0>         0.0683
     43 H13        -8.5466    2.7187    0.9483 H         1 <0>         0.0683
     44 H14        -8.5553    2.7277   -0.8316 H         1 <0>         0.0678
     45 H15        -9.9713    0.6921   -0.8350 H         1 <0>         0.0711
     46 H16        -9.9626    0.6831    0.9449 H         1 <0>         0.0718
     47 H17       -11.0371    2.9177    0.9615 H         1 <0>         0.0715
     48 H18       -11.0458    2.9268   -0.8184 H         1 <0>         0.0714
     49 H19       -12.3397    0.5772    0.0660 H         1 <0>         0.4010
     50 H20       -13.8395   -0.4735    0.0581 H         1 <0>         0.1405
     51 H21       -16.0295    3.2158    0.0976 H         1 <0>         0.1522
     52 H22       -18.7363    2.2884   -0.7783 H         1 <0>         0.3929
     53 H23       -18.6949   -0.8538   -0.7950 H         1 <0>         0.3899
     54 H24       -15.9559   -2.3956   -0.8153 H         1 <0>         0.3919
@<TRIPOS>BOND
     1    1    6 ar
     2    1    2 ar
     3    1   31 1
     4    2    3 ar
     5    2   10 1
     6    3    4 ar
     7    3   32 1
     8    4    5 ar
     9    4    9 1
    10    5    6 ar
    11    5    8 1
    12    6    7 1
    13    7   33 1
    14    8   34 1
    15    9   35 1
    16   10   11 2
    17   10   12 am
    18   12   13 1
    19   12   36 1
    20   13   14 1
    21   13   37 1
    22   13   38 1
    23   14   15 1
    24   14   39 1
    25   14   40 1
    26   15   16 1
    27   15   41 1
    28   15   42 1
    29   16   17 1
    30   16   43 1
    31   16   44 1
    32   17   18 1
    33   17   45 1
    34   17   46 1
    35   18   19 1
    36   18   47 1
    37   18   48 1
    38   19   20 am
    39   19   49 1
    40   20   21 2
    41   20   22 1
    42   22   27 ar
    43   22   23 ar
    44   23   24 ar
    45   23   50 1
    46   24   25 ar
    47   24   30 1
    48   25   26 ar
    49   25   29 1
    50   26   27 ar
    51   26   28 1
    52   27   51 1
    53   28   52 1
    54   29   53 1
    55   30   54 1
