@<TRIPOS>MOLECULE
ZINC00000640
   43    45     0     0     0
SMALL
USER_CHARGES

@<TRIPOS>ATOM
      1 C1          3.5065    8.2770   -0.3471 C.3       1 <0>        -0.1506
      2 C2          3.5106    7.2923   -1.4879 C.ar      1 <0>         0.0340
      3 C3          3.5305    5.9421   -1.2542 C.ar      1 <0>        -0.1724
      4 C4          3.5392    5.0549   -2.3234 C.ar      1 <0>         0.2009
      5 N1          3.5174    5.4726   -3.5696 N.ar      1 <0>        -0.4888
      6 C5          3.4976    6.7731   -3.8623 C.ar      1 <0>         0.4050
      7 C6          3.4936    7.7296   -2.8172 C.ar      1 <0>        -0.2731
      8 C7          3.4719    9.1049   -3.1575 C.ar      1 <0>         0.5206
      9 N2          3.4563    9.4333   -4.4415 N.ar      1 <0>        -0.6171
     10 C8          3.4607    8.5036   -5.3924 C.ar      1 <0>         0.6192
     11 N3          3.4806    7.2104   -5.1296 N.ar      1 <0>        -0.5903
     12 N4          3.4432    8.9092   -6.7132 N.pl3     1 <0>        -0.8137
     13 N5          3.4667   10.0751   -2.1796 N.pl3     1 <0>        -0.8468
     14 C9          3.5493    5.4207    0.1596 C.3       1 <0>        -0.0189
     15 C10         3.7139    3.9228    0.1405 C.ar      1 <0>        -0.0822
     16 C11         2.6074    3.1047    0.2626 C.ar      1 <0>        -0.1082
     17 C12         2.7589    1.7263    0.2455 C.ar      1 <0>         0.0958
     18 C13         4.0221    1.1690    0.1115 C.ar      1 <0>        -0.1673
     19 C14         5.1277    1.9869   -0.0164 C.ar      1 <0>        -0.1656
     20 C15         4.9761    3.3657    0.0008 C.ar      1 <0>         0.0984
     21 O1          6.0652    4.1710   -0.1199 O.3       1 <0>        -0.3104
     22 C16         7.3342    3.5292   -0.2604 C.3       1 <0>         0.0264
     23 O2          1.6698    0.9210    0.3657 O.3       1 <0>        -0.3164
     24 C17         1.8996   -0.4891    0.3399 C.3       1 <0>         0.0270
     25 H1          4.5237    8.6214   -0.1608 H         1 <0>         0.0854
     26 H2          2.8761    9.1282   -0.6042 H         1 <0>         0.0984
     27 H3          3.1167    7.7937    0.5487 H         1 <0>         0.0825
     28 H4          3.5599    3.9935   -2.1253 H         1 <0>         0.1602
     29 H5          3.4458    8.2486   -7.4235 H         1 <0>         0.4176
     30 H6          3.4285    9.8546   -6.9301 H         1 <0>         0.4150
     31 H7          4.0336    9.9793   -1.3984 H         1 <0>         0.4180
     32 H8          2.8962   10.8541   -2.2722 H         1 <0>         0.4095
     33 H9          2.6122    5.6769    0.6538 H         1 <0>         0.0894
     34 H10         4.3809    5.8707    0.7018 H         1 <0>         0.0937
     35 H11         1.6244    3.5386    0.3718 H         1 <0>         0.1400
     36 H12         4.1407    0.0956    0.1029 H         1 <0>         0.1317
     37 H13         6.1107    1.5530   -0.1252 H         1 <0>         0.1325
     38 H14         7.3295    2.9068   -1.1552 H         1 <0>         0.0552
     39 H15         8.1156    4.2842   -0.3470 H         1 <0>         0.0995
     40 H16         7.5254    2.9070    0.6139 H         1 <0>         0.0549
     41 H17         0.9500   -1.0140    0.4447 H         1 <0>         0.1009
     42 H18         2.3642   -0.7643   -0.6070 H         1 <0>         0.0555
     43 H19         2.5598   -0.7648    1.1622 H         1 <0>         0.0547
@<TRIPOS>BOND
     1    1    2 1
     2    1   25 1
     3    1   26 1
     4    1   27 1
     5    2    7 ar
     6    2    3 ar
     7    3    4 ar
     8    3   14 1
     9    4    5 ar
    10    4   28 1
    11    5    6 ar
    12    6   11 ar
    13    6    7 ar
    14    7    8 ar
    15    8    9 ar
    16    8   13 1
    17    9   10 ar
    18   10   11 ar
    19   10   12 1
    20   12   29 1
    21   12   30 1
    22   13   31 1
    23   13   32 1
    24   14   15 1
    25   14   33 1
    26   14   34 1
    27   15   20 ar
    28   15   16 ar
    29   16   17 ar
    30   16   35 1
    31   17   18 ar
    32   17   23 1
    33   18   19 ar
    34   18   36 1
    35   19   20 ar
    36   19   37 1
    37   20   21 1
    38   21   22 1
    39   22   38 1
    40   22   39 1
    41   22   40 1
    42   23   24 1
    43   24   41 1
    44   24   42 1
    45   24   43 1
@<TRIPOS>MOLECULE
ZINC00000640
   44    46     0     0     0
SMALL
USER_CHARGES

@<TRIPOS>ATOM
      1 C1          3.5065    8.2770   -0.3471 C.3       1 <0>        -0.1639
      2 C2          3.5106    7.2923   -1.4879 C.ar      1 <0>         0.0541
      3 C3          3.5305    5.9421   -1.2542 C.ar      1 <0>        -0.1302
      4 C4          3.5392    5.0549   -2.3234 C.ar      1 <0>         0.2243
      5 N1          3.5174    5.4726   -3.5696 N.ar      1 <0>        -0.4980
      6 C5          3.4976    6.7731   -3.8623 C.ar      1 <0>         0.3907
      7 C6          3.4936    7.7296   -2.8172 C.ar      1 <0>        -0.2267
      8 C7          3.4719    9.1049   -3.1575 C.ar      1 <0>         0.5800
      9 N2          3.4563    9.4333   -4.4415 N.ar      1 <0>        -0.5730
     10 C8          3.4607    8.5036   -5.3924 C.ar      1 <0>         0.6920
     11 N3          3.4432    8.9092   -6.7132 N.pl3     1 <0>        -0.7812
     12 N4          3.4667   10.0751   -2.1796 N.pl3     1 <0>        -0.8037
     13 C9          3.5493    5.4207    0.1596 C.3       1 <0>        -0.0285
     14 C10         3.7139    3.9228    0.1405 C.ar      1 <0>        -0.1017
     15 C11         2.6074    3.1047    0.2626 C.ar      1 <0>        -0.1086
     16 C12         2.7589    1.7263    0.2455 C.ar      1 <0>         0.1007
     17 C13         4.0221    1.1690    0.1115 C.ar      1 <0>        -0.1597
     18 C14         5.1277    1.9869   -0.0164 C.ar      1 <0>        -0.1619
     19 C15         4.9761    3.3657    0.0008 C.ar      1 <0>         0.0960
     20 O1          6.0652    4.1710   -0.1199 O.3       1 <0>        -0.3162
     21 C16         7.3342    3.5292   -0.2604 C.3       1 <0>         0.0247
     22 O2          1.6698    0.9210    0.3657 O.3       1 <0>        -0.3147
     23 C17         1.8996   -0.4891    0.3399 C.3       1 <0>         0.0249
     24 H1          4.5237    8.6214   -0.1608 H         1 <0>         0.1055
     25 H2          2.8761    9.1282   -0.6042 H         1 <0>         0.1044
     26 H3          3.1167    7.7937    0.5487 H         1 <0>         0.1039
     27 H4          3.5599    3.9935   -2.1253 H         1 <0>         0.1849
     28 H5          3.4458    8.2486   -7.4235 H         1 <0>         0.4324
     29 H6          3.4285    9.8546   -6.9301 H         1 <0>         0.4450
     30 H7          4.0336    9.9793   -1.3984 H         1 <0>         0.4363
     31 H8          2.8962   10.8541   -2.2722 H         1 <0>         0.4301
     32 H9          2.6122    5.6769    0.6538 H         1 <0>         0.1050
     33 H10         4.3809    5.8707    0.7018 H         1 <0>         0.1083
     34 H11         1.6244    3.5386    0.3718 H         1 <0>         0.1421
     35 H12         4.1407    0.0956    0.1029 H         1 <0>         0.1364
     36 H13         6.1107    1.5530   -0.1252 H         1 <0>         0.1362
     37 H14         7.3295    2.9068   -1.1552 H         1 <0>         0.0562
     38 H15         8.1156    4.2842   -0.3470 H         1 <0>         0.1022
     39 H16         7.5254    2.9070    0.6139 H         1 <0>         0.0598
     40 H17         0.9500   -1.0140    0.4447 H         1 <0>         0.1052
     41 H18         2.3642   -0.7643   -0.6070 H         1 <0>         0.0570
     42 H19         2.5598   -0.7648    1.1622 H         1 <0>         0.0581
     43 N5          3.4808    7.1631   -5.1841 N.ar      1 <0>        -0.5882
     44 H20         3.4825    6.5360   -5.9630 H         1 <0>         0.4597
@<TRIPOS>BOND
     1    1    2 1
     2    1   24 1
     3    1   25 1
     4    1   26 1
     5    2    7 ar
     6    2    3 ar
     7    3    4 ar
     8    3   13 1
     9    4    5 ar
    10    4   27 1
    11    5    6 ar
    12    6    7 ar
    13    6   43 ar
    14    7    8 ar
    15    8    9 ar
    16    8   12 1
    17    9   10 ar
    18   10   11 1
    19   10   43 ar
    20   11   28 1
    21   11   29 1
    22   12   30 1
    23   12   31 1
    24   13   14 1
    25   13   32 1
    26   13   33 1
    27   14   19 ar
    28   14   15 ar
    29   15   16 ar
    30   15   34 1
    31   16   17 ar
    32   16   22 1
    33   17   18 ar
    34   17   35 1
    35   18   19 ar
    36   18   36 1
    37   19   20 1
    38   20   21 1
    39   21   37 1
    40   21   38 1
    41   21   39 1
    42   22   23 1
    43   23   40 1
    44   23   41 1
    45   23   42 1
    46   43   44 1
@<TRIPOS>MOLECULE
ZINC00006585
   45    47     0     0     0
SMALL
USER_CHARGES

@<TRIPOS>ATOM
      1 C1         -1.0805   -2.5424    1.8193 C.3       1 <0>         0.1016
      2 N1         -1.5760   -1.2385    1.3714 N.pl3     1 <0>        -0.6159
      3 C2         -1.2926   -0.7753    0.0107 C.3       1 <0>         0.1724
      4 C3          0.0021   -0.0041    0.0020 C.ar      1 <0>        -0.1042
      5 C4         -0.0167    1.3773    0.0096 C.ar      1 <0>        -0.1018
      6 C5          1.1747    2.0870    0.0021 C.ar      1 <0>         0.0960
      7 C6          2.3853    1.4098   -0.0136 C.ar      1 <0>        -0.1650
      8 C7          2.4041    0.0289   -0.0207 C.ar      1 <0>        -0.1687
      9 C8          1.2123   -0.6810   -0.0132 C.ar      1 <0>         0.1078
     10 O1          1.2307   -2.0407   -0.0211 O.3       1 <0>        -0.3127
     11 C9          2.5126   -2.6721   -0.0367 C.3       1 <0>         0.0270
     12 O2          1.1563    3.4467    0.0091 O.3       1 <0>        -0.3148
     13 C10         2.4206    4.1127    0.0006 C.3       1 <0>         0.0274
     14 C11        -2.3199   -0.4355    2.2432 C.ar      1 <0>         0.1284
     15 C12        -2.5906   -0.8692    3.5312 C.ar      1 <0>        -0.1042
     16 C13        -3.3387   -0.0273    4.3620 C.ar      1 <0>        -0.2341
     17 C14        -3.6656   -0.3830    5.6941 C.ar      1 <0>         0.5118
     18 N2         -4.3771    0.4711    6.4154 N.ar      1 <0>        -0.6287
     19 C15        -4.7792    1.6340    5.9104 C.ar      1 <0>         0.6164
     20 N3         -4.5024    2.0133    4.6777 N.ar      1 <0>        -0.5917
     21 C16        -3.7869    1.2210    3.8645 C.ar      1 <0>         0.3674
     22 N4         -3.4952    1.5843    2.6158 N.ar      1 <0>        -0.4487
     23 C17        -2.7894    0.8102    1.8231 C.ar      1 <0>         0.1382
     24 N5         -5.5193    2.4827    6.7128 N.pl3     1 <0>        -0.8180
     25 N6         -3.2534   -1.5859    6.2261 N.pl3     1 <0>        -0.8187
     26 H1         -0.0914   -2.4229    2.2615 H         1 <0>         0.0479
     27 H2         -1.7632   -2.9549    2.5621 H         1 <0>         0.0607
     28 H3         -1.0182   -3.2196    0.9674 H         1 <0>         0.0731
     29 H4         -2.1024   -0.1297   -0.3293 H         1 <0>         0.0858
     30 H5         -1.2085   -1.6340   -0.6553 H         1 <0>         0.0952
     31 H6         -0.9592    1.9045    0.0169 H         1 <0>         0.1385
     32 H7          3.3132    1.9625   -0.0198 H         1 <0>         0.1309
     33 H8          3.3466   -0.4984   -0.0325 H         1 <0>         0.1310
     34 H9          3.0572   -2.3665   -0.9300 H         1 <0>         0.0544
     35 H10         3.0739   -2.3767    0.8498 H         1 <0>         0.0533
     36 H11         2.3845   -3.7545   -0.0416 H         1 <0>         0.1005
     37 H12         2.2631    5.1912    0.0075 H         1 <0>         0.1017
     38 H13         2.9898    3.8229    0.8838 H         1 <0>         0.0539
     39 H14         2.9732    3.8319   -0.8960 H         1 <0>         0.0548
     40 H15        -2.2351   -1.8265    3.8830 H         1 <0>         0.1338
     41 H16        -2.5706    1.1440    0.8195 H         1 <0>         0.1626
     42 H17        -5.8231    3.3360    6.3658 H         1 <0>         0.4163
     43 H18        -5.7349    2.2246    7.6226 H         1 <0>         0.4130
     44 H19        -2.7325   -2.2015    5.6870 H         1 <0>         0.4126
     45 H20        -3.4842   -1.8167    7.1395 H         1 <0>         0.4127
@<TRIPOS>BOND
     1    1    2 1
     2    1   26 1
     3    1   27 1
     4    1   28 1
     5    2    3 1
     6    2   14 1
     7    3    4 1
     8    3   29 1
     9    3   30 1
    10    4    9 ar
    11    4    5 ar
    12    5    6 ar
    13    5   31 1
    14    6    7 ar
    15    6   12 1
    16    7    8 ar
    17    7   32 1
    18    8    9 ar
    19    8   33 1
    20    9   10 1
    21   10   11 1
    22   11   34 1
    23   11   35 1
    24   11   36 1
    25   12   13 1
    26   13   37 1
    27   13   38 1
    28   13   39 1
    29   14   23 ar
    30   14   15 ar
    31   15   16 ar
    32   15   40 1
    33   16   21 ar
    34   16   17 ar
    35   17   18 ar
    36   17   25 1
    37   18   19 ar
    38   19   20 ar
    39   19   24 1
    40   20   21 ar
    41   21   22 ar
    42   22   23 ar
    43   23   41 1
    44   24   42 1
    45   24   43 1
    46   25   44 1
    47   25   45 1
@<TRIPOS>MOLECULE
ZINC00006585
   46    48     0     0     0
SMALL
USER_CHARGES

@<TRIPOS>ATOM
      1 C1         -1.0805   -2.5424    1.8193 C.3       1 <0>         0.0870
      2 N1         -1.5760   -1.2385    1.3714 N.pl3     1 <0>        -0.5947
      3 C2         -1.2926   -0.7753    0.0107 C.3       1 <0>         0.1641
      4 C3          0.0021   -0.0041    0.0020 C.ar      1 <0>        -0.1166
      5 C4         -0.0167    1.3773    0.0096 C.ar      1 <0>        -0.1063
      6 C5          1.1747    2.0870    0.0021 C.ar      1 <0>         0.0976
      7 C6          2.3853    1.4098   -0.0136 C.ar      1 <0>        -0.1571
      8 C7          2.4041    0.0289   -0.0207 C.ar      1 <0>        -0.1641
      9 C8          1.2123   -0.6810   -0.0132 C.ar      1 <0>         0.1117
     10 O1          1.2307   -2.0407   -0.0211 O.3       1 <0>        -0.3154
     11 C9          2.5126   -2.6721   -0.0367 C.3       1 <0>         0.0251
     12 O2          1.1563    3.4467    0.0091 O.3       1 <0>        -0.3162
     13 C10         2.4206    4.1127    0.0006 C.3       1 <0>         0.0255
     14 C11        -2.3199   -0.4355    2.2432 C.ar      1 <0>         0.1741
     15 C12        -2.5906   -0.8692    3.5312 C.ar      1 <0>        -0.0988
     16 C13        -3.3387   -0.0273    4.3620 C.ar      1 <0>        -0.1706
     17 C14        -3.6656   -0.3830    5.6941 C.ar      1 <0>         0.5653
     18 N2         -4.3771    0.4711    6.4154 N.ar      1 <0>        -0.5851
     19 C15        -4.7792    1.6340    5.9104 C.ar      1 <0>         0.6931
     20 C16        -3.7869    1.2210    3.8645 C.ar      1 <0>         0.3261
     21 N3         -3.4952    1.5843    2.6158 N.ar      1 <0>        -0.4519
     22 C17        -2.7894    0.8102    1.8231 C.ar      1 <0>         0.1472
     23 N4         -5.5193    2.4827    6.7128 N.pl3     1 <0>        -0.7877
     24 N5         -3.2534   -1.5859    6.2261 N.pl3     1 <0>        -0.7647
     25 H1         -0.0914   -2.4229    2.2615 H         1 <0>         0.0630
     26 H2         -1.7632   -2.9549    2.5621 H         1 <0>         0.0667
     27 H3         -1.0182   -3.2196    0.9674 H         1 <0>         0.0880
     28 H4         -2.1024   -0.1297   -0.3293 H         1 <0>         0.0912
     29 H5         -1.2085   -1.6340   -0.6553 H         1 <0>         0.1080
     30 H6         -0.9592    1.9045    0.0169 H         1 <0>         0.1356
     31 H7          3.3132    1.9625   -0.0198 H         1 <0>         0.1351
     32 H8          3.3466   -0.4984   -0.0325 H         1 <0>         0.1355
     33 H9          3.0572   -2.3665   -0.9300 H         1 <0>         0.0583
     34 H10         3.0739   -2.3767    0.8498 H         1 <0>         0.0556
     35 H11         2.3845   -3.7545   -0.0416 H         1 <0>         0.1043
     36 H12         2.2631    5.1912    0.0075 H         1 <0>         0.1047
     37 H13         2.9898    3.8229    0.8838 H         1 <0>         0.0557
     38 H14         2.9732    3.8319   -0.8960 H         1 <0>         0.0583
     39 H15        -2.2351   -1.8265    3.8830 H         1 <0>         0.1596
     40 H16        -2.5706    1.1440    0.8195 H         1 <0>         0.1841
     41 H17        -5.8231    3.3360    6.3658 H         1 <0>         0.4310
     42 H18        -5.7349    2.2246    7.6226 H         1 <0>         0.4428
     43 H19        -2.7325   -2.2015    5.6870 H         1 <0>         0.4306
     44 H20        -3.4842   -1.8167    7.1395 H         1 <0>         0.4331
     45 N6         -4.5261    2.0774    4.6540 N.ar      1 <0>        -0.5861
     46 H21        -4.8697    2.9693    4.3598 H         1 <0>         0.4574
@<TRIPOS>BOND
     1    1    2 1
     2    1   25 1
     3    1   26 1
     4    1   27 1
     5    2    3 1
     6    2   14 1
     7    3    4 1
     8    3   28 1
     9    3   29 1
    10    4    9 ar
    11    4    5 ar
    12    5    6 ar
    13    5   30 1
    14    6    7 ar
    15    6   12 1
    16    7    8 ar
    17    7   31 1
    18    8    9 ar
    19    8   32 1
    20    9   10 1
    21   10   11 1
    22   11   33 1
    23   11   34 1
    24   11   35 1
    25   12   13 1
    26   13   36 1
    27   13   37 1
    28   13   38 1
    29   14   22 ar
    30   14   15 ar
    31   15   16 ar
    32   15   39 1
    33   16   20 ar
    34   16   17 ar
    35   17   18 ar
    36   17   24 1
    37   18   19 ar
    38   19   23 1
    39   19   45 ar
    40   20   21 ar
    41   20   45 ar
    42   21   22 ar
    43   22   40 1
    44   23   41 1
    45   23   42 1
    46   24   43 1
    47   24   44 1
    48   45   46 1
@<TRIPOS>MOLECULE
ZINC00006585
   46    48     0     0     0
SMALL
USER_CHARGES

@<TRIPOS>ATOM
      1 C1         -1.0805   -2.5424    1.8193 C.3       1 <0>         0.0870
      2 N1         -1.5760   -1.2385    1.3714 N.pl3     1 <0>        -0.5947
      3 C2         -1.2926   -0.7753    0.0107 C.3       1 <0>         0.1641
      4 C3          0.0021   -0.0041    0.0020 C.ar      1 <0>        -0.1166
      5 C4         -0.0167    1.3773    0.0096 C.ar      1 <0>        -0.1063
      6 C5          1.1747    2.0870    0.0021 C.ar      1 <0>         0.0976
      7 C6          2.3853    1.4098   -0.0136 C.ar      1 <0>        -0.1571
      8 C7          2.4041    0.0289   -0.0207 C.ar      1 <0>        -0.1641
      9 C8          1.2123   -0.6810   -0.0132 C.ar      1 <0>         0.1117
     10 O1          1.2307   -2.0407   -0.0211 O.3       1 <0>        -0.3154
     11 C9          2.5126   -2.6721   -0.0367 C.3       1 <0>         0.0251
     12 O2          1.1563    3.4467    0.0091 O.3       1 <0>        -0.3162
     13 C10         2.4206    4.1127    0.0006 C.3       1 <0>         0.0255
     14 C11        -2.3199   -0.4355    2.2432 C.ar      1 <0>         0.1741
     15 C12        -2.5906   -0.8692    3.5312 C.ar      1 <0>        -0.0988
     16 C13        -3.3387   -0.0273    4.3620 C.ar      1 <0>        -0.1706
     17 C14        -3.6656   -0.3830    5.6941 C.ar      1 <0>         0.5653
     18 N2         -4.3771    0.4711    6.4154 N.ar      1 <0>        -0.5851
     19 C15        -4.7792    1.6340    5.9104 C.ar      1 <0>         0.6931
     20 C16        -3.7869    1.2210    3.8645 C.ar      1 <0>         0.3261
     21 N3         -3.4952    1.5843    2.6158 N.ar      1 <0>        -0.4519
     22 C17        -2.7894    0.8102    1.8231 C.ar      1 <0>         0.1472
     23 N4         -5.5193    2.4827    6.7128 N.pl3     1 <0>        -0.7877
     24 N5         -3.2534   -1.5859    6.2261 N.pl3     1 <0>        -0.7647
     25 H1         -0.0914   -2.4229    2.2615 H         1 <0>         0.0630
     26 H2         -1.7632   -2.9549    2.5621 H         1 <0>         0.0667
     27 H3         -1.0182   -3.2196    0.9674 H         1 <0>         0.0880
     28 H4         -2.1024   -0.1297   -0.3293 H         1 <0>         0.0912
     29 H5         -1.2085   -1.6340   -0.6553 H         1 <0>         0.1080
     30 H6         -0.9592    1.9045    0.0169 H         1 <0>         0.1356
     31 H7          3.3132    1.9625   -0.0198 H         1 <0>         0.1351
     32 H8          3.3466   -0.4984   -0.0325 H         1 <0>         0.1355
     33 H9          3.0572   -2.3665   -0.9300 H         1 <0>         0.0583
     34 H10         3.0739   -2.3767    0.8498 H         1 <0>         0.0556
     35 H11         2.3845   -3.7545   -0.0416 H         1 <0>         0.1043
     36 H12         2.2631    5.1912    0.0075 H         1 <0>         0.1047
     37 H13         2.9898    3.8229    0.8838 H         1 <0>         0.0557
     38 H14         2.9732    3.8319   -0.8960 H         1 <0>         0.0583
     39 H15        -2.2351   -1.8265    3.8830 H         1 <0>         0.1596
     40 H16        -2.5706    1.1440    0.8195 H         1 <0>         0.1841
     41 H17        -5.8231    3.3360    6.3658 H         1 <0>         0.4310
     42 H18        -5.7349    2.2246    7.6226 H         1 <0>         0.4428
     43 H19        -2.7325   -2.2015    5.6870 H         1 <0>         0.4306
     44 H20        -3.4842   -1.8167    7.1395 H         1 <0>         0.4331
     45 N6         -4.5261    2.0774    4.6540 N.ar      1 <0>        -0.5861
     46 H21        -4.8697    2.9693    4.3598 H         1 <0>         0.4574
@<TRIPOS>BOND
     1    1    2 1
     2    1   25 1
     3    1   26 1
     4    1   27 1
     5    2    3 1
     6    2   14 1
     7    3    4 1
     8    3   28 1
     9    3   29 1
    10    4    9 ar
    11    4    5 ar
    12    5    6 ar
    13    5   30 1
    14    6    7 ar
    15    6   12 1
    16    7    8 ar
    17    7   31 1
    18    8    9 ar
    19    8   32 1
    20    9   10 1
    21   10   11 1
    22   11   33 1
    23   11   34 1
    24   11   35 1
    25   12   13 1
    26   13   36 1
    27   13   37 1
    28   13   38 1
    29   14   22 ar
    30   14   15 ar
    31   15   16 ar
    32   15   39 1
    33   16   20 ar
    34   16   17 ar
    35   17   18 ar
    36   17   24 1
    37   18   19 ar
    38   19   23 1
    39   19   45 ar
    40   20   21 ar
    41   20   45 ar
    42   21   22 ar
    43   22   40 1
    44   23   41 1
    45   23   42 1
    46   24   43 1
    47   24   44 1
    48   45   46 1
@<TRIPOS>MOLECULE
ZINC00006616
   42    43     0     0     0
SMALL
USER_CHARGES

@<TRIPOS>ATOM
      1 C1         -4.1189   -4.1410    1.6757 C.3       1 <0>        -0.1469
      2 C2         -3.8898   -2.6308    1.5889 C.3       1 <0>        -0.0917
      3 C3         -2.5139   -2.2897    2.1646 C.3       1 <0>        -0.1457
      4 C4         -3.9544   -2.1884    0.1257 C.3       1 <0>        -0.0621
      5 C5         -3.8725   -0.6855    0.0512 C.ar      1 <0>         0.0568
      6 C6         -5.0444    0.0676   -0.0134 C.ar      1 <0>         0.1758
      7 N1         -4.9983    1.3813   -0.0790 N.ar      1 <0>        -0.4366
      8 C7         -3.8147    1.9995   -0.0838 C.ar      1 <0>         0.3730
      9 C8         -2.6268    1.2293   -0.0185 C.ar      1 <0>        -0.0969
     10 N2         -2.6956   -0.0965    0.0473 N.ar      1 <0>        -0.3756
     11 C9         -1.3484    1.9425   -0.0261 C.ar      1 <0>         0.5427
     12 N3         -1.3819    3.2665   -0.0880 N.ar      1 <0>        -0.6294
     13 C10        -2.5346    3.9254   -0.1524 C.ar      1 <0>         0.6383
     14 N4         -3.7120    3.3327   -0.1487 N.ar      1 <0>        -0.6023
     15 N5         -2.4967    5.3050   -0.2205 N.pl3     1 <0>        -0.8083
     16 N6         -0.1522    1.2619    0.0347 N.pl3     1 <0>        -0.7935
     17 C11        -6.3796   -0.6311   -0.0074 C.3       1 <0>        -0.0765
     18 C12        -6.9209   -0.6844    1.4227 C.3       1 <0>        -0.0887
     19 C13        -7.2253    0.7350    1.9059 C.3       1 <0>        -0.1480
     20 C14        -8.2029   -1.5190    1.4519 C.3       1 <0>        -0.1464
     21 H1         -3.3479   -4.6589    1.1052 H         1 <0>         0.0570
     22 H2         -4.0729   -4.4562    2.7182 H         1 <0>         0.0573
     23 H3         -5.0992   -4.3840    1.2657 H         1 <0>         0.0572
     24 H4         -4.6609   -2.1129    2.1595 H         1 <0>         0.0725
     25 H5         -1.7429   -2.8076    1.5940 H         1 <0>         0.0572
     26 H6         -2.3507   -1.2138    2.1027 H         1 <0>         0.0545
     27 H7         -2.4678   -2.6049    3.2070 H         1 <0>         0.0515
     28 H8         -4.8939   -2.5233   -0.3140 H         1 <0>         0.0895
     29 H9         -3.1203   -2.6254   -0.4232 H         1 <0>         0.0855
     30 H10        -3.3230    5.8113   -0.2640 H         1 <0>         0.4193
     31 H11        -1.6439    5.7672   -0.2249 H         1 <0>         0.4166
     32 H12        -0.1473    0.2932    0.0835 H         1 <0>         0.4252
     33 H13         0.6853    1.7512    0.0245 H         1 <0>         0.4155
     34 H14        -7.0786   -0.0845   -0.6404 H         1 <0>         0.0924
     35 H15        -6.2607   -1.6453   -0.3889 H         1 <0>         0.0948
     36 H16        -6.1765   -1.1390    2.0763 H         1 <0>         0.0731
     37 H17        -7.9698    1.1896    1.2523 H         1 <0>         0.0594
     38 H18        -7.6110    0.6971    2.9247 H         1 <0>         0.0519
     39 H19        -6.3120    1.3296    1.8851 H         1 <0>         0.0577
     40 H20        -7.9861   -2.5302    1.1076 H         1 <0>         0.0573
     41 H21        -8.5886   -1.5569    2.4707 H         1 <0>         0.0586
     42 H22        -8.9474   -1.0644    0.7983 H         1 <0>         0.0583
@<TRIPOS>BOND
     1    1    2 1
     2    1   21 1
     3    1   22 1
     4    1   23 1
     5    2    3 1
     6    2    4 1
     7    2   24 1
     8    3   25 1
     9    3   26 1
    10    3   27 1
    11    4    5 1
    12    4   28 1
    13    4   29 1
    14    5   10 ar
    15    5    6 ar
    16    6    7 ar
    17    6   17 1
    18    7    8 ar
    19    8   14 ar
    20    8    9 ar
    21    9   10 ar
    22    9   11 ar
    23   11   12 ar
    24   11   16 1
    25   12   13 ar
    26   13   14 ar
    27   13   15 1
    28   15   30 1
    29   15   31 1
    30   16   32 1
    31   16   33 1
    32   17   18 1
    33   17   34 1
    34   17   35 1
    35   18   19 1
    36   18   20 1
    37   18   36 1
    38   19   37 1
    39   19   38 1
    40   19   39 1
    41   20   40 1
    42   20   41 1
    43   20   42 1
@<TRIPOS>MOLECULE
ZINC00006616
   43    44     0     0     0
SMALL
USER_CHARGES

@<TRIPOS>ATOM
      1 C1         -4.1264   -4.1424    1.6524 C.3       1 <0>        -0.1503
      2 C2         -3.8972   -2.6321    1.5672 C.3       1 <0>        -0.0923
      3 C3         -2.5246   -2.2908    2.1506 C.3       1 <0>        -0.1484
      4 C4         -3.9539   -2.1895    0.1038 C.3       1 <0>        -0.0755
      5 C5         -3.8720   -0.6865    0.0300 C.ar      1 <0>         0.1087
      6 C6         -5.0437    0.0663   -0.0409 C.ar      1 <0>         0.2142
      7 N1         -4.9976    1.3800   -0.1060 N.ar      1 <0>        -0.4180
      8 C7         -3.8141    1.9985   -0.1041 C.ar      1 <0>         0.3513
      9 C8         -2.6264    1.2286   -0.0324 C.ar      1 <0>        -0.0657
     10 N2         -2.6950   -0.0975    0.0266 N.ar      1 <0>        -0.3733
     11 C9         -1.3484    1.9425   -0.0262 C.ar      1 <0>         0.5885
     12 N3         -1.3817    3.2662   -0.0945 N.ar      1 <0>        -0.5763
     13 C10        -2.5342    3.9248   -0.1652 C.ar      1 <0>         0.6151
     14 N4         -2.4961    5.3040   -0.2398 N.pl3     1 <0>        -0.7900
     15 N5         -0.1522    1.2619    0.0346 N.pl3     1 <0>        -0.7471
     16 C11        -6.3787   -0.6328   -0.0424 C.3       1 <0>        -0.0898
     17 C12        -6.9279   -0.6865    1.3846 C.3       1 <0>        -0.0881
     18 C13        -7.2354    0.7327    1.8664 C.3       1 <0>        -0.1513
     19 C14        -8.2098   -1.5215    1.4066 C.3       1 <0>        -0.1497
     20 H1         -3.3521   -4.6600    1.0861 H         1 <0>         0.0608
     21 H2         -4.0861   -4.4578    2.6951 H         1 <0>         0.0637
     22 H3         -5.1044   -4.3856    1.2369 H         1 <0>         0.0621
     23 H4         -4.6716   -2.1146    2.1336 H         1 <0>         0.0764
     24 H5         -1.7504   -2.8084    1.5842 H         1 <0>         0.0614
     25 H6         -2.3614   -1.2148    2.0898 H         1 <0>         0.0463
     26 H7         -2.4842   -2.6062    3.1932 H         1 <0>         0.0602
     27 H8         -4.8908   -2.5245   -0.3412 H         1 <0>         0.1039
     28 H9         -3.1166   -2.6261   -0.4406 H         1 <0>         0.0994
     29 H10        -3.3222    5.8101   -0.2880 H         1 <0>         0.4485
     30 H11        -1.6433    5.7662   -0.2441 H         1 <0>         0.4249
     31 H12        -0.1473    0.2932    0.0834 H         1 <0>         0.4570
     32 H13         0.6853    1.7512    0.0244 H         1 <0>         0.4338
     33 H14        -7.0743   -0.0862   -0.6792 H         1 <0>         0.1072
     34 H15        -6.2574   -1.6469   -0.4235 H         1 <0>         0.1079
     35 H16        -6.1870   -1.1411    2.0423 H         1 <0>         0.0758
     36 H17        -7.9763    1.1872    1.2088 H         1 <0>         0.0647
     37 H18        -7.6267    0.6945    2.8831 H         1 <0>         0.0602
     38 H19        -6.3221    1.3275    1.8508 H         1 <0>         0.0510
     39 H20        -7.9908   -2.5325    1.0633 H         1 <0>         0.0615
     40 H21        -8.6011   -1.5597    2.4232 H         1 <0>         0.0650
     41 H22        -8.9508   -1.0669    0.7489 H         1 <0>         0.0626
     42 N6         -3.7742    3.3741   -0.1720 N.ar      1 <0>        -0.4692
     43 H23        -0.5175    3.7694   -0.0924 H         1 <0>         0.4529
@<TRIPOS>BOND
     1    1    2 1
     2    1   20 1
     3    1   21 1
     4    1   22 1
     5    2    3 1
     6    2    4 1
     7    2   23 1
     8    3   24 1
     9    3   25 1
    10    3   26 1
    11    4    5 1
    12    4   27 1
    13    4   28 1
    14    5   10 ar
    15    5    6 ar
    16    6    7 ar
    17    6   16 1
    18    7    8 ar
    19    8   42 ar
    20    8    9 ar
    21    9   10 ar
    22    9   11 ar
    23   11   15 1
    24   11   12 ar
    25   12   43 1
    26   12   13 ar
    27   13   14 1
    28   13   42 ar
    29   14   29 1
    30   14   30 1
    31   15   31 1
    32   15   32 1
    33   16   17 1
    34   16   33 1
    35   16   34 1
    36   17   18 1
    37   17   19 1
    38   17   35 1
    39   18   36 1
    40   18   37 1
    41   18   38 1
    42   19   39 1
    43   19   40 1
    44   19   41 1
@<TRIPOS>MOLECULE
ZINC00006616
   43    44     0     0     0
SMALL
USER_CHARGES

@<TRIPOS>ATOM
      1 C1         -4.1189   -4.1410    1.6757 C.3       1 <0>        -0.1505
      2 C2         -3.8898   -2.6308    1.5889 C.3       1 <0>        -0.0917
      3 C3         -2.5139   -2.2897    2.1646 C.3       1 <0>        -0.1499
      4 C4         -3.9544   -2.1884    0.1257 C.3       1 <0>        -0.0771
      5 C5         -3.8725   -0.6855    0.0512 C.ar      1 <0>         0.1069
      6 C6         -5.0444    0.0676   -0.0134 C.ar      1 <0>         0.2040
      7 N1         -4.9983    1.3813   -0.0790 N.ar      1 <0>        -0.4442
      8 C7         -3.8147    1.9995   -0.0838 C.ar      1 <0>         0.3362
      9 C8         -2.6268    1.2293   -0.0185 C.ar      1 <0>        -0.0229
     10 N2         -2.6956   -0.0965    0.0473 N.ar      1 <0>        -0.3605
     11 C9         -1.3484    1.9425   -0.0261 C.ar      1 <0>         0.5813
     12 N3         -1.3819    3.2665   -0.0880 N.ar      1 <0>        -0.5764
     13 C10        -2.5346    3.9254   -0.1524 C.ar      1 <0>         0.7105
     14 N4         -2.4967    5.3050   -0.2205 N.pl3     1 <0>        -0.7773
     15 N5         -0.1522    1.2619    0.0347 N.pl3     1 <0>        -0.7331
     16 C11        -6.3796   -0.6311   -0.0074 C.3       1 <0>        -0.0879
     17 C12        -6.9209   -0.6844    1.4227 C.3       1 <0>        -0.0896
     18 C13        -7.2253    0.7350    1.9059 C.3       1 <0>        -0.1504
     19 C14        -8.2029   -1.5190    1.4519 C.3       1 <0>        -0.1502
     20 H1         -3.3479   -4.6589    1.1052 H         1 <0>         0.0618
     21 H2         -4.0729   -4.4562    2.7182 H         1 <0>         0.0644
     22 H3         -5.0992   -4.3840    1.2657 H         1 <0>         0.0616
     23 H4         -4.6609   -2.1129    2.1595 H         1 <0>         0.0753
     24 H5         -1.7429   -2.8076    1.5940 H         1 <0>         0.0632
     25 H6         -2.3507   -1.2138    2.1027 H         1 <0>         0.0469
     26 H7         -2.4678   -2.6049    3.2070 H         1 <0>         0.0612
     27 H8         -4.8939   -2.5233   -0.3140 H         1 <0>         0.1039
     28 H9         -3.1203   -2.6254   -0.4232 H         1 <0>         0.1020
     29 H10        -3.3230    5.8113   -0.2640 H         1 <0>         0.4337
     30 H11        -1.6439    5.7672   -0.2249 H         1 <0>         0.4459
     31 H12        -0.1473    0.2932    0.0835 H         1 <0>         0.4432
     32 H13         0.6853    1.7512    0.0245 H         1 <0>         0.4362
     33 H14        -7.0786   -0.0845   -0.6404 H         1 <0>         0.1057
     34 H15        -6.2607   -1.6453   -0.3889 H         1 <0>         0.1098
     35 H16        -6.1765   -1.1390    2.0763 H         1 <0>         0.0775
     36 H17        -7.9698    1.1896    1.2523 H         1 <0>         0.0636
     37 H18        -7.6110    0.6971    2.9247 H         1 <0>         0.0621
     38 H19        -6.3120    1.3296    1.8851 H         1 <0>         0.0471
     39 H20        -7.9861   -2.5302    1.1076 H         1 <0>         0.0627
     40 H21        -8.5886   -1.5569    2.4707 H         1 <0>         0.0657
     41 H22        -8.9474   -1.0644    0.7983 H         1 <0>         0.0623
     42 N6         -3.7748    3.3751   -0.1522 N.ar      1 <0>        -0.5947
     43 H23        -4.6258    3.8983   -0.1975 H         1 <0>         0.4614
@<TRIPOS>BOND
     1    1    2 1
     2    1   20 1
     3    1   21 1
     4    1   22 1
     5    2    3 1
     6    2    4 1
     7    2   23 1
     8    3   24 1
     9    3   25 1
    10    3   26 1
    11    4    5 1
    12    4   27 1
    13    4   28 1
    14    5   10 ar
    15    5    6 ar
    16    6    7 ar
    17    6   16 1
    18    7    8 ar
    19    8    9 ar
    20    8   42 ar
    21    9   10 ar
    22    9   11 ar
    23   11   12 ar
    24   11   15 1
    25   12   13 ar
    26   13   14 1
    27   13   42 ar
    28   14   29 1
    29   14   30 1
    30   15   31 1
    31   15   32 1
    32   16   17 1
    33   16   33 1
    34   16   34 1
    35   17   18 1
    36   17   19 1
    37   17   35 1
    38   18   36 1
    39   18   37 1
    40   18   38 1
    41   19   39 1
    42   19   40 1
    43   19   41 1
    44   42   43 1
@<TRIPOS>MOLECULE
ZINC00007330
   45    47     0     0     0
SMALL
USER_CHARGES

@<TRIPOS>ATOM
      1 C1         -0.0127    1.0858    0.0080 C.3       1 <0>         0.0277
      2 O1         -0.6816    1.5467    1.1837 O.3       1 <0>        -0.3176
      3 C2         -0.1485    1.1819    2.3803 C.ar      1 <0>         0.0961
      4 C3          0.9945    0.3968    2.4200 C.ar      1 <0>        -0.1744
      5 C4          1.5359    0.0263    3.6353 C.ar      1 <0>        -0.1665
      6 C5          0.9367    0.4392    4.8163 C.ar      1 <0>         0.0930
      7 C6         -0.2059    1.2241    4.7767 C.ar      1 <0>        -0.0687
      8 C7         -0.7442    1.5994    3.5610 C.ar      1 <0>        -0.1121
      9 C8         -0.8571    1.6722    6.0597 C.3       1 <0>        -0.0677
     10 C9         -0.1756    2.9478    6.5590 C.3       1 <0>        -0.0785
     11 H1         -0.1964    3.7051    5.7753 H         1 <0>         0.0743
     12 C10        -0.9075    3.4709    7.8005 C.3       1 <0>        -0.1122
     13 C11        -0.3573    4.8543    8.1412 C.3       1 <0>        -0.0703
     14 C12         1.1459    4.8260    8.2035 C.ar      1 <0>         0.2452
     15 C13         1.8907    3.8157    7.6460 C.ar      1 <0>        -0.2954
     16 C14         3.2865    3.8823    7.7416 C.ar      1 <0>         0.4792
     17 N1          3.8454    4.9110    8.3680 N.ar      1 <0>        -0.6307
     18 C15         3.0924    5.8638    8.8966 C.ar      1 <0>         0.6006
     19 N2          1.7723    5.8259    8.8187 N.ar      1 <0>        -0.6107
     20 N3          3.7009    6.9236    9.5462 N.pl3     1 <0>        -0.8244
     21 N4          4.0748    2.8855    7.1901 N.pl3     1 <0>        -0.8359
     22 C16         1.2726    2.6415    6.9389 C.3       1 <0>        -0.0421
     23 O2          1.4696    0.0741    6.0130 O.3       1 <0>        -0.3086
     24 C17         2.6468   -0.7352    5.9790 C.3       1 <0>         0.0215
     25 H2          0.0021   -0.0041    0.0020 H         1 <0>         0.0544
     26 H3          1.0099    1.4631    0.0003 H         1 <0>         0.0541
     27 H4         -0.5399    1.4469   -0.8751 H         1 <0>         0.1006
     28 H5          1.4608    0.0750    1.5005 H         1 <0>         0.1291
     29 H6          2.4260   -0.5846    3.6662 H         1 <0>         0.1300
     30 H7         -1.6315    2.2143    3.5301 H         1 <0>         0.1378
     31 H8         -1.9138    1.8710    5.8807 H         1 <0>         0.0771
     32 H9         -0.7569    0.8889    6.8109 H         1 <0>         0.0819
     33 H10        -1.9757    3.5394    7.5942 H         1 <0>         0.0767
     34 H11        -0.7359    2.7955    8.6386 H         1 <0>         0.0695
     35 H12        -0.7520    5.1722    9.1062 H         1 <0>         0.0892
     36 H13        -0.6730    5.5626    7.3752 H         1 <0>         0.0883
     37 H14         3.1602    7.6274    9.9377 H         1 <0>         0.4140
     38 H15         4.6680    6.9626    9.6099 H         1 <0>         0.4117
     39 H16         3.6607    2.1360    6.7345 H         1 <0>         0.4107
     40 H17         5.0409    2.9372    7.2595 H         1 <0>         0.4047
     41 H18         1.2965    1.7720    7.5958 H         1 <0>         0.0773
     42 H19         1.8442    2.4267    6.0360 H         1 <0>         0.0631
     43 H20         2.4317   -1.6678    5.4574 H         1 <0>         0.0553
     44 H21         3.4400   -0.2010    5.4560 H         1 <0>         0.0523
     45 H22         2.9667   -0.9542    6.9978 H         1 <0>         0.1005
@<TRIPOS>BOND
     1    1    2 1
     2    1   25 1
     3    1   26 1
     4    1   27 1
     5    2    3 1
     6    3    8 ar
     7    3    4 ar
     8    4    5 ar
     9    4   28 1
    10    5    6 ar
    11    5   29 1
    12    6    7 ar
    13    6   23 1
    14    7    8 ar
    15    7    9 1
    16    8   30 1
    17    9   10 1
    18    9   31 1
    19    9   32 1
    20   10   11 1
    21   10   22 1
    22   10   12 1
    23   12   13 1
    24   12   33 1
    25   12   34 1
    26   13   14 1
    27   13   35 1
    28   13   36 1
    29   14   19 ar
    30   14   15 ar
    31   15   16 ar
    32   15   22 1
    33   16   17 ar
    34   16   21 1
    35   17   18 ar
    36   18   19 ar
    37   18   20 1
    38   20   37 1
    39   20   38 1
    40   21   39 1
    41   21   40 1
    42   22   41 1
    43   22   42 1
    44   23   24 1
    45   24   43 1
    46   24   44 1
    47   24   45 1
@<TRIPOS>MOLECULE
ZINC00007330
   46    48     0     0     0
SMALL
USER_CHARGES

@<TRIPOS>ATOM
      1 C1         -0.0127    1.0858    0.0080 C.3       1 <0>         0.0258
      2 O1         -0.6816    1.5467    1.1837 O.3       1 <0>        -0.3158
      3 C2         -0.1485    1.1819    2.3803 C.ar      1 <0>         0.1031
      4 C3          0.9945    0.3968    2.4200 C.ar      1 <0>        -0.1706
      5 C4          1.5359    0.0263    3.6353 C.ar      1 <0>        -0.1622
      6 C5          0.9367    0.4392    4.8163 C.ar      1 <0>         0.0842
      7 C6         -0.2059    1.2241    4.7767 C.ar      1 <0>        -0.0774
      8 C7         -0.7442    1.5994    3.5610 C.ar      1 <0>        -0.1125
      9 C8         -0.8571    1.6722    6.0597 C.3       1 <0>        -0.0673
     10 C9         -0.1756    2.9478    6.5590 C.3       1 <0>        -0.0816
     11 H1         -0.1964    3.7051    5.7753 H         1 <0>         0.0843
     12 C10        -0.9075    3.4709    7.8005 C.3       1 <0>        -0.1161
     13 C11        -0.3573    4.8543    8.1412 C.3       1 <0>        -0.1061
     14 C12         1.1459    4.8260    8.2035 C.ar      1 <0>         0.2330
     15 C13         1.8907    3.8157    7.6460 C.ar      1 <0>        -0.2142
     16 C14         3.2865    3.8823    7.7416 C.ar      1 <0>         0.5341
     17 N1          3.8454    4.9110    8.3680 N.ar      1 <0>        -0.5713
     18 C15         3.0924    5.8638    8.8966 C.ar      1 <0>         0.6705
     19 N2          3.7009    6.9236    9.5462 N.pl3     1 <0>        -0.7943
     20 N3          4.0748    2.8855    7.1901 N.pl3     1 <0>        -0.7773
     21 C16         1.2726    2.6415    6.9389 C.3       1 <0>        -0.0654
     22 O2          1.4696    0.0741    6.0130 O.3       1 <0>        -0.3171
     23 C17         2.6468   -0.7352    5.9790 C.3       1 <0>         0.0179
     24 H2          0.0021   -0.0041    0.0020 H         1 <0>         0.0574
     25 H3          1.0099    1.4631    0.0003 H         1 <0>         0.0556
     26 H4         -0.5399    1.4469   -0.8751 H         1 <0>         0.1045
     27 H5          1.4608    0.0750    1.5005 H         1 <0>         0.1329
     28 H6          2.4260   -0.5846    3.6662 H         1 <0>         0.1323
     29 H7         -1.6315    2.2143    3.5301 H         1 <0>         0.1393
     30 H8         -1.9138    1.8710    5.8807 H         1 <0>         0.0847
     31 H9         -0.7569    0.8889    6.8109 H         1 <0>         0.0869
     32 H10        -1.9757    3.5394    7.5942 H         1 <0>         0.0972
     33 H11        -0.7359    2.7955    8.6386 H         1 <0>         0.0821
     34 H12        -0.7520    5.1722    9.1062 H         1 <0>         0.1093
     35 H13        -0.6730    5.5626    7.3752 H         1 <0>         0.1177
     36 H14         3.1602    7.6274    9.9377 H         1 <0>         0.4296
     37 H15         4.6680    6.9626    9.6099 H         1 <0>         0.4418
     38 H16         3.6607    2.1360    6.7345 H         1 <0>         0.4310
     39 H17         5.0409    2.9372    7.2595 H         1 <0>         0.4275
     40 H18         1.2965    1.7720    7.5958 H         1 <0>         0.1059
     41 H19         1.8442    2.4267    6.0360 H         1 <0>         0.0881
     42 H20         2.4317   -1.6678    5.4574 H         1 <0>         0.0610
     43 H21         3.4400   -0.2010    5.4560 H         1 <0>         0.0523
     44 H22         2.9667   -0.9542    6.9978 H         1 <0>         0.1024
     45 N4          1.7312    5.8824    8.8503 N.ar      1 <0>        -0.6006
     46 H23         1.1624    6.6014    9.2497 H         1 <0>         0.4575
@<TRIPOS>BOND
     1    1    2 1
     2    1   24 1
     3    1   25 1
     4    1   26 1
     5    2    3 1
     6    3    8 ar
     7    3    4 ar
     8    4    5 ar
     9    4   27 1
    10    5    6 ar
    11    5   28 1
    12    6    7 ar
    13    6   22 1
    14    7    8 ar
    15    7    9 1
    16    8   29 1
    17    9   10 1
    18    9   30 1
    19    9   31 1
    20   10   11 1
    21   10   21 1
    22   10   12 1
    23   12   13 1
    24   12   32 1
    25   12   33 1
    26   13   14 1
    27   13   34 1
    28   13   35 1
    29   14   15 ar
    30   14   45 ar
    31   15   16 ar
    32   15   21 1
    33   16   17 ar
    34   16   20 1
    35   17   18 ar
    36   18   19 1
    37   18   45 ar
    38   19   36 1
    39   19   37 1
    40   20   38 1
    41   20   39 1
    42   21   40 1
    43   21   41 1
    44   22   23 1
    45   23   42 1
    46   23   43 1
    47   23   44 1
    48   45   46 1
@<TRIPOS>MOLECULE
ZINC00007330
   46    48     0     0     0
SMALL
USER_CHARGES

@<TRIPOS>ATOM
      1 C1          0.0147    1.0632    0.0127 C.3       1 <0>         0.0259
      2 O1         -0.6583    1.5300    1.1837 O.3       1 <0>        -0.3154
      3 C2         -0.1318    1.1677    2.3840 C.ar      1 <0>         0.1038
      4 C3          1.0087    0.3794    2.4317 C.ar      1 <0>        -0.1722
      5 C4          1.5434    0.0114    3.6507 C.ar      1 <0>        -0.1630
      6 C5          0.9399    0.4300    4.8275 C.ar      1 <0>         0.0827
      7 C6         -0.2002    1.2180    4.7800 C.ar      1 <0>        -0.0747
      8 C7         -0.7318    1.5908    3.5605 C.ar      1 <0>        -0.1122
      9 C8         -0.8561    1.6723    6.0584 C.3       1 <0>        -0.0680
     10 C9         -0.1733    2.9476    6.5566 C.3       1 <0>        -0.0794
     11 H1         -0.1882    3.7023    5.7703 H         1 <0>         0.0836
     12 C10        -0.9094    3.4769    7.7930 C.3       1 <0>        -0.1208
     13 C11        -0.3572    4.8562    8.1380 C.3       1 <0>        -0.0904
     14 C12         1.1460    4.8274    8.2010 C.ar      1 <0>         0.2760
     15 C13         1.8905    3.8131    7.6504 C.ar      1 <0>        -0.2366
     16 C14         3.2860    3.8757    7.7528 C.ar      1 <0>         0.5059
     17 N1          3.8450    4.9052    8.3778 N.ar      1 <0>        -0.5765
     18 C15         3.0925    5.8653    8.8940 C.ar      1 <0>         0.6128
     19 N2          3.7011    6.9259    9.5422 N.pl3     1 <0>        -0.7937
     20 N3          4.0740    2.8756    7.2069 N.pl3     1 <0>        -0.8037
     21 C16         1.2723    2.6392    6.9428 C.3       1 <0>        -0.0599
     22 O2          1.4661    0.0673    6.0279 O.3       1 <0>        -0.3164
     23 C17         2.6411   -0.7455    6.0021 C.3       1 <0>         0.0183
     24 H2          0.0264   -0.0267    0.0104 H         1 <0>         0.0573
     25 H3          1.0385    1.4376    0.0085 H         1 <0>         0.0551
     26 H4         -0.5073    1.4229   -0.8740 H         1 <0>         0.1046
     27 H5          1.4783    0.0532    1.5154 H         1 <0>         0.1324
     28 H6          2.4315   -0.6019    3.6878 H         1 <0>         0.1312
     29 H7         -1.6172    2.2082    3.5234 H         1 <0>         0.1403
     30 H8         -1.9114    1.8735    5.8738 H         1 <0>         0.0854
     31 H9         -0.7617    0.8912    6.8127 H         1 <0>         0.0865
     32 H10        -1.9764    3.5478    7.5815 H         1 <0>         0.0947
     33 H11        -0.7437    2.8038    8.6341 H         1 <0>         0.0783
     34 H12        -0.7522    5.1751    9.1025 H         1 <0>         0.1140
     35 H13        -0.6723    5.5638    7.3712 H         1 <0>         0.1159
     36 H14         3.1604    7.6303    9.9327 H         1 <0>         0.4468
     37 H15         4.6682    6.9649    9.6059 H         1 <0>         0.4243
     38 H16         3.6599    2.1261    6.7513 H         1 <0>         0.4423
     39 H17         5.0399    2.9250    7.2803 H         1 <0>         0.4227
     40 H18         1.2908    1.7710    7.6015 H         1 <0>         0.1020
     41 H19         1.8475    2.4210    6.0430 H         1 <0>         0.0820
     42 H20         2.4258   -1.6792    5.4826 H         1 <0>         0.0611
     43 H21         3.4383   -0.2153    5.4810 H         1 <0>         0.0503
     44 H22         2.9557   -0.9620    7.0231 H         1 <0>         0.1013
     45 N4          1.7314    5.8843    8.8470 N.ar      1 <0>        -0.5012
     46 H23         4.8401    4.9478    8.4662 H         1 <0>         0.4466
@<TRIPOS>BOND
     1    1    2 1
     2    1   24 1
     3    1   25 1
     4    1   26 1
     5    2    3 1
     6    3    8 ar
     7    3    4 ar
     8    4    5 ar
     9    4   27 1
    10    5    6 ar
    11    5   28 1
    12    6    7 ar
    13    6   22 1
    14    7    8 ar
    15    7    9 1
    16    8   29 1
    17    9   10 1
    18    9   30 1
    19    9   31 1
    20   10   11 1
    21   10   21 1
    22   10   12 1
    23   12   13 1
    24   12   32 1
    25   12   33 1
    26   13   14 1
    27   13   34 1
    28   13   35 1
    29   14   45 ar
    30   14   15 ar
    31   15   21 1
    32   15   16 ar
    33   16   20 1
    34   16   17 ar
    35   17   46 1
    36   17   18 ar
    37   18   19 1
    38   18   45 ar
    39   19   36 1
    40   19   37 1
    41   20   38 1
    42   20   39 1
    43   21   40 1
    44   21   41 1
    45   22   23 1
    46   23   42 1
    47   23   43 1
    48   23   44 1
@<TRIPOS>MOLECULE
ZINC00007486
   44    46     0     0     0
SMALL
USER_CHARGES

@<TRIPOS>ATOM
      1 C1          5.0550    1.2987   -2.7102 C.3       1 <0>        -0.1005
      2 C2          4.0712    1.6081   -3.8091 C.ar      1 <0>        -0.1963
      3 C3          4.4821    2.3089   -4.9265 C.ar      1 <0>        -0.0345
      4 C4          3.5829    2.5934   -5.9363 C.ar      1 <0>        -0.2606
      5 C5          2.2632    2.1759   -5.8311 C.ar      1 <0>         0.1678
      6 C6          1.8479    1.4690   -4.7139 C.ar      1 <0>        -0.2291
      7 C7          2.7515    1.1881   -3.6981 C.ar      1 <0>         0.2537
      8 N1          2.3360    0.4792   -2.5687 N.pl3     1 <0>        -0.7393
      9 C8          0.9442    0.0367   -2.4527 C.3       1 <0>         0.1757
     10 C9          0.7581   -0.7000   -1.1513 C.ar      1 <0>        -0.2168
     11 C10         0.7545   -2.0896   -1.1322 C.ar      1 <0>         0.2103
     12 N2          0.5894   -2.7660   -0.0176 N.ar      1 <0>        -0.4893
     13 C11         0.4223   -2.1441    1.1501 C.ar      1 <0>         0.4163
     14 C12         0.4214   -0.7281    1.1994 C.ar      1 <0>        -0.2824
     15 C13         0.5967   -0.0010    0.0160 C.ar      1 <0>         0.0596
     16 C14         0.6016    1.5059    0.0249 C.3       1 <0>        -0.1545
     17 C15         0.2422   -0.0944    2.4535 C.ar      1 <0>         0.5245
     18 N3          0.0833   -0.8578    3.5256 N.ar      1 <0>        -0.6171
     19 C16         0.0906   -2.1844    3.4359 C.ar      1 <0>         0.6251
     20 N4          0.2532   -2.8240    2.2927 N.ar      1 <0>        -0.5912
     21 N5         -0.0800   -2.9256    4.5895 N.pl3     1 <0>        -0.8103
     22 N6          0.2328    1.2794    2.5563 N.pl3     1 <0>        -0.8450
     23 O1          1.3801    2.4565   -6.8251 O.3       1 <0>        -0.3188
     24 C17         1.8783    3.1847   -7.9492 C.3       1 <0>         0.0286
     25 H1          5.5342    0.3405   -2.9108 H         1 <0>         0.0633
     26 H2          5.8118    2.0820   -2.6690 H         1 <0>         0.0650
     27 H3          4.5303    1.2499   -1.7560 H         1 <0>         0.0543
     28 H4          5.5083    2.6347   -5.0112 H         1 <0>         0.1229
     29 H5          3.9073    3.1411   -6.8087 H         1 <0>         0.1236
     30 H6          0.8225    1.1401   -4.6321 H         1 <0>         0.1289
     31 H7          2.9688    0.2798   -1.8612 H         1 <0>         0.4014
     32 H8          0.7034   -0.6267   -3.2834 H         1 <0>         0.0746
     33 H9          0.2841    0.9038   -2.4770 H         1 <0>         0.0741
     34 H10         0.8873   -2.6282   -2.0588 H         1 <0>         0.1680
     35 H11         1.5930    1.8644    0.3018 H         1 <0>         0.0866
     36 H12         0.3455    1.8759   -0.9678 H         1 <0>         0.0864
     37 H13        -0.1303    1.8673    0.7473 H         1 <0>         0.0995
     38 H14        -0.2015   -2.4769    5.4409 H         1 <0>         0.4164
     39 H15        -0.0781   -3.8947    4.5480 H         1 <0>         0.4190
     40 H16        -0.4080    1.7178    3.1376 H         1 <0>         0.4109
     41 H17         0.8670    1.8081    2.0473 H         1 <0>         0.4185
     42 H18         2.2610    4.1495   -7.6164 H         1 <0>         0.0557
     43 H19         2.6812    2.6188   -8.4218 H         1 <0>         0.0560
     44 H20         1.0729    3.3412   -8.6667 H         1 <0>         0.0991
@<TRIPOS>BOND
     1    1    2 1
     2    1   25 1
     3    1   26 1
     4    1   27 1
     5    2    7 ar
     6    2    3 ar
     7    3    4 ar
     8    3   28 1
     9    4    5 ar
    10    4   29 1
    11    5    6 ar
    12    5   23 1
    13    6    7 ar
    14    6   30 1
    15    7    8 1
    16    8    9 1
    17    8   31 1
    18    9   10 1
    19    9   32 1
    20    9   33 1
    21   10   15 ar
    22   10   11 ar
    23   11   12 ar
    24   11   34 1
    25   12   13 ar
    26   13   20 ar
    27   13   14 ar
    28   14   15 ar
    29   14   17 ar
    30   15   16 1
    31   16   35 1
    32   16   36 1
    33   16   37 1
    34   17   18 ar
    35   17   22 1
    36   18   19 ar
    37   19   20 ar
    38   19   21 1
    39   21   38 1
    40   21   39 1
    41   22   40 1
    42   22   41 1
    43   23   24 1
    44   24   42 1
    45   24   43 1
    46   24   44 1
@<TRIPOS>MOLECULE
ZINC00007486
   45    47     0     0     0
SMALL
USER_CHARGES

@<TRIPOS>ATOM
      1 C1          5.0550    1.2987   -2.7102 C.3       1 <0>        -0.1004
      2 C2          4.0712    1.6081   -3.8091 C.ar      1 <0>        -0.1920
      3 C3          4.4821    2.3089   -4.9265 C.ar      1 <0>        -0.0331
      4 C4          3.5829    2.5934   -5.9363 C.ar      1 <0>        -0.2510
      5 C5          2.2632    2.1759   -5.8311 C.ar      1 <0>         0.1696
      6 C6          1.8479    1.4690   -4.7139 C.ar      1 <0>        -0.2263
      7 C7          2.7515    1.1881   -3.6981 C.ar      1 <0>         0.2447
      8 N1          2.3360    0.4792   -2.5687 N.pl3     1 <0>        -0.7461
      9 C8          0.9442    0.0367   -2.4527 C.3       1 <0>         0.1658
     10 C9          0.7581   -0.7000   -1.1513 C.ar      1 <0>        -0.1739
     11 C10         0.7545   -2.0896   -1.1322 C.ar      1 <0>         0.2379
     12 N2          0.5894   -2.7660   -0.0176 N.ar      1 <0>        -0.5007
     13 C11         0.4223   -2.1441    1.1501 C.ar      1 <0>         0.3994
     14 C12         0.4214   -0.7281    1.1994 C.ar      1 <0>        -0.2350
     15 C13         0.5967   -0.0010    0.0160 C.ar      1 <0>         0.0768
     16 C14         0.6016    1.5059    0.0249 C.3       1 <0>        -0.1679
     17 C15         0.2422   -0.0944    2.4535 C.ar      1 <0>         0.5804
     18 N3          0.0833   -0.8578    3.5256 N.ar      1 <0>        -0.5704
     19 C16         0.0906   -2.1844    3.4359 C.ar      1 <0>         0.7013
     20 N4         -0.0800   -2.9256    4.5895 N.pl3     1 <0>        -0.7773
     21 N5          0.2328    1.2794    2.5563 N.pl3     1 <0>        -0.8010
     22 O1          1.3801    2.4565   -6.8251 O.3       1 <0>        -0.3177
     23 C17         1.8783    3.1847   -7.9492 C.3       1 <0>         0.0267
     24 H1          5.5342    0.3405   -2.9108 H         1 <0>         0.0642
     25 H2          5.8118    2.0820   -2.6690 H         1 <0>         0.0683
     26 H3          4.5303    1.2499   -1.7560 H         1 <0>         0.0510
     27 H4          5.5083    2.6347   -5.0112 H         1 <0>         0.1267
     28 H5          3.9073    3.1411   -6.8087 H         1 <0>         0.1278
     29 H6          0.8225    1.1401   -4.6321 H         1 <0>         0.1286
     30 H7          2.9688    0.2798   -1.8612 H         1 <0>         0.4008
     31 H8          0.7034   -0.6267   -3.2834 H         1 <0>         0.0856
     32 H9          0.2841    0.9038   -2.4770 H         1 <0>         0.0856
     33 H10         0.8873   -2.6282   -2.0588 H         1 <0>         0.1934
     34 H11         1.5930    1.8644    0.3018 H         1 <0>         0.1065
     35 H12         0.3455    1.8759   -0.9678 H         1 <0>         0.1075
     36 H13        -0.1303    1.8673    0.7473 H         1 <0>         0.1058
     37 H14        -0.2015   -2.4769    5.4409 H         1 <0>         0.4459
     38 H15        -0.0781   -3.8947    4.5480 H         1 <0>         0.4337
     39 H16        -0.4080    1.7178    3.1376 H         1 <0>         0.4314
     40 H17         0.8670    1.8081    2.0473 H         1 <0>         0.4366
     41 H18         2.2610    4.1495   -7.6164 H         1 <0>         0.0580
     42 H19         2.6812    2.6188   -8.4218 H         1 <0>         0.0583
     43 H20         1.0729    3.3412   -8.6667 H         1 <0>         0.1026
     44 N6          0.2529   -2.8962    2.2920 N.ar      1 <0>        -0.5915
     45 H21         0.2558   -3.8947    2.2380 H         1 <0>         0.4634
@<TRIPOS>BOND
     1    1    2 1
     2    1   24 1
     3    1   25 1
     4    1   26 1
     5    2    7 ar
     6    2    3 ar
     7    3    4 ar
     8    3   27 1
     9    4    5 ar
    10    4   28 1
    11    5    6 ar
    12    5   22 1
    13    6    7 ar
    14    6   29 1
    15    7    8 1
    16    8    9 1
    17    8   30 1
    18    9   10 1
    19    9   31 1
    20    9   32 1
    21   10   15 ar
    22   10   11 ar
    23   11   12 ar
    24   11   33 1
    25   12   13 ar
    26   13   14 ar
    27   13   44 ar
    28   14   15 ar
    29   14   17 ar
    30   15   16 1
    31   16   34 1
    32   16   35 1
    33   16   36 1
    34   17   18 ar
    35   17   21 1
    36   18   19 ar
    37   19   20 1
    38   19   44 ar
    39   20   37 1
    40   20   38 1
    41   21   39 1
    42   21   40 1
    43   22   23 1
    44   23   41 1
    45   23   42 1
    46   23   43 1
    47   44   45 1
@<TRIPOS>MOLECULE
ZINC00007519
   42    44     0     0     0
SMALL
USER_CHARGES

@<TRIPOS>ATOM
      1 C1          2.4260   -0.3567    0.0862 C.3       1 <0>         0.0994
      2 N1          2.4018    1.1046   -0.0155 N.pl3     1 <0>        -0.5764
      3 C2          1.1798    1.7871    0.0007 C.ar      1 <0>         0.2216
      4 C3          1.1602    3.1756    0.0195 C.ar      1 <0>        -0.1755
      5 C4         -0.0454    3.8509    0.0354 C.ar      1 <0>        -0.1256
      6 C5         -1.2371    3.1441    0.0317 C.ar      1 <0>         0.0514
      7 C6         -1.2209    1.7529    0.0071 C.ar      1 <0>         0.1435
      8 C7         -0.0127    1.0760   -0.0026 C.ar      1 <0>        -0.2375
      9 O1         -2.3902    1.0587   -0.0018 O.3       1 <0>        -0.3034
     10 C8         -2.2980   -0.3672   -0.0212 C.3       1 <0>         0.0259
     11 O2         -2.4234    3.8106    0.0465 O.3       1 <0>        -0.3094
     12 C9         -2.3653    5.2383    0.0655 C.3       1 <0>         0.0278
     13 C10         3.5921    1.8132   -0.1279 C.ar      1 <0>         0.3387
     14 C11         4.2975    2.1571    1.0337 C.ar      1 <0>        -0.1054
     15 C12         5.4669    2.8522    0.9381 C.ar      1 <0>        -0.0759
     16 C13         5.9288    3.2040   -0.3441 C.ar      1 <0>         0.1963
     17 C14         5.1696    2.8265   -1.4749 C.ar      1 <0>        -0.0428
     18 N2          4.0354    2.1424   -1.3245 N.ar      1 <0>        -0.4313
     19 C15         5.6559    3.1921   -2.7570 C.ar      1 <0>         0.5329
     20 N3          6.7928    3.8663   -2.8308 N.ar      1 <0>        -0.6284
     21 C16         7.4742    4.2003   -1.7387 C.ar      1 <0>         0.6196
     22 N4          7.0681    3.8861   -0.5234 N.ar      1 <0>        -0.6054
     23 N5          8.6568    4.9053   -1.8828 N.pl3     1 <0>        -0.8141
     24 N6          4.9601    2.8532   -3.8995 N.pl3     1 <0>        -0.8005
     25 H1          2.3782   -0.7912   -0.9123 H         1 <0>         0.0533
     26 H2          3.3475   -0.6716    0.5758 H         1 <0>         0.0700
     27 H3          1.5703   -0.6945    0.6708 H         1 <0>         0.0753
     28 H4          2.0881    3.7282    0.0221 H         1 <0>         0.1190
     29 H5         -0.0587    4.9307    0.0504 H         1 <0>         0.1347
     30 H6          0.0019   -0.0038   -0.0172 H         1 <0>         0.1387
     31 H7         -1.7614   -0.7086    0.8640 H         1 <0>         0.0547
     32 H8         -3.3000   -0.7961   -0.0266 H         1 <0>         0.1007
     33 H9         -1.7621   -0.6845   -0.9158 H         1 <0>         0.0548
     34 H10        -1.8327    5.5684    0.9574 H         1 <0>         0.0524
     35 H11        -1.8414    5.5925   -0.8223 H         1 <0>         0.0517
     36 H12        -3.3773    5.6431    0.0759 H         1 <0>         0.0986
     37 H13         3.9154    1.8722    2.0028 H         1 <0>         0.1466
     38 H14         6.0236    3.1252    1.8223 H         1 <0>         0.1536
     39 H15         8.9733    5.1459   -2.7676 H         1 <0>         0.4152
     40 H16         9.1690    5.1587   -1.0990 H         1 <0>         0.4177
     41 H17         4.1280    2.3593   -3.8320 H         1 <0>         0.4246
     42 H18         5.3031    3.1089   -4.7700 H         1 <0>         0.4126
@<TRIPOS>BOND
     1    1    2 1
     2    1   25 1
     3    1   26 1
     4    1   27 1
     5    2    3 1
     6    2   13 1
     7    3    8 ar
     8    3    4 ar
     9    4    5 ar
    10    4   28 1
    11    5    6 ar
    12    5   29 1
    13    6    7 ar
    14    6   11 1
    15    7    8 ar
    16    7    9 1
    17    8   30 1
    18    9   10 1
    19   10   31 1
    20   10   32 1
    21   10   33 1
    22   11   12 1
    23   12   34 1
    24   12   35 1
    25   12   36 1
    26   13   18 ar
    27   13   14 ar
    28   14   15 ar
    29   14   37 1
    30   15   16 ar
    31   15   38 1
    32   16   22 ar
    33   16   17 ar
    34   17   18 ar
    35   17   19 ar
    36   19   20 ar
    37   19   24 1
    38   20   21 ar
    39   21   22 ar
    40   21   23 1
    41   23   39 1
    42   23   40 1
    43   24   41 1
    44   24   42 1
@<TRIPOS>MOLECULE
ZINC00007519
   42    44     0     0     0
SMALL
USER_CHARGES

@<TRIPOS>ATOM
      1 C1          2.4260   -0.3567    0.0862 C.3       1 <0>         0.0994
      2 N1          2.4018    1.1046   -0.0155 N.pl3     1 <0>        -0.5764
      3 C2          1.1798    1.7871    0.0007 C.ar      1 <0>         0.2216
      4 C3          1.1602    3.1756    0.0195 C.ar      1 <0>        -0.1755
      5 C4         -0.0454    3.8509    0.0354 C.ar      1 <0>        -0.1256
      6 C5         -1.2371    3.1441    0.0317 C.ar      1 <0>         0.0514
      7 C6         -1.2209    1.7529    0.0071 C.ar      1 <0>         0.1435
      8 C7         -0.0127    1.0760   -0.0026 C.ar      1 <0>        -0.2375
      9 O1         -2.3902    1.0587   -0.0018 O.3       1 <0>        -0.3034
     10 C8         -2.2980   -0.3672   -0.0212 C.3       1 <0>         0.0259
     11 O2         -2.4234    3.8106    0.0465 O.3       1 <0>        -0.3094
     12 C9         -2.3653    5.2383    0.0655 C.3       1 <0>         0.0278
     13 C10         3.5921    1.8132   -0.1279 C.ar      1 <0>         0.3387
     14 C11         4.2975    2.1571    1.0337 C.ar      1 <0>        -0.1054
     15 C12         5.4669    2.8522    0.9381 C.ar      1 <0>        -0.0759
     16 C13         5.9288    3.2040   -0.3441 C.ar      1 <0>         0.1963
     17 C14         5.1696    2.8265   -1.4749 C.ar      1 <0>        -0.0428
     18 N2          4.0354    2.1424   -1.3245 N.ar      1 <0>        -0.4313
     19 C15         5.6559    3.1921   -2.7570 C.ar      1 <0>         0.5329
     20 N3          6.7928    3.8663   -2.8308 N.ar      1 <0>        -0.6284
     21 C16         7.4742    4.2003   -1.7387 C.ar      1 <0>         0.6196
     22 N4          7.0681    3.8861   -0.5234 N.ar      1 <0>        -0.6054
     23 N5          8.6568    4.9053   -1.8828 N.pl3     1 <0>        -0.8141
     24 N6          4.9601    2.8532   -3.8995 N.pl3     1 <0>        -0.8005
     25 H1          2.3782   -0.7912   -0.9123 H         1 <0>         0.0533
     26 H2          3.3475   -0.6716    0.5758 H         1 <0>         0.0700
     27 H3          1.5703   -0.6945    0.6708 H         1 <0>         0.0753
     28 H4          2.0881    3.7282    0.0221 H         1 <0>         0.1190
     29 H5         -0.0587    4.9307    0.0504 H         1 <0>         0.1347
     30 H6          0.0019   -0.0038   -0.0172 H         1 <0>         0.1387
     31 H7         -1.7614   -0.7086    0.8640 H         1 <0>         0.0547
     32 H8         -3.3000   -0.7961   -0.0266 H         1 <0>         0.1007
     33 H9         -1.7621   -0.6845   -0.9158 H         1 <0>         0.0548
     34 H10        -1.8327    5.5684    0.9574 H         1 <0>         0.0524
     35 H11        -1.8414    5.5925   -0.8223 H         1 <0>         0.0517
     36 H12        -3.3773    5.6431    0.0759 H         1 <0>         0.0986
     37 H13         3.9154    1.8722    2.0028 H         1 <0>         0.1466
     38 H14         6.0236    3.1252    1.8223 H         1 <0>         0.1536
     39 H15         8.9733    5.1459   -2.7676 H         1 <0>         0.4152
     40 H16         9.1690    5.1587   -1.0990 H         1 <0>         0.4177
     41 H17         4.1280    2.3593   -3.8320 H         1 <0>         0.4246
     42 H18         5.3031    3.1089   -4.7700 H         1 <0>         0.4126
@<TRIPOS>BOND
     1    1    2 1
     2    1   25 1
     3    1   26 1
     4    1   27 1
     5    2    3 1
     6    2   13 1
     7    3    8 ar
     8    3    4 ar
     9    4    5 ar
    10    4   28 1
    11    5    6 ar
    12    5   29 1
    13    6    7 ar
    14    6   11 1
    15    7    8 ar
    16    7    9 1
    17    8   30 1
    18    9   10 1
    19   10   31 1
    20   10   32 1
    21   10   33 1
    22   11   12 1
    23   12   34 1
    24   12   35 1
    25   12   36 1
    26   13   18 ar
    27   13   14 ar
    28   14   15 ar
    29   14   37 1
    30   15   16 ar
    31   15   38 1
    32   16   22 ar
    33   16   17 ar
    34   17   18 ar
    35   17   19 ar
    36   19   20 ar
    37   19   24 1
    38   20   21 ar
    39   21   22 ar
    40   21   23 1
    41   23   39 1
    42   23   40 1
    43   24   41 1
    44   24   42 1
@<TRIPOS>MOLECULE
ZINC00007637
   37    39     0     0     0
SMALL
USER_CHARGES

@<TRIPOS>ATOM
      1 C1          0.6018    1.5059    0.0250 C.3       1 <0>        -0.1547
      2 C2          0.5970   -0.0011    0.0161 C.ar      1 <0>         0.0612
      3 C3          0.7585   -0.7002   -1.1515 C.ar      1 <0>        -0.2193
      4 C4          0.7532   -2.0894   -1.1326 C.ar      1 <0>         0.2106
      5 N1          0.5888   -2.7658   -0.0176 N.ar      1 <0>        -0.4890
      6 C5          0.4225   -2.1439    1.1498 C.ar      1 <0>         0.4171
      7 C6          0.4215   -0.7279    1.1991 C.ar      1 <0>        -0.2826
      8 C7          0.2422   -0.0940    2.4535 C.ar      1 <0>         0.5250
      9 N2          0.0832   -0.8573    3.5253 N.ar      1 <0>        -0.6168
     10 C8          0.0905   -2.1842    3.4357 C.ar      1 <0>         0.6255
     11 N3          0.2532   -2.8238    2.2928 N.ar      1 <0>        -0.5912
     12 N4         -0.0802   -2.9254    4.5893 N.pl3     1 <0>        -0.8099
     13 N5          0.2328    1.2797    2.5563 N.pl3     1 <0>        -0.8448
     14 C9          0.9447    0.0365   -2.4530 C.3       1 <0>         0.1770
     15 N6          2.3364    0.4790   -2.5689 N.pl3     1 <0>        -0.7395
     16 C10         2.7523    1.1883   -3.6989 C.ar      1 <0>         0.2278
     17 C11         1.8490    1.4696   -4.7156 C.ar      1 <0>        -0.1888
     18 C12         2.2619    2.1754   -5.8287 C.ar      1 <0>        -0.0649
     19 C13         3.5759    2.5927   -5.9371 C.ar      1 <0>        -0.1677
     20 C14         4.4798    2.3101   -4.9297 C.ar      1 <0>        -0.0619
     21 C15         4.0723    1.6088   -3.8106 C.ar      1 <0>        -0.1141
     22 Cl1         5.2078    1.2533   -2.5464 Cl        1 <0>        -0.0755
     23 H1          1.5932    1.8644    0.3020 H         1 <0>         0.0872
     24 H2          0.3459    1.8759   -0.9678 H         1 <0>         0.0856
     25 H3         -0.1301    1.8674    0.7473 H         1 <0>         0.1001
     26 H4          0.8854   -2.6280   -2.0594 H         1 <0>         0.1679
     27 H5         -0.2018   -2.4766    5.4406 H         1 <0>         0.4165
     28 H6         -0.0784   -3.8945    4.5478 H         1 <0>         0.4191
     29 H7         -0.4080    1.7182    3.1377 H         1 <0>         0.4110
     30 H8          0.8670    1.8085    2.0474 H         1 <0>         0.4186
     31 H9          0.7040   -0.6270   -3.2836 H         1 <0>         0.0756
     32 H10         0.2845    0.9035   -2.4774 H         1 <0>         0.0753
     33 H11         2.9693    0.2796   -1.8613 H         1 <0>         0.4030
     34 H12         0.8237    1.1401   -4.6341 H         1 <0>         0.1302
     35 H13         1.5587    2.3976   -6.6177 H         1 <0>         0.1276
     36 H14         3.8969    3.1402   -6.8110 H         1 <0>         0.1277
     37 H15         5.5052    2.6374   -5.0175 H         1 <0>         0.1311
@<TRIPOS>BOND
     1    1    2 1
     2    1   23 1
     3    1   24 1
     4    1   25 1
     5    2    7 ar
     6    2    3 ar
     7    3    4 ar
     8    3   14 1
     9    4    5 ar
    10    4   26 1
    11    5    6 ar
    12    6   11 ar
    13    6    7 ar
    14    7    8 ar
    15    8    9 ar
    16    8   13 1
    17    9   10 ar
    18   10   11 ar
    19   10   12 1
    20   12   27 1
    21   12   28 1
    22   13   29 1
    23   13   30 1
    24   14   15 1
    25   14   31 1
    26   14   32 1
    27   15   16 1
    28   15   33 1
    29   16   21 ar
    30   16   17 ar
    31   17   18 ar
    32   17   34 1
    33   18   19 ar
    34   18   35 1
    35   19   20 ar
    36   19   36 1
    37   20   21 ar
    38   20   37 1
    39   21   22 1
@<TRIPOS>MOLECULE
ZINC00007637
   38    40     0     0     0
SMALL
USER_CHARGES

@<TRIPOS>ATOM
      1 C1          0.6018    1.5059    0.0250 C.3       1 <0>        -0.1680
      2 C2          0.5970   -0.0011    0.0161 C.ar      1 <0>         0.0782
      3 C3          0.7585   -0.7002   -1.1515 C.ar      1 <0>        -0.1762
      4 C4          0.7532   -2.0894   -1.1326 C.ar      1 <0>         0.2380
      5 N1          0.5888   -2.7658   -0.0176 N.ar      1 <0>        -0.4997
      6 C5          0.4225   -2.1439    1.1498 C.ar      1 <0>         0.4075
      7 C6          0.4215   -0.7279    1.1991 C.ar      1 <0>        -0.2344
      8 C7          0.2422   -0.0940    2.4535 C.ar      1 <0>         0.5809
      9 N2          0.0832   -0.8573    3.5253 N.ar      1 <0>        -0.5713
     10 C8          0.0905   -2.1842    3.4357 C.ar      1 <0>         0.6941
     11 N3         -0.0802   -2.9254    4.5893 N.pl3     1 <0>        -0.7774
     12 N4          0.2328    1.2797    2.5563 N.pl3     1 <0>        -0.8009
     13 C9          0.9447    0.0365   -2.4530 C.3       1 <0>         0.1675
     14 N5          2.3364    0.4790   -2.5689 N.pl3     1 <0>        -0.7472
     15 C10         2.7523    1.1883   -3.6989 C.ar      1 <0>         0.2179
     16 C11         1.8490    1.4696   -4.7156 C.ar      1 <0>        -0.1845
     17 C12         2.2619    2.1754   -5.8287 C.ar      1 <0>        -0.0646
     18 C13         3.5759    2.5927   -5.9371 C.ar      1 <0>        -0.1556
     19 C14         4.4798    2.3101   -4.9297 C.ar      1 <0>        -0.0618
     20 C15         4.0723    1.6088   -3.8106 C.ar      1 <0>        -0.1073
     21 Cl1         5.2078    1.2533   -2.5464 Cl        1 <0>        -0.0743
     22 H1          1.5932    1.8644    0.3020 H         1 <0>         0.1071
     23 H2          0.3459    1.8759   -0.9678 H         1 <0>         0.1069
     24 H3         -0.1301    1.8674    0.7473 H         1 <0>         0.1066
     25 H4          0.8854   -2.6280   -2.0594 H         1 <0>         0.1934
     26 H5         -0.2018   -2.4766    5.4406 H         1 <0>         0.4462
     27 H6         -0.0784   -3.8945    4.5478 H         1 <0>         0.4336
     28 H7         -0.4080    1.7182    3.1377 H         1 <0>         0.4315
     29 H8          0.8670    1.8085    2.0474 H         1 <0>         0.4367
     30 H9          0.7040   -0.6270   -3.2836 H         1 <0>         0.0867
     31 H10         0.2845    0.9035   -2.4774 H         1 <0>         0.0868
     32 H11         2.9693    0.2796   -1.8613 H         1 <0>         0.4020
     33 H12         0.8237    1.1401   -4.6341 H         1 <0>         0.1302
     34 H13         1.5587    2.3976   -6.6177 H         1 <0>         0.1315
     35 H14         3.8969    3.1402   -6.8110 H         1 <0>         0.1325
     36 H15         5.5052    2.6374   -5.0175 H         1 <0>         0.1352
     37 N6          0.2529   -2.8960    2.2921 N.ar      1 <0>        -0.5896
     38 H16         0.2439   -3.8956    2.3198 H         1 <0>         0.4617
@<TRIPOS>BOND
     1    1    2 1
     2    1   22 1
     3    1   23 1
     4    1   24 1
     5    2    7 ar
     6    2    3 ar
     7    3    4 ar
     8    3   13 1
     9    4    5 ar
    10    4   25 1
    11    5    6 ar
    12    6    7 ar
    13    6   37 ar
    14    7    8 ar
    15    8    9 ar
    16    8   12 1
    17    9   10 ar
    18   10   11 1
    19   10   37 ar
    20   11   26 1
    21   11   27 1
    22   12   28 1
    23   12   29 1
    24   13   14 1
    25   13   30 1
    26   13   31 1
    27   14   15 1
    28   14   32 1
    29   15   20 ar
    30   15   16 ar
    31   16   17 ar
    32   16   33 1
    33   17   18 ar
    34   17   34 1
    35   18   19 ar
    36   18   35 1
    37   19   20 ar
    38   19   36 1
    39   20   21 1
    40   37   38 1
@<TRIPOS>MOLECULE
ZINC00023462
   41    43     0     0     0
SMALL
USER_CHARGES

@<TRIPOS>ATOM
      1 C1         -4.0846    3.2183    0.8774 C.3       1 <0>         0.0210
      2 O1         -2.9637    2.6788    0.1741 O.3       1 <0>        -0.3094
      3 C2         -3.1789    1.5568   -0.5619 C.ar      1 <0>         0.1276
      4 C3         -4.4430    0.9864   -0.6058 C.ar      1 <0>        -0.2075
      5 C4         -4.6591   -0.1542   -1.3542 C.ar      1 <0>        -0.0858
      6 C5         -3.6167   -0.7280   -2.0589 C.ar      1 <0>        -0.1538
      7 C6         -2.3576   -0.1584   -2.0212 C.ar      1 <0>        -0.0807
      8 C7         -2.1351    0.9796   -1.2699 C.ar      1 <0>        -0.1098
      9 C8         -0.7610    1.5967   -1.2248 C.3       1 <0>        -0.0672
     10 C9         -0.0127    1.0858    0.0080 C.3       1 <0>        -0.0781
     11 H1          0.0021   -0.0041    0.0020 H         1 <0>         0.0732
     12 C10         1.4241    1.6208   -0.0028 C.3       1 <0>        -0.1126
     13 C11         2.2136    0.9111    1.0962 C.3       1 <0>        -0.0699
     14 C12         1.4763    0.9853    2.4058 C.ar      1 <0>         0.2450
     15 C13         0.1388    1.2865    2.4860 C.ar      1 <0>        -0.2953
     16 C14        -0.4638    1.3259    3.7497 C.ar      1 <0>         0.4793
     17 N1          0.2713    1.0762    4.8269 N.ar      1 <0>        -0.6306
     18 C15         1.5597    0.7929    4.7086 C.ar      1 <0>         0.6007
     19 N2          2.1527    0.7473    3.5269 N.ar      1 <0>        -0.6108
     20 N3          2.3031    0.5391    5.8480 N.pl3     1 <0>        -0.8242
     21 N4         -1.8113    1.6224    3.8744 N.pl3     1 <0>        -0.8358
     22 C16        -0.7042    1.5832    1.2768 C.3       1 <0>        -0.0416
     23 H2         -4.8679    3.4803    0.1661 H         1 <0>         0.0565
     24 H3         -4.4646    2.4761    1.5793 H         1 <0>         0.0537
     25 H4         -3.7762    4.1101    1.4231 H         1 <0>         0.1009
     26 H5         -5.2574    1.4342   -0.0557 H         1 <0>         0.1265
     27 H6         -5.6428   -0.5986   -1.3887 H         1 <0>         0.1229
     28 H7         -3.7877   -1.6199   -2.6434 H         1 <0>         0.1230
     29 H8         -1.5462   -0.6059   -2.5760 H         1 <0>         0.1286
     30 H9         -0.8516    2.6816   -1.1712 H         1 <0>         0.0781
     31 H10        -0.2097    1.3222   -2.1242 H         1 <0>         0.0743
     32 H11         1.8824    1.4198   -0.9711 H         1 <0>         0.0755
     33 H12         1.4164    2.6948    0.1828 H         1 <0>         0.0693
     34 H13         2.3547   -0.1340    0.8208 H         1 <0>         0.0884
     35 H14         3.1884    1.3869    1.2040 H         1 <0>         0.0890
     36 H15         3.2477    0.3308    5.7744 H         1 <0>         0.4140
     37 H16         1.8797    0.5695    6.7202 H         1 <0>         0.4118
     38 H17        -2.2229    1.6486    4.7524 H         1 <0>         0.4049
     39 H18        -2.3431    1.8040    3.0838 H         1 <0>         0.4105
     40 H19        -0.8623    2.6591    1.2029 H         1 <0>         0.0760
     41 H20        -1.6691    1.0866    1.3796 H         1 <0>         0.0625
@<TRIPOS>BOND
     1    1    2 1
     2    1   23 1
     3    1   24 1
     4    1   25 1
     5    2    3 1
     6    3    8 ar
     7    3    4 ar
     8    4    5 ar
     9    4   26 1
    10    5    6 ar
    11    5   27 1
    12    6    7 ar
    13    6   28 1
    14    7    8 ar
    15    7   29 1
    16    8    9 1
    17    9   10 1
    18    9   30 1
    19    9   31 1
    20   10   11 1
    21   10   22 1
    22   10   12 1
    23   12   13 1
    24   12   32 1
    25   12   33 1
    26   13   14 1
    27   13   34 1
    28   13   35 1
    29   14   19 ar
    30   14   15 ar
    31   15   16 ar
    32   15   22 1
    33   16   17 ar
    34   16   21 1
    35   17   18 ar
    36   18   19 ar
    37   18   20 1
    38   20   36 1
    39   20   37 1
    40   21   38 1
    41   21   39 1
    42   22   40 1
    43   22   41 1
@<TRIPOS>MOLECULE
ZINC00023462
   42    44     0     0     0
SMALL
USER_CHARGES

@<TRIPOS>ATOM
      1 C1         -4.0846    3.2183    0.8774 C.3       1 <0>         0.0174
      2 O1         -2.9637    2.6788    0.1741 O.3       1 <0>        -0.3178
      3 C2         -3.1789    1.5568   -0.5619 C.ar      1 <0>         0.1211
      4 C3         -4.4430    0.9864   -0.6058 C.ar      1 <0>        -0.2048
      5 C4         -4.6591   -0.1542   -1.3542 C.ar      1 <0>        -0.0796
      6 C5         -3.6167   -0.7280   -2.0589 C.ar      1 <0>        -0.1489
      7 C6         -2.3576   -0.1584   -2.0212 C.ar      1 <0>        -0.0785
      8 C7         -2.1351    0.9796   -1.2699 C.ar      1 <0>        -0.1196
      9 C8         -0.7610    1.5967   -1.2248 C.3       1 <0>        -0.0668
     10 C9         -0.0127    1.0858    0.0080 C.3       1 <0>        -0.0812
     11 H1          0.0021   -0.0041    0.0020 H         1 <0>         0.0832
     12 C10         1.4241    1.6208   -0.0028 C.3       1 <0>        -0.1167
     13 C11         2.2136    0.9111    1.0962 C.3       1 <0>        -0.1056
     14 C12         1.4763    0.9853    2.4058 C.ar      1 <0>         0.2330
     15 C13         0.1388    1.2865    2.4860 C.ar      1 <0>        -0.2142
     16 C14        -0.4638    1.3259    3.7497 C.ar      1 <0>         0.5342
     17 N1          0.2713    1.0762    4.8269 N.ar      1 <0>        -0.5712
     18 C15         1.5597    0.7929    4.7086 C.ar      1 <0>         0.6706
     19 N2          2.3031    0.5391    5.8480 N.pl3     1 <0>        -0.7942
     20 N3         -1.8113    1.6224    3.8744 N.pl3     1 <0>        -0.7772
     21 C16        -0.7042    1.5832    1.2768 C.3       1 <0>        -0.0651
     22 H2         -4.8679    3.4803    0.1661 H         1 <0>         0.0623
     23 H3         -4.4646    2.4761    1.5793 H         1 <0>         0.0538
     24 H4         -3.7762    4.1101    1.4231 H         1 <0>         0.1028
     25 H5         -5.2574    1.4342   -0.0557 H         1 <0>         0.1291
     26 H6         -5.6428   -0.5986   -1.3887 H         1 <0>         0.1271
     27 H7         -3.7877   -1.6199   -2.6434 H         1 <0>         0.1269
     28 H8         -1.5462   -0.6059   -2.5760 H         1 <0>         0.1304
     29 H9         -0.8516    2.6816   -1.1712 H         1 <0>         0.0832
     30 H10        -0.2097    1.3222   -2.1242 H         1 <0>         0.0821
     31 H11         1.8824    1.4198   -0.9711 H         1 <0>         0.0961
     32 H12         1.4164    2.6948    0.1828 H         1 <0>         0.0821
     33 H13         2.3547   -0.1340    0.8208 H         1 <0>         0.1177
     34 H14         3.1884    1.3869    1.2040 H         1 <0>         0.1092
     35 H15         3.2477    0.3308    5.7744 H         1 <0>         0.4296
     36 H16         1.8797    0.5695    6.7202 H         1 <0>         0.4419
     37 H17        -2.2229    1.6486    4.7524 H         1 <0>         0.4277
     38 H18        -2.3431    1.8040    3.0838 H         1 <0>         0.4308
     39 H19        -0.8623    2.6591    1.2029 H         1 <0>         0.1046
     40 H20        -1.6691    1.0866    1.3796 H         1 <0>         0.0875
     41 N4          2.2274    0.7306    3.5230 N.ar      1 <0>        -0.6008
     42 H21         3.2001    0.5166    3.4335 H         1 <0>         0.4575
@<TRIPOS>BOND
     1    1    2 1
     2    1   22 1
     3    1   23 1
     4    1   24 1
     5    2    3 1
     6    3    8 ar
     7    3    4 ar
     8    4    5 ar
     9    4   25 1
    10    5    6 ar
    11    5   26 1
    12    6    7 ar
    13    6   27 1
    14    7    8 ar
    15    7   28 1
    16    8    9 1
    17    9   10 1
    18    9   29 1
    19    9   30 1
    20   10   11 1
    21   10   21 1
    22   10   12 1
    23   12   13 1
    24   12   31 1
    25   12   32 1
    26   13   14 1
    27   13   33 1
    28   13   34 1
    29   14   15 ar
    30   14   41 ar
    31   15   16 ar
    32   15   21 1
    33   16   17 ar
    34   16   20 1
    35   17   18 ar
    36   18   19 1
    37   18   41 ar
    38   19   35 1
    39   19   36 1
    40   20   37 1
    41   20   38 1
    42   21   39 1
    43   21   40 1
    44   41   42 1
@<TRIPOS>MOLECULE
ZINC00023462
   42    44     0     0     0
SMALL
USER_CHARGES

@<TRIPOS>ATOM
      1 C1         -4.0723    3.2482    0.8812 C.3       1 <0>         0.0179
      2 O1         -2.9549    2.7028    0.1769 O.3       1 <0>        -0.3171
      3 C2         -3.1773    1.5835   -0.5611 C.ar      1 <0>         0.1196
      4 C3         -4.4450    1.0213   -0.6060 C.ar      1 <0>        -0.2057
      5 C4         -4.6684   -0.1166   -1.3564 C.ar      1 <0>        -0.0811
      6 C5         -3.6297   -0.6957   -2.0622 C.ar      1 <0>        -0.1482
      7 C6         -2.3670   -0.1342   -2.0236 C.ar      1 <0>        -0.0782
      8 C7         -2.1372    1.0010   -1.2703 C.ar      1 <0>        -0.1170
      9 C8         -0.7592    1.6093   -1.2242 C.3       1 <0>        -0.0674
     10 C9         -0.0141    1.0914    0.0077 C.3       1 <0>        -0.0794
     11 H1         -0.0062    0.0014   -0.0003 H         1 <0>         0.0821
     12 C10         1.4261    1.6173   -0.0023 C.3       1 <0>        -0.1210
     13 C11         2.2114    0.9018    1.0955 C.3       1 <0>        -0.0900
     14 C12         1.4744    0.9771    2.4052 C.ar      1 <0>         0.2758
     15 C13         0.1388    1.2866    2.4860 C.ar      1 <0>        -0.2365
     16 C14        -0.4633    1.3280    3.7499 C.ar      1 <0>         0.5061
     17 N1          0.2701    1.0713    4.8265 N.ar      1 <0>        -0.5764
     18 C15         1.5565    0.7789    4.7075 C.ar      1 <0>         0.6129
     19 N2          2.2982    0.5178    5.8464 N.pl3     1 <0>        -0.7935
     20 N3         -1.8106    1.6256    3.8746 N.pl3     1 <0>        -0.8036
     21 C16        -0.7043    1.5829    1.2768 C.3       1 <0>        -0.0596
     22 H2         -4.8540    3.5164    0.1705 H         1 <0>         0.0624
     23 H3         -4.4570    2.5071    1.5818 H         1 <0>         0.0518
     24 H4         -3.7582    4.1370    1.4285 H         1 <0>         0.1017
     25 H5         -5.2565    1.4732   -0.0550 H         1 <0>         0.1280
     26 H6         -5.6549   -0.5546   -1.3917 H         1 <0>         0.1266
     27 H7         -3.8064   -1.5854   -2.6484 H         1 <0>         0.1270
     28 H8         -1.5585   -0.5858   -2.5793 H         1 <0>         0.1314
     29 H9         -0.8429    2.6946   -1.1686 H         1 <0>         0.0827
     30 H10        -0.2097    1.3329   -2.1241 H         1 <0>         0.0828
     31 H11         1.8830    1.4151   -0.9710 H         1 <0>         0.0936
     32 H12         1.4252    2.6910    0.1853 H         1 <0>         0.0786
     33 H13         2.3467   -0.1435    0.8177 H         1 <0>         0.1162
     34 H14         3.1888    1.3718    1.2045 H         1 <0>         0.1135
     35 H15         3.2416    0.3044    5.7724 H         1 <0>         0.4468
     36 H16         1.8748    0.5483    6.7186 H         1 <0>         0.4244
     37 H17        -2.2220    1.6525    4.7527 H         1 <0>         0.4229
     38 H18        -2.3424    1.8072    3.0840 H         1 <0>         0.4421
     39 H19        -0.8616    2.6588    1.2020 H         1 <0>         0.1005
     40 H20        -1.6695    1.0870    1.3802 H         1 <0>         0.0815
     41 N4          2.2240    0.7156    3.5219 N.ar      1 <0>        -0.5013
     42 H21        -0.1541    1.1013    5.7315 H         1 <0>         0.4467
@<TRIPOS>BOND
     1    1    2 1
     2    1   22 1
     3    1   23 1
     4    1   24 1
     5    2    3 1
     6    3    8 ar
     7    3    4 ar
     8    4    5 ar
     9    4   25 1
    10    5    6 ar
    11    5   26 1
    12    6    7 ar
    13    6   27 1
    14    7    8 ar
    15    7   28 1
    16    8    9 1
    17    9   10 1
    18    9   29 1
    19    9   30 1
    20   10   11 1
    21   10   21 1
    22   10   12 1
    23   12   13 1
    24   12   31 1
    25   12   32 1
    26   13   14 1
    27   13   33 1
    28   13   34 1
    29   14   41 ar
    30   14   15 ar
    31   15   21 1
    32   15   16 ar
    33   16   20 1
    34   16   17 ar
    35   17   42 1
    36   17   18 ar
    37   18   19 1
    38   18   41 ar
    39   19   35 1
    40   19   36 1
    41   20   37 1
    42   20   38 1
    43   21   39 1
    44   21   40 1
@<TRIPOS>MOLECULE
ZINC00023463
   45    47     0     0     0
SMALL
USER_CHARGES

@<TRIPOS>ATOM
      1 C1         -2.6035    3.1763    4.5215 C.3       1 <0>         0.0262
      2 O1         -1.9566    2.5733    3.3990 O.3       1 <0>        -0.3078
      3 C2         -1.4316    3.4114    2.4654 C.ar      1 <0>         0.0942
      4 C3         -1.5318    4.7836    2.6294 C.ar      1 <0>        -0.1693
      5 C4         -1.0026    5.6341    1.6766 C.ar      1 <0>        -0.1127
      6 C5         -0.3676    5.1187    0.5619 C.ar      1 <0>        -0.0754
      7 C6         -0.2592    3.7507    0.3951 C.ar      1 <0>        -0.1708
      8 C7         -0.7875    2.8927    1.3463 C.ar      1 <0>         0.1005
      9 O2         -0.6816    1.5467    1.1837 O.3       1 <0>        -0.3062
     10 C8         -0.0127    1.0858    0.0080 C.3       1 <0>         0.0262
     11 C9          0.2079    6.0503   -0.4735 C.3       1 <0>        -0.0730
     12 C10        -0.8530    6.3526   -1.5336 C.3       1 <0>        -0.0796
     13 H1         -1.7535    6.7340   -1.0524 H         1 <0>         0.0779
     14 C11        -0.3140    7.3960   -2.5192 C.3       1 <0>        -0.1129
     15 C12        -1.4620    7.8509   -3.4191 C.3       1 <0>        -0.0706
     16 C13        -2.1673    6.6624   -4.0142 C.ar      1 <0>         0.2479
     17 C14        -2.0427    5.3946   -3.5010 C.ar      1 <0>        -0.2984
     18 C15        -2.7434    4.3508   -4.1183 C.ar      1 <0>         0.4807
     19 N1         -3.5000    4.6145   -5.1771 N.ar      1 <0>        -0.6302
     20 C16        -3.5917    5.8503   -5.6447 C.ar      1 <0>         0.6028
     21 N2         -2.9420    6.8543   -5.0791 N.ar      1 <0>        -0.6109
     22 N3         -4.3855    6.0969   -6.7512 N.pl3     1 <0>        -0.8233
     23 N4         -2.6478    3.0578   -3.6301 N.pl3     1 <0>        -0.8351
     24 C17        -1.1808    5.0779   -2.3103 C.3       1 <0>        -0.0490
     25 H2         -2.9762    2.3979    5.1873 H         1 <0>         0.1007
     26 H3         -1.8910    3.8029    5.0580 H         1 <0>         0.0549
     27 H4         -3.4366    3.7880    4.1754 H         1 <0>         0.0546
     28 H5         -2.0273    5.1888    3.4993 H         1 <0>         0.1345
     29 H6         -1.0856    6.7034    1.8031 H         1 <0>         0.1270
     30 H7          0.2370    3.3506   -0.4768 H         1 <0>         0.1340
     31 H8          0.0021   -0.0041    0.0020 H         1 <0>         0.1010
     32 H9          1.0099    1.4631    0.0003 H         1 <0>         0.0555
     33 H10        -0.5399    1.4469   -0.8751 H         1 <0>         0.0521
     34 H11         0.5178    6.9790    0.0056 H         1 <0>         0.0784
     35 H12         1.0703    5.5800   -0.9461 H         1 <0>         0.0741
     36 H13         0.0806    8.2502   -1.9689 H         1 <0>         0.0769
     37 H14         0.4769    6.9536   -3.1249 H         1 <0>         0.0693
     38 H15        -2.1713    8.4337   -2.8314 H         1 <0>         0.0893
     39 H16        -1.0660    8.4737   -4.2213 H         1 <0>         0.0898
     40 H17        -4.4605    6.9977   -7.1032 H         1 <0>         0.4144
     41 H18        -4.8669    5.3690   -7.1747 H         1 <0>         0.4124
     42 H19        -3.1352    2.3390   -4.0621 H         1 <0>         0.4064
     43 H20        -2.0935    2.8714   -2.8563 H         1 <0>         0.4101
     44 H21        -0.2544    4.6141   -2.6491 H         1 <0>         0.0668
     45 H22        -1.7097    4.3839   -1.6570 H         1 <0>         0.0667
@<TRIPOS>BOND
     1    1    2 1
     2    1   25 1
     3    1   26 1
     4    1   27 1
     5    2    3 1
     6    3    8 ar
     7    3    4 ar
     8    4    5 ar
     9    4   28 1
    10    5    6 ar
    11    5   29 1
    12    6    7 ar
    13    6   11 1
    14    7    8 ar
    15    7   30 1
    16    8    9 1
    17    9   10 1
    18   10   31 1
    19   10   32 1
    20   10   33 1
    21   11   12 1
    22   11   34 1
    23   11   35 1
    24   12   13 1
    25   12   24 1
    26   12   14 1
    27   14   15 1
    28   14   36 1
    29   14   37 1
    30   15   16 1
    31   15   38 1
    32   15   39 1
    33   16   21 ar
    34   16   17 ar
    35   17   18 ar
    36   17   24 1
    37   18   19 ar
    38   18   23 1
    39   19   20 ar
    40   20   21 ar
    41   20   22 1
    42   22   40 1
    43   22   41 1
    44   23   42 1
    45   23   43 1
    46   24   44 1
    47   24   45 1
@<TRIPOS>MOLECULE
ZINC00023463
   46    48     0     0     0
SMALL
USER_CHARGES

@<TRIPOS>ATOM
      1 C1         -2.6035    3.1763    4.5215 C.3       1 <0>         0.0245
      2 O1         -1.9566    2.5733    3.3990 O.3       1 <0>        -0.3055
      3 C2         -1.4316    3.4114    2.4654 C.ar      1 <0>         0.1024
      4 C3         -1.5318    4.7836    2.6294 C.ar      1 <0>        -0.1687
      5 C4         -1.0026    5.6341    1.6766 C.ar      1 <0>        -0.1094
      6 C5         -0.3676    5.1187    0.5619 C.ar      1 <0>        -0.0891
      7 C6         -0.2592    3.7507    0.3951 C.ar      1 <0>        -0.1768
      8 C7         -0.7875    2.8927    1.3463 C.ar      1 <0>         0.1010
      9 O2         -0.6816    1.5467    1.1837 O.3       1 <0>        -0.3033
     10 C8         -0.0127    1.0858    0.0080 C.3       1 <0>         0.0268
     11 C9          0.2079    6.0503   -0.4735 C.3       1 <0>        -0.0719
     12 C10        -0.8530    6.3526   -1.5336 C.3       1 <0>        -0.0832
     13 H1         -1.7535    6.7340   -1.0524 H         1 <0>         0.0877
     14 C11        -0.3140    7.3960   -2.5192 C.3       1 <0>        -0.1170
     15 C12        -1.4620    7.8509   -3.4191 C.3       1 <0>        -0.1065
     16 C13        -2.1673    6.6624   -4.0142 C.ar      1 <0>         0.2368
     17 C14        -2.0427    5.3946   -3.5010 C.ar      1 <0>        -0.2165
     18 C15        -2.7434    4.3508   -4.1183 C.ar      1 <0>         0.5345
     19 N1         -3.5000    4.6145   -5.1771 N.ar      1 <0>        -0.5706
     20 C16        -3.5917    5.8503   -5.6447 C.ar      1 <0>         0.6715
     21 N2         -4.3855    6.0969   -6.7512 N.pl3     1 <0>        -0.7931
     22 N3         -2.6478    3.0578   -3.6301 N.pl3     1 <0>        -0.7762
     23 C17        -1.1808    5.0779   -2.3103 C.3       1 <0>        -0.0718
     24 H2         -2.9762    2.3979    5.1873 H         1 <0>         0.1047
     25 H3         -1.8910    3.8029    5.0580 H         1 <0>         0.0577
     26 H4         -3.4366    3.7880    4.1754 H         1 <0>         0.0558
     27 H5         -2.0273    5.1888    3.4993 H         1 <0>         0.1376
     28 H6         -1.0856    6.7034    1.8031 H         1 <0>         0.1279
     29 H7          0.2370    3.3506   -0.4768 H         1 <0>         0.1330
     30 H8          0.0021   -0.0041    0.0020 H         1 <0>         0.1042
     31 H9          1.0099    1.4631    0.0003 H         1 <0>         0.0575
     32 H10        -0.5399    1.4469   -0.8751 H         1 <0>         0.0469
     33 H11         0.5178    6.9790    0.0056 H         1 <0>         0.0857
     34 H12         1.0703    5.5800   -0.9461 H         1 <0>         0.0790
     35 H13         0.0806    8.2502   -1.9689 H         1 <0>         0.0973
     36 H14         0.4769    6.9536   -3.1249 H         1 <0>         0.0821
     37 H15        -2.1713    8.4337   -2.8314 H         1 <0>         0.1187
     38 H16        -1.0660    8.4737   -4.2213 H         1 <0>         0.1099
     39 H17        -4.4605    6.9977   -7.1032 H         1 <0>         0.4299
     40 H18        -4.8669    5.3690   -7.1747 H         1 <0>         0.4424
     41 H19        -3.1352    2.3390   -4.0621 H         1 <0>         0.4290
     42 H20        -2.0935    2.8714   -2.8563 H         1 <0>         0.4307
     43 H21        -0.2544    4.6141   -2.6491 H         1 <0>         0.0961
     44 H22        -1.7097    4.3839   -1.6570 H         1 <0>         0.0917
     45 N4         -2.9492    6.9249   -5.1083 N.ar      1 <0>        -0.6012
     46 H23        -3.0185    7.8580   -5.4611 H         1 <0>         0.4580
@<TRIPOS>BOND
     1    1    2 1
     2    1   24 1
     3    1   25 1
     4    1   26 1
     5    2    3 1
     6    3    8 ar
     7    3    4 ar
     8    4    5 ar
     9    4   27 1
    10    5    6 ar
    11    5   28 1
    12    6    7 ar
    13    6   11 1
    14    7    8 ar
    15    7   29 1
    16    8    9 1
    17    9   10 1
    18   10   30 1
    19   10   31 1
    20   10   32 1
    21   11   12 1
    22   11   33 1
    23   11   34 1
    24   12   13 1
    25   12   23 1
    26   12   14 1
    27   14   15 1
    28   14   35 1
    29   14   36 1
    30   15   16 1
    31   15   37 1
    32   15   38 1
    33   16   17 ar
    34   16   45 ar
    35   17   18 ar
    36   17   23 1
    37   18   19 ar
    38   18   22 1
    39   19   20 ar
    40   20   21 1
    41   20   45 ar
    42   21   39 1
    43   21   40 1
    44   22   41 1
    45   22   42 1
    46   23   43 1
    47   23   44 1
    48   45   46 1
@<TRIPOS>MOLECULE
ZINC00023463
   46    48     0     0     0
SMALL
USER_CHARGES

@<TRIPOS>ATOM
      1 C1         -2.5622    3.1451    4.5154 C.3       1 <0>         0.0245
      2 O1         -1.9178    2.5485    3.3881 O.3       1 <0>        -0.3062
      3 C2         -1.3996    3.3919    2.4554 C.ar      1 <0>         0.1012
      4 C3         -1.5041    4.7631    2.6248 C.ar      1 <0>        -0.1682
      5 C4         -0.9819    5.6190    1.6730 C.ar      1 <0>        -0.1087
      6 C5         -0.3496    5.1099    0.5538 C.ar      1 <0>        -0.0870
      7 C6         -0.2370    3.7429    0.3815 C.ar      1 <0>        -0.1772
      8 C7         -0.7583    2.8796    1.3318 C.ar      1 <0>         0.0992
      9 O2         -0.6483    1.5346    1.1638 O.3       1 <0>        -0.3038
     10 C8          0.0174    1.0804   -0.0163 C.3       1 <0>         0.0276
     11 C9          0.2182    6.0473   -0.4806 C.3       1 <0>        -0.0725
     12 C10        -0.8481    6.3497   -1.5352 C.3       1 <0>        -0.0814
     13 H1         -1.7480    6.7261   -1.0489 H         1 <0>         0.0866
     14 C11        -0.3169    7.3986   -2.5192 C.3       1 <0>        -0.1213
     15 C12        -1.4693    7.8524   -3.4134 C.3       1 <0>        -0.0906
     16 C13        -2.1737    6.6638   -4.0092 C.ar      1 <0>         0.2783
     17 C14        -2.0425    5.3946   -3.5012 C.ar      1 <0>        -0.2397
     18 C15        -2.7417    4.3504   -4.1196 C.ar      1 <0>         0.5081
     19 N1         -3.5039    4.6153   -5.1741 N.ar      1 <0>        -0.5768
     20 C16        -3.6028    5.8527   -5.6361 C.ar      1 <0>         0.6147
     21 N2         -4.4024    6.1005   -6.7382 N.pl3     1 <0>        -0.7923
     22 N3         -2.6452    3.0572   -3.6321 N.pl3     1 <0>        -0.8024
     23 C17        -1.1809    5.0779   -2.3102 C.3       1 <0>        -0.0659
     24 H2         -2.9293    2.3629    5.1799 H         1 <0>         0.1045
     25 H3         -1.8497    3.7723    5.0513 H         1 <0>         0.0579
     26 H4         -3.3989    3.7551    4.1750 H         1 <0>         0.0557
     27 H5         -1.9974    5.1634    3.4982 H         1 <0>         0.1377
     28 H6         -1.0682    6.6875    1.8037 H         1 <0>         0.1289
     29 H7          0.2570    3.3478   -0.4939 H         1 <0>         0.1324
     30 H8          0.0361   -0.0095   -0.0263 H         1 <0>         0.1034
     31 H9          1.0386    1.4614   -0.0268 H         1 <0>         0.0578
     32 H10        -0.5147    1.4428   -0.8959 H         1 <0>         0.0451
     33 H11         0.5268    6.9754    0.0006 H         1 <0>         0.0864
     34 H12         1.0804    5.5819   -0.9584 H         1 <0>         0.0784
     35 H13         0.0769    8.2522   -1.9674 H         1 <0>         0.0947
     36 H14         0.4730    6.9612   -3.1298 H         1 <0>         0.0785
     37 H15        -2.1777    8.4314   -2.8209 H         1 <0>         0.1170
     38 H16        -1.0785    8.4788   -4.2154 H         1 <0>         0.1141
     39 H17        -4.4815    7.0022   -7.0870 H         1 <0>         0.4472
     40 H18        -4.8838    5.3726   -7.1617 H         1 <0>         0.4249
     41 H19        -3.1320    2.3383   -4.0645 H         1 <0>         0.4242
     42 H20        -2.0909    2.8708   -2.8583 H         1 <0>         0.4420
     43 H21        -0.2539    4.6151   -2.6488 H         1 <0>         0.0915
     44 H22        -1.7095    4.3831   -1.6575 H         1 <0>         0.0857
     45 N4         -2.9611    6.9274   -5.0991 N.ar      1 <0>        -0.5016
     46 H23        -4.0037    3.8733   -5.6208 H         1 <0>         0.4475
@<TRIPOS>BOND
     1    1    2 1
     2    1   24 1
     3    1   25 1
     4    1   26 1
     5    2    3 1
     6    3    8 ar
     7    3    4 ar
     8    4    5 ar
     9    4   27 1
    10    5    6 ar
    11    5   28 1
    12    6    7 ar
    13    6   11 1
    14    7    8 ar
    15    7   29 1
    16    8    9 1
    17    9   10 1
    18   10   30 1
    19   10   31 1
    20   10   32 1
    21   11   12 1
    22   11   33 1
    23   11   34 1
    24   12   13 1
    25   12   23 1
    26   12   14 1
    27   14   15 1
    28   14   35 1
    29   14   36 1
    30   15   16 1
    31   15   37 1
    32   15   38 1
    33   16   45 ar
    34   16   17 ar
    35   17   23 1
    36   17   18 ar
    37   18   22 1
    38   18   19 ar
    39   19   46 1
    40   19   20 ar
    41   20   21 1
    42   20   45 ar
    43   21   39 1
    44   21   40 1
    45   22   41 1
    46   22   42 1
    47   23   43 1
    48   23   44 1
@<TRIPOS>MOLECULE
ZINC00591054
   48    50     0     0     0
SMALL
USER_CHARGES

@<TRIPOS>ATOM
      1 C1         -2.2927   -0.3706    0.0118 C.3       1 <0>         0.0208
      2 O1         -2.3869    1.0552    0.0195 O.3       1 <0>        -0.2978
      3 C2         -1.2184    1.7512    0.0173 C.ar      1 <0>         0.1390
      4 C3         -0.0126    1.0758    0.0080 C.ar      1 <0>        -0.1693
      5 C4          1.1878    1.7917    0.0003 C.ar      1 <0>        -0.0539
      6 C5          1.1651    3.1891    0.0076 C.ar      1 <0>        -0.1758
      7 C6         -0.0436    3.8592    0.0222 C.ar      1 <0>         0.1374
      8 C7         -1.2380    3.1435    0.0293 C.ar      1 <0>         0.0664
      9 O2         -2.4249    3.8049    0.0437 O.3       1 <0>        -0.3120
     10 C8         -3.0032    4.1275   -1.2225 C.3       1 <0>         0.0355
     11 O3         -0.0664    5.2191    0.0293 O.3       1 <0>        -0.2984
     12 C9          1.1957    5.8891    0.0209 C.3       1 <0>         0.0214
     13 C10         2.4760    1.0738   -0.0148 C.2       1 <0>         0.5122
     14 O4          2.4944   -0.1411   -0.0207 O.2       1 <0>        -0.4976
     15 O5          3.6325    1.7652   -0.0221 O.3       1 <0>        -0.3459
     16 C11         4.8621    0.9930   -0.0370 C.3       1 <0>         0.1143
     17 C12         6.0431    1.9291   -0.0434 C.ar      1 <0>        -0.1386
     18 C13         6.5736    2.3567   -1.2571 C.ar      1 <0>        -0.0415
     19 C14         7.6383    3.2072   -1.2976 C.ar      1 <0>        -0.1278
     20 C15         8.2158    3.6506   -0.0999 C.ar      1 <0>         0.2471
     21 C16         7.6778    3.2101    1.1337 C.ar      1 <0>        -0.2448
     22 C17         6.5812    2.3415    1.1403 C.ar      1 <0>        -0.0200
     23 C18         8.2780    3.6719    2.3317 C.ar      1 <0>         0.5172
     24 N1          9.3133    4.4936    2.2397 N.ar      1 <0>        -0.6361
     25 C19         9.7871    4.8827    1.0595 C.ar      1 <0>         0.6185
     26 N2          9.2666    4.4839   -0.0855 N.ar      1 <0>        -0.6120
     27 N3         10.8706    5.7419    1.0311 N.pl3     1 <0>        -0.8170
     28 N4          7.7965    3.2767    3.5613 N.pl3     1 <0>        -0.8179
     29 H1         -3.2942   -0.8009    0.0145 H         1 <0>         0.1072
     30 H2         -1.7605   -0.6948   -0.8825 H         1 <0>         0.0602
     31 H3         -1.7517   -0.7039    0.8975 H         1 <0>         0.0612
     32 H4          0.0021   -0.0041    0.0020 H         1 <0>         0.1519
     33 H5          2.0912    3.7447    0.0014 H         1 <0>         0.1521
     34 H6         -3.9458    4.6527   -1.0683 H         1 <0>         0.0967
     35 H7         -2.3192    4.7653   -1.7824 H         1 <0>         0.0474
     36 H8         -3.1857    3.2105   -1.7828 H         1 <0>         0.0475
     37 H9          1.7659    5.6012    0.9041 H         1 <0>         0.0604
     38 H10         1.7492    5.6101   -0.8757 H         1 <0>         0.0604
     39 H11         1.0348    6.9672    0.0278 H         1 <0>         0.1065
     40 H12         4.9046    0.3605    0.8497 H         1 <0>         0.0819
     41 H13         4.8883    0.3689   -0.9302 H         1 <0>         0.0847
     42 H14         6.1323    2.0128   -2.1809 H         1 <0>         0.1329
     43 H15         8.0372    3.5337   -2.2466 H         1 <0>         0.1410
     44 H16         6.1639    1.9995    2.0759 H         1 <0>         0.1253
     45 H17        11.2687    6.0479    1.8610 H         1 <0>         0.4137
     46 H18        11.2324    6.0384    0.1814 H         1 <0>         0.4167
     47 H19         7.0376    2.6749    3.6144 H         1 <0>         0.4146
     48 H20         8.2166    3.6003    4.3735 H         1 <0>         0.4138
@<TRIPOS>BOND
     1    1    2 1
     2    1   29 1
     3    1   30 1
     4    1   31 1
     5    2    3 1
     6    3    8 ar
     7    3    4 ar
     8    4    5 ar
     9    4   32 1
    10    5    6 ar
    11    5   13 1
    12    6    7 ar
    13    6   33 1
    14    7    8 ar
    15    7   11 1
    16    8    9 1
    17    9   10 1
    18   10   34 1
    19   10   35 1
    20   10   36 1
    21   11   12 1
    22   12   37 1
    23   12   38 1
    24   12   39 1
    25   13   14 2
    26   13   15 1
    27   15   16 1
    28   16   17 1
    29   16   40 1
    30   16   41 1
    31   17   22 ar
    32   17   18 ar
    33   18   19 ar
    34   18   42 1
    35   19   20 ar
    36   19   43 1
    37   20   26 ar
    38   20   21 ar
    39   21   22 ar
    40   21   23 ar
    41   22   44 1
    42   23   24 ar
    43   23   28 1
    44   24   25 ar
    45   25   26 ar
    46   25   27 1
    47   27   45 1
    48   27   46 1
    49   28   47 1
    50   28   48 1
@<TRIPOS>MOLECULE
ZINC00591054
   49    51     0     0     0
SMALL
USER_CHARGES

@<TRIPOS>ATOM
      1 C1         -2.2922   -0.3702    0.0126 C.3       1 <0>         0.0200
      2 O1         -2.3861    1.0556    0.0205 O.3       1 <0>        -0.2953
      3 C2         -1.2174    1.7514    0.0183 C.ar      1 <0>         0.1417
      4 C3         -0.0118    1.0758    0.0087 C.ar      1 <0>        -0.1663
      5 C4          1.1888    1.7914    0.0010 C.ar      1 <0>        -0.0599
      6 C5          1.1663    3.1888    0.0085 C.ar      1 <0>        -0.1782
      7 C6         -0.0422    3.8592    0.0234 C.ar      1 <0>         0.1364
      8 C7         -1.2368    3.1437    0.0305 C.ar      1 <0>         0.0726
      9 O2         -2.4235    3.8053    0.0452 O.3       1 <0>        -0.3119
     10 C8         -3.0019    4.1283   -1.2208 C.3       1 <0>         0.0354
     11 O3         -0.0647    5.2191    0.0307 O.3       1 <0>        -0.2961
     12 C9          1.1975    5.8888    0.0223 C.3       1 <0>         0.0232
     13 C10         2.4768    1.0733   -0.0145 C.2       1 <0>         0.5170
     14 O4          2.4950   -0.1416   -0.0206 O.2       1 <0>        -0.4894
     15 O5          3.6335    1.7644   -0.0218 O.3       1 <0>        -0.3491
     16 C11         4.8629    0.9920   -0.0370 C.3       1 <0>         0.1009
     17 C12         6.0441    1.9279   -0.0434 C.ar      1 <0>        -0.0954
     18 C13         6.5745    2.3556   -1.2571 C.ar      1 <0>        -0.0034
     19 C14         7.6400    3.2050   -1.2976 C.ar      1 <0>        -0.1178
     20 C15         8.2171    3.6489   -0.0999 C.ar      1 <0>         0.2247
     21 C16         7.6792    3.2083    1.1337 C.ar      1 <0>        -0.2093
     22 C17         6.5830    2.3392    1.1403 C.ar      1 <0>        -0.0217
     23 C18         8.2793    3.6703    2.3317 C.ar      1 <0>         0.5656
     24 N1          9.3151    4.4913    2.2397 N.ar      1 <0>        -0.5801
     25 C19         9.7882    4.8813    1.0595 C.ar      1 <0>         0.6033
     26 N2         10.8722    5.7398    1.0311 N.pl3     1 <0>        -0.7985
     27 N3          7.7985    3.2742    3.5613 N.pl3     1 <0>        -0.7803
     28 H1         -3.2938   -0.8003    0.0153 H         1 <0>         0.1102
     29 H2         -1.7602   -0.6943   -0.8819 H         1 <0>         0.0611
     30 H3         -1.7511   -0.7037    0.8981 H         1 <0>         0.0617
     31 H4          0.0027   -0.0041    0.0025 H         1 <0>         0.1532
     32 H5          2.0926    3.7442    0.0023 H         1 <0>         0.1489
     33 H6         -3.9444    4.6536   -1.0664 H         1 <0>         0.0996
     34 H7         -2.3179    4.7660   -1.7807 H         1 <0>         0.0481
     35 H8         -3.1847    3.2114   -1.7813 H         1 <0>         0.0492
     36 H9          1.7678    5.6006    0.9053 H         1 <0>         0.0570
     37 H10         1.7508    5.6099   -0.8745 H         1 <0>         0.0588
     38 H11         1.0368    6.9670    0.0294 H         1 <0>         0.1070
     39 H12         4.9054    0.3593    0.8496 H         1 <0>         0.0915
     40 H13         4.8888    0.3680   -0.9303 H         1 <0>         0.0960
     41 H14         6.1330    2.0119   -2.1809 H         1 <0>         0.1557
     42 H15         8.0394    3.5310   -2.2466 H         1 <0>         0.1632
     43 H16         6.1662    1.9966    2.0759 H         1 <0>         0.1454
     44 H17        11.2703    6.0459    1.8610 H         1 <0>         0.4226
     45 H18        11.2344    6.0358    0.1814 H         1 <0>         0.4461
     46 H19         7.0396    2.6724    3.6144 H         1 <0>         0.4464
     47 H20         8.2190    3.5973    4.3735 H         1 <0>         0.4318
     48 N4          9.2962    4.5051   -0.1469 N.ar      1 <0>        -0.4898
     49 H21         9.7435    4.8171    3.0825 H         1 <0>         0.4483
@<TRIPOS>BOND
     1    1    2 1
     2    1   28 1
     3    1   29 1
     4    1   30 1
     5    2    3 1
     6    3    8 ar
     7    3    4 ar
     8    4    5 ar
     9    4   31 1
    10    5    6 ar
    11    5   13 1
    12    6    7 ar
    13    6   32 1
    14    7    8 ar
    15    7   11 1
    16    8    9 1
    17    9   10 1
    18   10   33 1
    19   10   34 1
    20   10   35 1
    21   11   12 1
    22   12   36 1
    23   12   37 1
    24   12   38 1
    25   13   14 2
    26   13   15 1
    27   15   16 1
    28   16   17 1
    29   16   39 1
    30   16   40 1
    31   17   22 ar
    32   17   18 ar
    33   18   19 ar
    34   18   41 1
    35   19   20 ar
    36   19   42 1
    37   20   48 ar
    38   20   21 ar
    39   21   22 ar
    40   21   23 ar
    41   22   43 1
    42   23   27 1
    43   23   24 ar
    44   24   49 1
    45   24   25 ar
    46   25   26 1
    47   25   48 ar
    48   26   44 1
    49   26   45 1
    50   27   46 1
    51   27   47 1
@<TRIPOS>MOLECULE
ZINC00591054
   49    51     0     0     0
SMALL
USER_CHARGES

@<TRIPOS>ATOM
      1 C1         -2.2927   -0.3706    0.0118 C.3       1 <0>         0.0199
      2 O1         -2.3869    1.0552    0.0195 O.3       1 <0>        -0.2951
      3 C2         -1.2184    1.7512    0.0173 C.ar      1 <0>         0.1419
      4 C3         -0.0126    1.0758    0.0080 C.ar      1 <0>        -0.1661
      5 C4          1.1878    1.7917    0.0003 C.ar      1 <0>        -0.0602
      6 C5          1.1651    3.1891    0.0076 C.ar      1 <0>        -0.1783
      7 C6         -0.0436    3.8592    0.0222 C.ar      1 <0>         0.1365
      8 C7         -1.2380    3.1435    0.0293 C.ar      1 <0>         0.0729
      9 O2         -2.4249    3.8049    0.0437 O.3       1 <0>        -0.3116
     10 C8         -3.0032    4.1275   -1.2225 C.3       1 <0>         0.0355
     11 O3         -0.0664    5.2191    0.0293 O.3       1 <0>        -0.2959
     12 C9          1.1957    5.8891    0.0209 C.3       1 <0>         0.0233
     13 C10         2.4760    1.0738   -0.0148 C.2       1 <0>         0.5174
     14 O4          2.4944   -0.1411   -0.0207 O.2       1 <0>        -0.4887
     15 O5          3.6325    1.7652   -0.0221 O.3       1 <0>        -0.3493
     16 C11         4.8621    0.9930   -0.0370 C.3       1 <0>         0.0995
     17 C12         6.0431    1.9291   -0.0434 C.ar      1 <0>        -0.0961
     18 C13         6.5736    2.3567   -1.2571 C.ar      1 <0>         0.0005
     19 C14         7.6383    3.2072   -1.2976 C.ar      1 <0>        -0.1476
     20 C15         8.2158    3.6506   -0.0999 C.ar      1 <0>         0.2080
     21 C16         7.6778    3.2101    1.1337 C.ar      1 <0>        -0.1908
     22 C17         6.5812    2.3415    1.1403 C.ar      1 <0>        -0.0104
     23 C18         8.2780    3.6719    2.3317 C.ar      1 <0>         0.5666
     24 N1          9.3133    4.4936    2.2397 N.ar      1 <0>        -0.5880
     25 C19         9.7871    4.8827    1.0595 C.ar      1 <0>         0.6988
     26 N2         10.8706    5.7419    1.0311 N.pl3     1 <0>        -0.7866
     27 N3          7.7965    3.2767    3.5613 N.pl3     1 <0>        -0.7630
     28 H1         -3.2942   -0.8009    0.0145 H         1 <0>         0.1103
     29 H2         -1.7605   -0.6948   -0.8825 H         1 <0>         0.0610
     30 H3         -1.7517   -0.7039    0.8975 H         1 <0>         0.0619
     31 H4          0.0021   -0.0041    0.0020 H         1 <0>         0.1533
     32 H5          2.0912    3.7447    0.0014 H         1 <0>         0.1486
     33 H6         -3.9458    4.6527   -1.0683 H         1 <0>         0.0997
     34 H7         -2.3192    4.7653   -1.7824 H         1 <0>         0.0478
     35 H8         -3.1857    3.2105   -1.7828 H         1 <0>         0.0492
     36 H9          1.7659    5.6012    0.9041 H         1 <0>         0.0577
     37 H10         1.7492    5.6101   -0.8757 H         1 <0>         0.0578
     38 H11         1.0348    6.9672    0.0278 H         1 <0>         0.1071
     39 H12         4.9046    0.3605    0.8497 H         1 <0>         0.0936
     40 H13         4.8883    0.3689   -0.9302 H         1 <0>         0.0961
     41 H14         6.1323    2.0128   -2.1809 H         1 <0>         0.1577
     42 H15         8.0372    3.5337   -2.2466 H         1 <0>         0.1613
     43 H16         6.1639    1.9995    2.0759 H         1 <0>         0.1526
     44 H17        11.2687    6.0479    1.8610 H         1 <0>         0.4432
     45 H18        11.2324    6.0384    0.1814 H         1 <0>         0.4313
     46 H19         7.0376    2.6749    3.6144 H         1 <0>         0.4327
     47 H20         8.2166    3.6003    4.3735 H         1 <0>         0.4341
     48 N4          9.2947    4.5070   -0.1469 N.ar      1 <0>        -0.6084
     49 H21         9.6578    4.8058   -1.0294 H         1 <0>         0.4584
@<TRIPOS>BOND
     1    1    2 1
     2    1   28 1
     3    1   29 1
     4    1   30 1
     5    2    3 1
     6    3    8 ar
     7    3    4 ar
     8    4    5 ar
     9    4   31 1
    10    5    6 ar
    11    5   13 1
    12    6    7 ar
    13    6   32 1
    14    7    8 ar
    15    7   11 1
    16    8    9 1
    17    9   10 1
    18   10   33 1
    19   10   34 1
    20   10   35 1
    21   11   12 1
    22   12   36 1
    23   12   37 1
    24   12   38 1
    25   13   14 2
    26   13   15 1
    27   15   16 1
    28   16   17 1
    29   16   39 1
    30   16   40 1
    31   17   22 ar
    32   17   18 ar
    33   18   19 ar
    34   18   41 1
    35   19   20 ar
    36   19   42 1
    37   20   21 ar
    38   20   48 ar
    39   21   22 ar
    40   21   23 ar
    41   22   43 1
    42   23   24 ar
    43   23   27 1
    44   24   25 ar
    45   25   26 1
    46   25   48 ar
    47   26   44 1
    48   26   45 1
    49   27   46 1
    50   27   47 1
    51   48   49 1
@<TRIPOS>MOLECULE
ZINC00598852
   50    52     0     0     0
SMALL
USER_CHARGES

@<TRIPOS>ATOM
      1 C1          2.7182    5.7460    2.6288 C.3       1 <0>        -0.1565
      2 C2          2.7520    6.5376    1.3469 C.ar      1 <0>         0.0124
      3 C3          3.2704    5.9854    0.2118 C.ar      1 <0>        -0.1552
      4 C4          3.3031    6.7019   -0.9805 C.ar      1 <0>        -0.0413
      5 C5          2.8230    7.9766   -1.0476 C.ar      1 <0>        -0.1351
      6 C6          2.2886    8.5759    0.1006 C.ar      1 <0>         0.2394
      7 C7          2.2567    7.8450    1.3132 C.ar      1 <0>        -0.2306
      8 C8          1.7117    8.4722    2.4619 C.ar      1 <0>         0.5124
      9 N1          1.2587    9.7116    2.3455 N.ar      1 <0>        -0.6171
     10 C9          1.3080   10.3623    1.1863 C.ar      1 <0>         0.6067
     11 N2          1.8041    9.8268    0.0875 N.ar      1 <0>        -0.6010
     12 N3          0.8188   11.6548    1.1308 N.pl3     1 <0>        -0.8178
     13 N4          1.6552    7.8095    3.6691 N.pl3     1 <0>        -0.8487
     14 C10         3.8090    4.5785    0.2485 C.3       1 <0>         0.1711
     15 N5          2.6971    3.6277    0.1713 N.pl3     1 <0>        -0.7358
     16 C11         2.9506    2.2519    0.1883 C.ar      1 <0>         0.2868
     17 C12         1.8967    1.3513    0.1151 C.ar      1 <0>        -0.3077
     18 C13         2.1471   -0.0120    0.1319 C.ar      1 <0>         0.1942
     19 C14         3.4535   -0.4771    0.2222 C.ar      1 <0>        -0.0291
     20 C15         4.5080    0.4250    0.2955 C.ar      1 <0>         0.1940
     21 C16         4.2560    1.7881    0.2785 C.ar      1 <0>        -0.3095
     22 O1          5.7867   -0.0292    0.3842 O.3       1 <0>        -0.3009
     23 C17         6.8210    0.9543    0.4561 C.3       1 <0>         0.0256
     24 O2          3.7003   -1.8163    0.2392 O.3       1 <0>        -0.3097
     25 C18         3.9055   -2.4543   -1.0229 C.3       1 <0>         0.0333
     26 O3          1.1146   -0.8941    0.0597 O.3       1 <0>        -0.3011
     27 C19        -0.2019   -0.3459   -0.0316 C.3       1 <0>         0.0257
     28 H1          3.5754    6.0163    3.2454 H         1 <0>         0.0793
     29 H2          1.7978    5.9681    3.1688 H         1 <0>         0.0973
     30 H3          2.7570    4.6811    2.3994 H         1 <0>         0.0818
     31 H4          3.7147    6.2414   -1.8665 H         1 <0>         0.1318
     32 H5          2.8541    8.5206   -1.9800 H         1 <0>         0.1386
     33 H6          0.4498   12.0683    1.9269 H         1 <0>         0.4139
     34 H7          0.8448   12.1478    0.2959 H         1 <0>         0.4164
     35 H8          2.4083    7.2742    3.9643 H         1 <0>         0.4182
     36 H9          0.8622    7.8784    4.2235 H         1 <0>         0.4085
     37 H10         4.3560    4.4230    1.1784 H         1 <0>         0.0707
     38 H11         4.4789    4.4236   -0.5973 H         1 <0>         0.0694
     39 H12         1.7851    3.9521    0.1083 H         1 <0>         0.4027
     40 H13         0.8817    1.7129    0.0405 H         1 <0>         0.1318
     41 H14         5.0754    2.4893    0.3351 H         1 <0>         0.1337
     42 H15         6.7928    1.5772   -0.4379 H         1 <0>         0.0563
     43 H16         6.6695    1.5771    1.3378 H         1 <0>         0.0572
     44 H17         7.7895    0.4588    0.5233 H         1 <0>         0.1020
     45 H18         4.7639   -2.0046   -1.5220 H         1 <0>         0.0410
     46 H19         4.0915   -3.5169   -0.8669 H         1 <0>         0.0887
     47 H20         3.0177   -2.3279   -1.6425 H         1 <0>         0.0409
     48 H21        -0.4017    0.2676    0.8469 H         1 <0>         0.0574
     49 H22        -0.2782    0.2684   -0.9288 H         1 <0>         0.0564
     50 H23        -0.9299   -1.1555   -0.0826 H         1 <0>         0.1018
@<TRIPOS>BOND
     1    1    2 1
     2    1   28 1
     3    1   29 1
     4    1   30 1
     5    2    7 ar
     6    2    3 ar
     7    3    4 ar
     8    3   14 1
     9    4    5 ar
    10    4   31 1
    11    5    6 ar
    12    5   32 1
    13    6   11 ar
    14    6    7 ar
    15    7    8 ar
    16    8    9 ar
    17    8   13 1
    18    9   10 ar
    19   10   11 ar
    20   10   12 1
    21   12   33 1
    22   12   34 1
    23   13   35 1
    24   13   36 1
    25   14   15 1
    26   14   37 1
    27   14   38 1
    28   15   16 1
    29   15   39 1
    30   16   21 ar
    31   16   17 ar
    32   17   18 ar
    33   17   40 1
    34   18   19 ar
    35   18   26 1
    36   19   20 ar
    37   19   24 1
    38   20   21 ar
    39   20   22 1
    40   21   41 1
    41   22   23 1
    42   23   42 1
    43   23   43 1
    44   23   44 1
    45   24   25 1
    46   25   45 1
    47   25   46 1
    48   25   47 1
    49   26   27 1
    50   27   48 1
    51   27   49 1
    52   27   50 1
@<TRIPOS>MOLECULE
ZINC00598852
   51    53     0     0     0
SMALL
USER_CHARGES

@<TRIPOS>ATOM
      1 C1          2.7182    5.7460    2.6288 C.3       1 <0>        -0.1707
      2 C2          2.7520    6.5376    1.3469 C.ar      1 <0>         0.0322
      3 C3          3.2704    5.9854    0.2118 C.ar      1 <0>        -0.1185
      4 C4          3.3031    6.7019   -0.9805 C.ar      1 <0>         0.0031
      5 C5          2.8230    7.9766   -1.0476 C.ar      1 <0>        -0.1572
      6 C6          2.2886    8.5759    0.1006 C.ar      1 <0>         0.2125
      7 C7          2.2567    7.8450    1.3132 C.ar      1 <0>        -0.1873
      8 C8          1.7117    8.4722    2.4619 C.ar      1 <0>         0.5742
      9 N1          1.2587    9.7116    2.3455 N.ar      1 <0>        -0.5756
     10 C9          1.3080   10.3623    1.1863 C.ar      1 <0>         0.6833
     11 N2          0.8188   11.6548    1.1308 N.pl3     1 <0>        -0.7856
     12 N3          1.6552    7.8095    3.6691 N.pl3     1 <0>        -0.8052
     13 C10         3.8090    4.5785    0.2485 C.3       1 <0>         0.1607
     14 N4          2.6971    3.6277    0.1713 N.pl3     1 <0>        -0.7435
     15 C11         2.9506    2.2519    0.1883 C.ar      1 <0>         0.2779
     16 C12         1.8967    1.3513    0.1151 C.ar      1 <0>        -0.3030
     17 C13         2.1471   -0.0120    0.1319 C.ar      1 <0>         0.1948
     18 C14         3.4535   -0.4771    0.2222 C.ar      1 <0>        -0.0186
     19 C15         4.5080    0.4250    0.2955 C.ar      1 <0>         0.1940
     20 C16         4.2560    1.7881    0.2785 C.ar      1 <0>        -0.3072
     21 O1          5.7867   -0.0292    0.3842 O.3       1 <0>        -0.2977
     22 C17         6.8210    0.9543    0.4561 C.3       1 <0>         0.0256
     23 O2          3.7003   -1.8163    0.2392 O.3       1 <0>        -0.3096
     24 C18         3.9055   -2.4543   -1.0229 C.3       1 <0>         0.0334
     25 O3          1.1146   -0.8941    0.0597 O.3       1 <0>        -0.2979
     26 C19        -0.2019   -0.3459   -0.0316 C.3       1 <0>         0.0255
     27 H1          3.5754    6.0163    3.2454 H         1 <0>         0.0991
     28 H2          1.7978    5.9681    3.1688 H         1 <0>         0.1027
     29 H3          2.7570    4.6811    2.3994 H         1 <0>         0.1028
     30 H4          3.7147    6.2414   -1.8665 H         1 <0>         0.1567
     31 H5          2.8541    8.5206   -1.9800 H         1 <0>         0.1587
     32 H6          0.4498   12.0683    1.9269 H         1 <0>         0.4439
     33 H7          0.8448   12.1478    0.2959 H         1 <0>         0.4312
     34 H8          2.4083    7.2742    3.9643 H         1 <0>         0.4366
     35 H9          0.8622    7.8784    4.2235 H         1 <0>         0.4292
     36 H10         4.3560    4.4230    1.1784 H         1 <0>         0.0816
     37 H11         4.4789    4.4236   -0.5973 H         1 <0>         0.0803
     38 H12         1.7851    3.9521    0.1083 H         1 <0>         0.4018
     39 H13         0.8817    1.7129    0.0405 H         1 <0>         0.1324
     40 H14         5.0754    2.4893    0.3351 H         1 <0>         0.1332
     41 H15         6.7928    1.5772   -0.4379 H         1 <0>         0.0558
     42 H16         6.6695    1.5771    1.3378 H         1 <0>         0.0566
     43 H17         7.7895    0.4588    0.5233 H         1 <0>         0.1049
     44 H18         4.7639   -2.0046   -1.5220 H         1 <0>         0.0425
     45 H19         4.0915   -3.5169   -0.8669 H         1 <0>         0.0925
     46 H20         3.0177   -2.3279   -1.6425 H         1 <0>         0.0425
     47 H21        -0.4017    0.2676    0.8469 H         1 <0>         0.0572
     48 H22        -0.2782    0.2684   -0.9288 H         1 <0>         0.0563
     49 H23        -0.9299   -1.1555   -0.0826 H         1 <0>         0.1049
     50 N5          1.8050    9.8648    0.0271 N.ar      1 <0>        -0.6007
     51 H24         1.8021   10.4267   -0.8001 H         1 <0>         0.4577
@<TRIPOS>BOND
     1    1    2 1
     2    1   27 1
     3    1   28 1
     4    1   29 1
     5    2    7 ar
     6    2    3 ar
     7    3    4 ar
     8    3   13 1
     9    4    5 ar
    10    4   30 1
    11    5    6 ar
    12    5   31 1
    13    6    7 ar
    14    6   50 ar
    15    7    8 ar
    16    8    9 ar
    17    8   12 1
    18    9   10 ar
    19   10   11 1
    20   10   50 ar
    21   11   32 1
    22   11   33 1
    23   12   34 1
    24   12   35 1
    25   13   14 1
    26   13   36 1
    27   13   37 1
    28   14   15 1
    29   14   38 1
    30   15   20 ar
    31   15   16 ar
    32   16   17 ar
    33   16   39 1
    34   17   18 ar
    35   17   25 1
    36   18   19 ar
    37   18   23 1
    38   19   20 ar
    39   19   21 1
    40   20   40 1
    41   21   22 1
    42   22   41 1
    43   22   42 1
    44   22   43 1
    45   23   24 1
    46   24   44 1
    47   24   45 1
    48   24   46 1
    49   25   26 1
    50   26   47 1
    51   26   48 1
    52   26   49 1
    53   50   51 1
@<TRIPOS>MOLECULE
ZINC01489187
   44    46     0     0     0
SMALL
USER_CHARGES

@<TRIPOS>ATOM
      1 C1          0.6018    1.5059    0.0250 C.3       1 <0>        -0.1544
      2 C2          0.5970   -0.0011    0.0161 C.ar      1 <0>         0.0615
      3 C3          0.7585   -0.7002   -1.1515 C.ar      1 <0>        -0.2171
      4 C4          0.7532   -2.0894   -1.1326 C.ar      1 <0>         0.2108
      5 N1          0.5888   -2.7658   -0.0176 N.ar      1 <0>        -0.4893
      6 C5          0.4225   -2.1439    1.1498 C.ar      1 <0>         0.4170
      7 C6          0.4215   -0.7279    1.1991 C.ar      1 <0>        -0.2823
      8 C7          0.2422   -0.0940    2.4535 C.ar      1 <0>         0.5249
      9 N2          0.0832   -0.8573    3.5253 N.ar      1 <0>        -0.6172
     10 C8          0.0905   -2.1842    3.4357 C.ar      1 <0>         0.6254
     11 N3          0.2532   -2.8238    2.2928 N.ar      1 <0>        -0.5914
     12 N4         -0.0802   -2.9254    4.5893 N.pl3     1 <0>        -0.8102
     13 N5          0.2328    1.2797    2.5563 N.pl3     1 <0>        -0.8449
     14 C9          0.9447    0.0365   -2.4530 C.3       1 <0>         0.1755
     15 N6          2.3364    0.4790   -2.5689 N.pl3     1 <0>        -0.7355
     16 C10         2.7530    1.1893   -3.7006 C.ar      1 <0>         0.1965
     17 C11         1.8508    1.4705   -4.7163 C.ar      1 <0>        -0.1225
     18 C12         2.2635    2.1764   -5.8308 C.ar      1 <0>        -0.1688
     19 C13         3.5765    2.5949   -5.9411 C.ar      1 <0>        -0.0884
     20 C14         4.4826    2.3137   -4.9350 C.ar      1 <0>        -0.1656
     21 C15         4.0760    1.6110   -3.8128 C.ar      1 <0>         0.0890
     22 O1          4.9664    1.3330   -2.8229 O.3       1 <0>        -0.3170
     23 C16         6.3057    1.7965   -3.0060 C.3       1 <0>         0.0281
     24 C17         1.2811    2.4856   -6.9309 C.3       1 <0>         0.5106
     25 F1          1.9276    3.1977   -7.9469 F         1 <0>        -0.1776
     26 F2          0.7715    1.2908   -7.4505 F         1 <0>        -0.1770
     27 F3          0.2322    3.2554   -6.4167 F         1 <0>        -0.1777
     28 H1          1.5932    1.8644    0.3020 H         1 <0>         0.0873
     29 H2          0.3459    1.8759   -0.9678 H         1 <0>         0.0857
     30 H3         -0.1301    1.8674    0.7473 H         1 <0>         0.0996
     31 H4          0.8854   -2.6280   -2.0594 H         1 <0>         0.1679
     32 H5         -0.2018   -2.4766    5.4406 H         1 <0>         0.4164
     33 H6         -0.0784   -3.8945    4.5478 H         1 <0>         0.4191
     34 H7         -0.4080    1.7182    3.1377 H         1 <0>         0.4109
     35 H8          0.8670    1.8085    2.0474 H         1 <0>         0.4185
     36 H9          0.7040   -0.6270   -3.2836 H         1 <0>         0.0748
     37 H10         0.2845    0.9035   -2.4774 H         1 <0>         0.0744
     38 H11         2.9693    0.2796   -1.8613 H         1 <0>         0.4082
     39 H12         0.8255    1.1412   -4.6346 H         1 <0>         0.1390
     40 H13         3.8956    3.1426   -6.8155 H         1 <0>         0.1381
     41 H14         5.5077    2.6418   -5.0245 H         1 <0>         0.1394
     42 H15         6.7237    1.3521   -3.9092 H         1 <0>         0.0583
     43 H16         6.3044    2.8822   -3.1023 H         1 <0>         0.0578
     44 H17         6.9105    1.5087   -2.1460 H         1 <0>         0.1018
@<TRIPOS>BOND
     1    1    2 1
     2    1   28 1
     3    1   29 1
     4    1   30 1
     5    2    7 ar
     6    2    3 ar
     7    3    4 ar
     8    3   14 1
     9    4    5 ar
    10    4   31 1
    11    5    6 ar
    12    6   11 ar
    13    6    7 ar
    14    7    8 ar
    15    8    9 ar
    16    8   13 1
    17    9   10 ar
    18   10   11 ar
    19   10   12 1
    20   12   32 1
    21   12   33 1
    22   13   34 1
    23   13   35 1
    24   14   15 1
    25   14   36 1
    26   14   37 1
    27   15   16 1
    28   15   38 1
    29   16   21 ar
    30   16   17 ar
    31   17   18 ar
    32   17   39 1
    33   18   19 ar
    34   18   24 1
    35   19   20 ar
    36   19   40 1
    37   20   21 ar
    38   20   41 1
    39   21   22 1
    40   22   23 1
    41   23   42 1
    42   23   43 1
    43   23   44 1
    44   24   25 1
    45   24   26 1
    46   24   27 1
@<TRIPOS>MOLECULE
ZINC01489187
   45    47     0     0     0
SMALL
USER_CHARGES

@<TRIPOS>ATOM
      1 C1          0.6018    1.5059    0.0250 C.3       1 <0>        -0.1677
      2 C2          0.5970   -0.0011    0.0161 C.ar      1 <0>         0.0787
      3 C3          0.7585   -0.7002   -1.1515 C.ar      1 <0>        -0.1740
      4 C4          0.7532   -2.0894   -1.1326 C.ar      1 <0>         0.2383
      5 N1          0.5888   -2.7658   -0.0176 N.ar      1 <0>        -0.5000
      6 C5          0.4225   -2.1439    1.1498 C.ar      1 <0>         0.4073
      7 C6          0.4215   -0.7279    1.1991 C.ar      1 <0>        -0.2343
      8 C7          0.2422   -0.0940    2.4535 C.ar      1 <0>         0.5809
      9 N2          0.0832   -0.8573    3.5253 N.ar      1 <0>        -0.5717
     10 C8          0.0905   -2.1842    3.4357 C.ar      1 <0>         0.6941
     11 N3         -0.0802   -2.9254    4.5893 N.pl3     1 <0>        -0.7776
     12 N4          0.2328    1.2797    2.5563 N.pl3     1 <0>        -0.8010
     13 C9          0.9447    0.0365   -2.4530 C.3       1 <0>         0.1658
     14 N5          2.3364    0.4790   -2.5689 N.pl3     1 <0>        -0.7427
     15 C10         2.7530    1.1893   -3.7006 C.ar      1 <0>         0.1850
     16 C11         1.8508    1.4705   -4.7163 C.ar      1 <0>        -0.1161
     17 C12         2.2635    2.1764   -5.8308 C.ar      1 <0>        -0.1697
     18 C13         3.5765    2.5949   -5.9411 C.ar      1 <0>        -0.0766
     19 C14         4.4826    2.3137   -4.9350 C.ar      1 <0>        -0.1650
     20 C15         4.0760    1.6110   -3.8128 C.ar      1 <0>         0.0959
     21 O1          4.9664    1.3330   -2.8229 O.3       1 <0>        -0.3202
     22 C16         6.3057    1.7965   -3.0060 C.3       1 <0>         0.0263
     23 C17         1.2811    2.4856   -6.9309 C.3       1 <0>         0.5100
     24 F1          1.9276    3.1977   -7.9469 F         1 <0>        -0.1744
     25 F2          0.7715    1.2908   -7.4505 F         1 <0>        -0.1764
     26 F3          0.2322    3.2554   -6.4167 F         1 <0>        -0.1771
     27 H1          1.5932    1.8644    0.3020 H         1 <0>         0.1073
     28 H2          0.3459    1.8759   -0.9678 H         1 <0>         0.1069
     29 H3         -0.1301    1.8674    0.7473 H         1 <0>         0.1060
     30 H4          0.8854   -2.6280   -2.0594 H         1 <0>         0.1934
     31 H5         -0.2018   -2.4766    5.4406 H         1 <0>         0.4462
     32 H6         -0.0784   -3.8945    4.5478 H         1 <0>         0.4336
     33 H7         -0.4080    1.7182    3.1377 H         1 <0>         0.4314
     34 H8          0.8670    1.8085    2.0474 H         1 <0>         0.4367
     35 H9          0.7040   -0.6270   -3.2836 H         1 <0>         0.0858
     36 H10         0.2845    0.9035   -2.4774 H         1 <0>         0.0858
     37 H11         2.9693    0.2796   -1.8613 H         1 <0>         0.4076
     38 H12         0.8255    1.1412   -4.6346 H         1 <0>         0.1389
     39 H13         3.8956    3.1426   -6.8155 H         1 <0>         0.1424
     40 H14         5.5077    2.6418   -5.0245 H         1 <0>         0.1432
     41 H15         6.7237    1.3521   -3.9092 H         1 <0>         0.0610
     42 H16         6.3044    2.8822   -3.1023 H         1 <0>         0.0606
     43 H17         6.9105    1.5087   -2.1460 H         1 <0>         0.1036
     44 N6          0.2529   -2.8960    2.2921 N.ar      1 <0>        -0.5897
     45 H18         0.2439   -3.8956    2.3198 H         1 <0>         0.4617
@<TRIPOS>BOND
     1    1    2 1
     2    1   27 1
     3    1   28 1
     4    1   29 1
     5    2    7 ar
     6    2    3 ar
     7    3    4 ar
     8    3   13 1
     9    4    5 ar
    10    4   30 1
    11    5    6 ar
    12    6    7 ar
    13    6   44 ar
    14    7    8 ar
    15    8    9 ar
    16    8   12 1
    17    9   10 ar
    18   10   11 1
    19   10   44 ar
    20   11   31 1
    21   11   32 1
    22   12   33 1
    23   12   34 1
    24   13   14 1
    25   13   35 1
    26   13   36 1
    27   14   15 1
    28   14   37 1
    29   15   20 ar
    30   15   16 ar
    31   16   17 ar
    32   16   38 1
    33   17   18 ar
    34   17   23 1
    35   18   19 ar
    36   18   39 1
    37   19   20 ar
    38   19   40 1
    39   20   21 1
    40   21   22 1
    41   22   41 1
    42   22   42 1
    43   22   43 1
    44   23   24 1
    45   23   25 1
    46   23   26 1
    47   44   45 1
@<TRIPOS>MOLECULE
ZINC03814826
   53    55     0     0     0
SMALL
USER_CHARGES

@<TRIPOS>ATOM
      1 C1          5.6022    3.9702    1.2044 C.3       1 <0>         0.0227
      2 N1          4.8311    4.2260   -0.0195 N.pl3     1 <0>        -0.4924
      3 C2          5.6232    3.9122   -1.2161 C.3       1 <0>         0.1136
      4 C3          6.7827    4.8695   -1.3163 C.ar      1 <0>         0.0600
      5 C4          8.0263    4.5039   -0.8019 C.ar      1 <0>         0.1464
      6 N2          9.0539    5.3227   -0.8780 N.ar      1 <0>        -0.4420
      7 C5          8.9029    6.5175   -1.4548 C.ar      1 <0>         0.3692
      8 C6          7.6369    6.8840   -1.9758 C.ar      1 <0>        -0.0877
      9 N3          6.6132    6.0402   -1.8931 N.ar      1 <0>        -0.3588
     10 C7          7.5103    8.2019   -2.6005 C.ar      1 <0>         0.5456
     11 N4          8.5893    8.9715   -2.6396 N.ar      1 <0>        -0.6324
     12 C8          9.7471    8.5630   -2.1300 C.ar      1 <0>         0.6371
     13 N5          9.9152    7.3875   -1.5576 N.ar      1 <0>        -0.6037
     14 N6         10.8319    9.4156   -2.2045 N.pl3     1 <0>        -0.8110
     15 N7          6.3116    8.6279   -3.1291 N.pl3     1 <0>        -0.7892
     16 C9          3.6344    3.5151   -0.0128 C.ar      1 <0>         0.0565
     17 C10         3.6532    2.1239   -0.0205 C.ar      1 <0>        -0.1254
     18 C11         2.4718    1.4175   -0.0081 C.ar      1 <0>        -0.0860
     19 C12         1.2512    2.0985    0.0014 C.ar      1 <0>        -0.0756
     20 C13         1.2338    3.4964    0.0091 C.ar      1 <0>        -0.0970
     21 C14         2.4196    4.1983    0.0020 C.ar      1 <0>         0.1199
     22 F1          2.4047    5.5492    0.0098 F         1 <0>        -0.1288
     23 C15        -0.0162    1.3436    0.0094 C.2       1 <0>         0.5509
     24 O1         -1.0774    1.9372    0.0177 O.2       1 <0>        -0.5435
     25 N8          0.0021   -0.0041    0.0020 N.am      1 <0>        -0.6789
     26 C16        -1.2565   -0.7538    0.0100 C.3       1 <0>         0.0989
     27 H1         -1.9938   -0.2196    0.6094 H         1 <0>         0.0880
     28 C17        -1.0199   -2.1412    0.6100 C.3       1 <0>        -0.0867
     29 C18        -0.6236   -1.9999    2.0810 C.3       1 <0>        -0.1533
     30 C19        -0.3906   -3.3665    2.6719 C.2       1 <0>         0.4610
     31 O2         -0.5274   -4.3523    1.9868 O.co2     1 <0>        -0.6383
     32 C20        -1.7650   -0.8968   -1.4014 C.2       1 <0>         0.4652
     33 O3         -1.1401   -0.4214   -2.3197 O.co2     1 <0>        -0.6395
     34 H2          5.8282    2.9062    1.2757 H         1 <0>         0.0422
     35 H3          6.5322    4.5378    1.1732 H         1 <0>         0.0673
     36 H4          5.0185    4.2766    2.0724 H         1 <0>         0.0761
     37 H5          5.9996    2.8917   -1.1453 H         1 <0>         0.0685
     38 H6          4.9958    4.0074   -2.1024 H         1 <0>         0.1020
     39 H7          8.1475    3.5375   -0.3353 H         1 <0>         0.1793
     40 H8         11.6889    9.1430   -1.8409 H         1 <0>         0.4177
     41 H9         10.7365   10.2867   -2.6205 H         1 <0>         0.4150
     42 H10         6.2465    9.5046   -3.5390 H         1 <0>         0.4147
     43 H11         5.5326    8.0511   -3.0915 H         1 <0>         0.4292
     44 H12         4.5961    1.5974   -0.0319 H         1 <0>         0.1350
     45 H13         2.4879    0.3376   -0.0099 H         1 <0>         0.1385
     46 H14         0.2923    4.0255    0.0209 H         1 <0>         0.1514
     47 H15         0.8486   -0.4776   -0.0086 H         1 <0>         0.3921
     48 H16        -1.9340   -2.7302    0.5349 H         1 <0>         0.0861
     49 H17        -0.2197   -2.6413    0.0645 H         1 <0>         0.0580
     50 H18         0.2905   -1.4109    2.1560 H         1 <0>         0.0572
     51 H19        -1.4239   -1.4998    2.6265 H         1 <0>         0.0612
     52 O4         -0.0310   -3.4886    3.9594 O.co2     1 <0>        -0.7900
     53 O5         -2.9120   -1.5525   -1.6383 O.co2     1 <0>        -0.7666
@<TRIPOS>BOND
     1    1    2 1
     2    1   34 1
     3    1   35 1
     4    1   36 1
     5    2    3 1
     6    2   16 1
     7    3    4 1
     8    3   37 1
     9    3   38 1
    10    4    9 ar
    11    4    5 ar
    12    5    6 ar
    13    5   39 1
    14    6    7 ar
    15    7   13 ar
    16    7    8 ar
    17    8    9 ar
    18    8   10 ar
    19   10   11 ar
    20   10   15 1
    21   11   12 ar
    22   12   13 ar
    23   12   14 1
    24   14   40 1
    25   14   41 1
    26   15   42 1
    27   15   43 1
    28   16   21 ar
    29   16   17 ar
    30   17   18 ar
    31   17   44 1
    32   18   19 ar
    33   18   45 1
    34   19   20 ar
    35   19   23 1
    36   20   21 ar
    37   20   46 1
    38   21   22 1
    39   23   24 2
    40   23   25 am
    41   25   26 1
    42   25   47 1
    43   26   27 1
    44   26   28 1
    45   26   32 1
    46   28   29 1
    47   28   48 1
    48   28   49 1
    49   29   30 1
    50   29   50 1
    51   29   51 1
    52   30   31 2
    53   30   52 1
    54   32   33 2
    55   32   53 1
@<TRIPOS>MOLECULE
ZINC03814826
   54    56     0     0     0
SMALL
USER_CHARGES

@<TRIPOS>ATOM
      1 C1          5.6022    3.9702    1.2044 C.3       1 <0>         0.0175
      2 N1          4.8311    4.2260   -0.0195 N.pl3     1 <0>        -0.4883
      3 C2          5.6232    3.9122   -1.2161 C.3       1 <0>         0.0963
      4 C3          6.7827    4.8695   -1.3163 C.ar      1 <0>         0.1145
      5 C4          8.0263    4.5039   -0.8019 C.ar      1 <0>         0.1705
      6 N2          9.0539    5.3227   -0.8780 N.ar      1 <0>        -0.4446
      7 C5          8.9029    6.5175   -1.4548 C.ar      1 <0>         0.3294
      8 C6          7.6369    6.8840   -1.9758 C.ar      1 <0>        -0.0108
      9 N3          6.6132    6.0402   -1.8931 N.ar      1 <0>        -0.3442
     10 C7          7.5103    8.2019   -2.6005 C.ar      1 <0>         0.5821
     11 N4          8.5893    8.9715   -2.6396 N.ar      1 <0>        -0.5787
     12 C8          9.7471    8.5630   -2.1300 C.ar      1 <0>         0.7108
     13 N5         10.8319    9.4156   -2.2045 N.pl3     1 <0>        -0.7814
     14 N6          6.3116    8.6279   -3.1291 N.pl3     1 <0>        -0.7266
     15 C9          3.6344    3.5151   -0.0128 C.ar      1 <0>         0.0414
     16 C10         3.6532    2.1239   -0.0205 C.ar      1 <0>        -0.1226
     17 C11         2.4718    1.4175   -0.0081 C.ar      1 <0>        -0.0849
     18 C12         1.2512    2.0985    0.0014 C.ar      1 <0>        -0.0640
     19 C13         1.2338    3.4964    0.0091 C.ar      1 <0>        -0.0963
     20 C14         2.4196    4.1983    0.0020 C.ar      1 <0>         0.1241
     21 F1          2.4047    5.5492    0.0098 F         1 <0>        -0.1298
     22 C15        -0.0162    1.3436    0.0094 C.2       1 <0>         0.5461
     23 O1         -1.0774    1.9372    0.0177 O.2       1 <0>        -0.5394
     24 N7          0.0021   -0.0041    0.0020 N.am      1 <0>        -0.6755
     25 C16        -1.2565   -0.7538    0.0100 C.3       1 <0>         0.0980
     26 H1         -1.9938   -0.2196    0.6094 H         1 <0>         0.0894
     27 C17        -1.0199   -2.1412    0.6100 C.3       1 <0>        -0.0875
     28 C18        -0.6236   -1.9999    2.0810 C.3       1 <0>        -0.1529
     29 C19        -0.3906   -3.3665    2.6719 C.2       1 <0>         0.4600
     30 O2         -0.5274   -4.3523    1.9868 O.co2     1 <0>        -0.6367
     31 C20        -1.7650   -0.8968   -1.4014 C.2       1 <0>         0.4654
     32 O3         -1.1401   -0.4214   -2.3197 O.co2     1 <0>        -0.6421
     33 H2          5.8282    2.9062    1.2757 H         1 <0>         0.0489
     34 H3          6.5322    4.5378    1.1732 H         1 <0>         0.0597
     35 H4          5.0185    4.2766    2.0724 H         1 <0>         0.0846
     36 H5          5.9996    2.8917   -1.1453 H         1 <0>         0.0835
     37 H6          4.9958    4.0074   -2.1024 H         1 <0>         0.1164
     38 H7          8.1475    3.5375   -0.3353 H         1 <0>         0.2061
     39 H8         11.6889    9.1430   -1.8409 H         1 <0>         0.4322
     40 H9         10.7365   10.2867   -2.6205 H         1 <0>         0.4443
     41 H10         6.2465    9.5046   -3.5390 H         1 <0>         0.4356
     42 H11         5.5326    8.0511   -3.0915 H         1 <0>         0.4474
     43 H12         4.5961    1.5974   -0.0319 H         1 <0>         0.1352
     44 H13         2.4879    0.3376   -0.0099 H         1 <0>         0.1419
     45 H14         0.2923    4.0255    0.0209 H         1 <0>         0.1547
     46 H15         0.8486   -0.4776   -0.0086 H         1 <0>         0.3917
     47 H16        -1.9340   -2.7302    0.5349 H         1 <0>         0.0880
     48 H17        -0.2197   -2.6413    0.0645 H         1 <0>         0.0583
     49 H18         0.2905   -1.4109    2.1560 H         1 <0>         0.0553
     50 H19        -1.4239   -1.4998    2.6265 H         1 <0>         0.0617
     51 O4         -0.0310   -3.4886    3.9594 O.co2     1 <0>        -0.7890
     52 O5         -2.9120   -1.5525   -1.6383 O.co2     1 <0>        -0.7618
     53 N8          9.9834    7.3691   -1.5301 N.ar      1 <0>        -0.5945
     54 H20        10.8675    7.0894   -1.1557 H         1 <0>         0.4606
@<TRIPOS>BOND
     1    1    2 1
     2    1   33 1
     3    1   34 1
     4    1   35 1
     5    2    3 1
     6    2   15 1
     7    3    4 1
     8    3   36 1
     9    3   37 1
    10    4    9 ar
    11    4    5 ar
    12    5    6 ar
    13    5   38 1
    14    6    7 ar
    15    7    8 ar
    16    7   53 ar
    17    8    9 ar
    18    8   10 ar
    19   10   11 ar
    20   10   14 1
    21   11   12 ar
    22   12   13 1
    23   12   53 ar
    24   13   39 1
    25   13   40 1
    26   14   41 1
    27   14   42 1
    28   15   20 ar
    29   15   16 ar
    30   16   17 ar
    31   16   43 1
    32   17   18 ar
    33   17   44 1
    34   18   19 ar
    35   18   22 1
    36   19   20 ar
    37   19   45 1
    38   20   21 1
    39   22   23 2
    40   22   24 am
    41   24   25 1
    42   24   46 1
    43   25   26 1
    44   25   27 1
    45   25   31 1
    46   27   28 1
    47   27   47 1
    48   27   48 1
    49   28   29 1
    50   28   49 1
    51   28   50 1
    52   29   30 2
    53   29   51 1
    54   31   32 2
    55   31   52 1
    56   53   54 1
@<TRIPOS>MOLECULE
ZINC03814827
   53    55     0     0     0
SMALL
USER_CHARGES

@<TRIPOS>ATOM
      1 C1          3.6306   -2.1070   -0.0439 C.3       1 <0>         0.0924
      2 N1          3.6125   -0.6422   -0.0359 N.pl3     1 <0>        -0.6249
      3 C2          4.8720    0.1060   -0.0439 C.3       1 <0>         0.1829
      4 C3          5.3174    0.3550    1.3741 C.ar      1 <0>         0.0186
      5 C4          6.2231   -0.5177    1.9765 C.ar      1 <0>         0.1463
      6 N2          6.6272   -0.3208    3.2135 N.ar      1 <0>        -0.4469
      7 C5          6.1638    0.7272    3.8990 C.ar      1 <0>         0.3729
      8 C6          5.2435    1.6109    3.2820 C.ar      1 <0>        -0.0854
      9 N3          4.8521    1.3968    2.0299 N.ar      1 <0>        -0.3561
     10 C7          4.7579    2.7483    4.0652 C.ar      1 <0>         0.5478
     11 N4          5.2096    2.8807    5.3047 N.ar      1 <0>        -0.6326
     12 C8          6.0736    2.0122    5.8208 C.ar      1 <0>         0.6412
     13 N5          6.5422    0.9726    5.1595 N.ar      1 <0>        -0.6104
     14 N6          6.5036    2.2099    7.1190 N.pl3     1 <0>        -0.8103
     15 N7          3.8622    3.6497    3.5330 N.pl3     1 <0>        -0.7796
     16 C9          2.3998    0.0381   -0.0207 C.ar      1 <0>         0.2203
     17 C10         1.2038   -0.6744   -0.0131 C.ar      1 <0>        -0.2039
     18 C11         0.0021   -0.0041    0.0020 C.ar      1 <0>        -0.0209
     19 C12        -0.0169    1.3937    0.0097 C.ar      1 <0>        -0.1619
     20 C13         1.1858    2.1062    0.0020 C.ar      1 <0>        -0.0428
     21 C14         2.3843    1.4302   -0.0135 C.ar      1 <0>        -0.1887
     22 C15        -1.3035    2.1154    0.0197 C.2       1 <0>         0.5574
     23 O1         -2.3489    1.4945    0.0213 O.2       1 <0>        -0.5574
     24 N8         -1.3201    3.4631    0.0271 N.am      1 <0>        -0.6860
     25 C16        -2.5978    4.1798    0.0371 C.3       1 <0>         0.1003
     26 H1         -3.3293    3.6265   -0.5519 H         1 <0>         0.0852
     27 C17        -2.4059    5.5728   -0.5659 C.3       1 <0>        -0.0856
     28 C18        -2.0269    5.4416   -2.0424 C.3       1 <0>        -0.1527
     29 C19        -1.8378    6.8137   -2.6363 C.2       1 <0>         0.4613
     30 O2         -1.9906    7.7957   -1.9491 O.co2     1 <0>        -0.6392
     31 C20        -3.0898    4.3098    1.4556 C.2       1 <0>         0.4651
     32 O3         -2.4398    3.8509    2.3649 O.co2     1 <0>        -0.6402
     33 H2          3.6253   -2.4648   -1.0735 H         1 <0>         0.0516
     34 H3          4.5299   -2.4620    0.4594 H         1 <0>         0.0621
     35 H4          2.7501   -2.4841    0.4763 H         1 <0>         0.0695
     36 H5          5.6339   -0.4708   -0.5681 H         1 <0>         0.0968
     37 H6          4.7250    1.0595   -0.5512 H         1 <0>         0.0998
     38 H7          6.5972   -1.3653    1.4215 H         1 <0>         0.1746
     39 H8          7.1341    1.5918    7.5206 H         1 <0>         0.4164
     40 H9          6.1749    2.9669    7.6288 H         1 <0>         0.4162
     41 H10         3.5512    4.3972    4.0672 H         1 <0>         0.4197
     42 H11         3.5426    3.5367    2.6242 H         1 <0>         0.4302
     43 H12         1.2191   -1.7542   -0.0186 H         1 <0>         0.1221
     44 H13        -0.9254   -0.5573    0.0083 H         1 <0>         0.1319
     45 H14         1.1744    3.1862    0.0076 H         1 <0>         0.1264
     46 H15         3.3138    1.9800   -0.0194 H         1 <0>         0.1293
     47 H16        -0.4862    3.9584    0.0259 H         1 <0>         0.3892
     48 H17        -3.3338    6.1378   -0.4778 H         1 <0>         0.0840
     49 H18        -1.6112    6.0936   -0.0317 H         1 <0>         0.0562
     50 H19        -1.0990    4.8766   -2.1305 H         1 <0>         0.0578
     51 H20        -2.8215    4.9208   -2.5766 H         1 <0>         0.0605
     52 O4         -1.4998    6.9448   -3.9287 O.co2     1 <0>        -0.7906
     53 O5         -4.2500    4.9355    1.7088 O.co2     1 <0>        -0.7700
@<TRIPOS>BOND
     1    1    2 1
     2    1   33 1
     3    1   34 1
     4    1   35 1
     5    2    3 1
     6    2   16 1
     7    3    4 1
     8    3   36 1
     9    3   37 1
    10    4    9 ar
    11    4    5 ar
    12    5    6 ar
    13    5   38 1
    14    6    7 ar
    15    7   13 ar
    16    7    8 ar
    17    8    9 ar
    18    8   10 ar
    19   10   11 ar
    20   10   15 1
    21   11   12 ar
    22   12   13 ar
    23   12   14 1
    24   14   39 1
    25   14   40 1
    26   15   41 1
    27   15   42 1
    28   16   21 ar
    29   16   17 ar
    30   17   18 ar
    31   17   43 1
    32   18   19 ar
    33   18   44 1
    34   19   20 ar
    35   19   22 1
    36   20   21 ar
    37   20   45 1
    38   21   46 1
    39   22   23 2
    40   22   24 am
    41   24   25 1
    42   24   47 1
    43   25   26 1
    44   25   27 1
    45   25   31 1
    46   27   28 1
    47   27   48 1
    48   27   49 1
    49   28   29 1
    50   28   50 1
    51   28   51 1
    52   29   30 2
    53   29   52 1
    54   31   32 2
    55   31   53 1
@<TRIPOS>MOLECULE
ZINC03814827
   54    56     0     0     0
SMALL
USER_CHARGES

@<TRIPOS>ATOM
      1 C1          3.6306   -2.1070   -0.0439 C.3       1 <0>         0.0887
      2 N1          3.6125   -0.6422   -0.0359 N.pl3     1 <0>        -0.6263
      3 C2          4.8720    0.1060   -0.0439 C.3       1 <0>         0.1710
      4 C3          5.3174    0.3550    1.3741 C.ar      1 <0>         0.0746
      5 C4          6.2231   -0.5177    1.9765 C.ar      1 <0>         0.1692
      6 N2          6.6272   -0.3208    3.2135 N.ar      1 <0>        -0.4484
      7 C5          6.1638    0.7272    3.8990 C.ar      1 <0>         0.3326
      8 C6          5.2435    1.6109    3.2820 C.ar      1 <0>        -0.0056
      9 N3          4.8521    1.3968    2.0299 N.ar      1 <0>        -0.3442
     10 C7          4.7579    2.7483    4.0652 C.ar      1 <0>         0.5784
     11 N4          5.2096    2.8807    5.3047 N.ar      1 <0>        -0.5761
     12 C8          6.0736    2.0122    5.8208 C.ar      1 <0>         0.7108
     13 N5          6.5036    2.2099    7.1190 N.pl3     1 <0>        -0.7822
     14 N6          3.8622    3.6497    3.5330 N.pl3     1 <0>        -0.7141
     15 C9          2.3998    0.0381   -0.0207 C.ar      1 <0>         0.2065
     16 C10         1.2038   -0.6744   -0.0131 C.ar      1 <0>        -0.1945
     17 C11         0.0021   -0.0041    0.0020 C.ar      1 <0>        -0.0196
     18 C12        -0.0169    1.3937    0.0097 C.ar      1 <0>        -0.1486
     19 C13         1.1858    2.1062    0.0020 C.ar      1 <0>        -0.0461
     20 C14         2.3843    1.4302   -0.0135 C.ar      1 <0>        -0.1932
     21 C15        -1.3035    2.1154    0.0197 C.2       1 <0>         0.5519
     22 O1         -2.3489    1.4945    0.0213 O.2       1 <0>        -0.5502
     23 N7         -1.3201    3.4631    0.0271 N.am      1 <0>        -0.6833
     24 C16        -2.5978    4.1798    0.0371 C.3       1 <0>         0.0990
     25 H1         -3.3293    3.6265   -0.5519 H         1 <0>         0.0873
     26 C17        -2.4059    5.5728   -0.5659 C.3       1 <0>        -0.0858
     27 C18        -2.0269    5.4416   -2.0424 C.3       1 <0>        -0.1527
     28 C19        -1.8378    6.8137   -2.6363 C.2       1 <0>         0.4601
     29 O2         -1.9906    7.7957   -1.9491 O.co2     1 <0>        -0.6385
     30 C20        -3.0898    4.3098    1.4556 C.2       1 <0>         0.4662
     31 O3         -2.4398    3.8509    2.3649 O.co2     1 <0>        -0.6461
     32 H2          3.6253   -2.4648   -1.0735 H         1 <0>         0.0590
     33 H3          4.5299   -2.4620    0.4594 H         1 <0>         0.0612
     34 H4          2.7501   -2.4841    0.4763 H         1 <0>         0.0745
     35 H5          5.6339   -0.4708   -0.5681 H         1 <0>         0.1113
     36 H6          4.7250    1.0595   -0.5512 H         1 <0>         0.1132
     37 H7          6.5972   -1.3653    1.4215 H         1 <0>         0.2019
     38 H8          7.1341    1.5918    7.5206 H         1 <0>         0.4307
     39 H9          6.1749    2.9669    7.6288 H         1 <0>         0.4451
     40 H10         3.5512    4.3972    4.0672 H         1 <0>         0.4405
     41 H11         3.5426    3.5367    2.6242 H         1 <0>         0.4484
     42 H12         1.2191   -1.7542   -0.0186 H         1 <0>         0.1254
     43 H13        -0.9254   -0.5573    0.0083 H         1 <0>         0.1368
     44 H14         1.1744    3.1862    0.0076 H         1 <0>         0.1293
     45 H15         3.3138    1.9800   -0.0194 H         1 <0>         0.1262
     46 H16        -0.4862    3.9584    0.0259 H         1 <0>         0.3878
     47 H17        -3.3338    6.1378   -0.4778 H         1 <0>         0.0861
     48 H18        -1.6112    6.0936   -0.0317 H         1 <0>         0.0556
     49 H19        -1.0990    4.8766   -2.1305 H         1 <0>         0.0557
     50 H20        -2.8215    4.9208   -2.5766 H         1 <0>         0.0617
     51 O4         -1.4998    6.9448   -3.9287 O.co2     1 <0>        -0.7881
     52 O5         -4.2500    4.9355    1.7088 O.co2     1 <0>        -0.7634
     53 N8          6.5914    0.9261    5.1937 N.ar      1 <0>        -0.5983
     54 H21         7.2414    0.2896    5.6089 H         1 <0>         0.4585
@<TRIPOS>BOND
     1    1    2 1
     2    1   32 1
     3    1   33 1
     4    1   34 1
     5    2    3 1
     6    2   15 1
     7    3    4 1
     8    3   35 1
     9    3   36 1
    10    4    9 ar
    11    4    5 ar
    12    5    6 ar
    13    5   37 1
    14    6    7 ar
    15    7    8 ar
    16    7   53 ar
    17    8    9 ar
    18    8   10 ar
    19   10   11 ar
    20   10   14 1
    21   11   12 ar
    22   12   13 1
    23   12   53 ar
    24   13   38 1
    25   13   39 1
    26   14   40 1
    27   14   41 1
    28   15   20 ar
    29   15   16 ar
    30   16   17 ar
    31   16   42 1
    32   17   18 ar
    33   17   43 1
    34   18   19 ar
    35   18   21 1
    36   19   20 ar
    37   19   44 1
    38   20   45 1
    39   21   22 2
    40   21   23 am
    41   23   24 1
    42   23   46 1
    43   24   25 1
    44   24   26 1
    45   24   30 1
    46   26   27 1
    47   26   47 1
    48   26   48 1
    49   27   28 1
    50   27   49 1
    51   27   50 1
    52   28   29 2
    53   28   51 1
    54   30   31 2
    55   30   52 1
    56   53   54 1
@<TRIPOS>MOLECULE
ZINC03814828
   55    57     0     0     0
SMALL
USER_CHARGES

@<TRIPOS>ATOM
      1 C1         -1.2162   -1.2622   -0.2217 C.3       1 <0>        -0.1536
      2 C2         -2.4898   -0.4569   -0.2032 C.ar      1 <0>         0.0087
      3 C3         -3.6751   -1.0376   -0.5496 C.ar      1 <0>        -0.1435
      4 C4         -4.8590   -0.3069   -0.5373 C.ar      1 <0>        -0.0375
      5 C5         -4.8687    1.0092   -0.1799 C.ar      1 <0>        -0.1391
      6 C6         -3.6692    1.6369    0.1811 C.ar      1 <0>         0.2343
      7 C7         -2.4654    0.8911    0.1683 C.ar      1 <0>        -0.2273
      8 C8         -1.2642    1.5472    0.5378 C.ar      1 <0>         0.5124
      9 N1         -1.3266    2.8249    0.8822 N.ar      1 <0>        -0.6208
     10 C9         -2.4789    3.4896    0.8757 C.ar      1 <0>         0.6010
     11 N2         -3.6249    2.9286    0.5409 N.ar      1 <0>        -0.6010
     12 N3         -2.4761    4.8237    1.2404 N.pl3     1 <0>        -0.8223
     13 N4         -0.0630    0.8714    0.5442 N.pl3     1 <0>        -0.8491
     14 C10        -3.7022   -2.4902   -0.9500 C.3       1 <0>         0.1673
     15 N5         -3.6787   -3.3284    0.2513 N.pl3     1 <0>        -0.7415
     16 C11        -3.6974   -4.7136    0.1329 C.ar      1 <0>         0.2242
     17 C12        -3.7441   -5.3025   -1.1278 C.ar      1 <0>        -0.2041
     18 C13        -3.7570   -6.6733   -1.2484 C.ar      1 <0>        -0.0360
     19 C14        -3.7342   -7.4745   -0.1030 C.ar      1 <0>        -0.1659
     20 C15        -3.6930   -6.8801    1.1616 C.ar      1 <0>        -0.0165
     21 C16        -3.6751   -5.5088    1.2754 C.ar      1 <0>        -0.2056
     22 C17        -3.7540   -8.9442   -0.2286 C.2       1 <0>         0.5576
     23 O1         -3.7345   -9.6399    0.7684 O.2       1 <0>        -0.5581
     24 N6         -3.7936   -9.5158   -1.4485 N.am      1 <0>        -0.6863
     25 C18        -3.8133  -10.9754   -1.5732 C.3       1 <0>         0.1003
     26 H1         -4.3853  -11.4027   -0.7496 H         1 <0>         0.0854
     27 C19        -4.4638  -11.3650   -2.9021 C.3       1 <0>        -0.0861
     28 C20        -5.9335  -10.9395   -2.8946 C.3       1 <0>        -0.1528
     29 C21        -6.5742  -11.3232   -4.2035 C.2       1 <0>         0.4613
     30 O2         -5.9223  -11.8799   -5.0550 O.co2     1 <0>        -0.6390
     31 C22        -2.4020  -11.5022   -1.5313 C.2       1 <0>         0.4650
     32 O3         -1.4749  -10.7370   -1.4097 O.co2     1 <0>        -0.6398
     33 H2         -0.9948   -1.6152    0.7855 H         1 <0>         0.0796
     34 H3         -1.3361   -2.1165   -0.8879 H         1 <0>         0.0839
     35 H4         -0.3964   -0.6374   -0.5761 H         1 <0>         0.0941
     36 H5         -5.7845   -0.7892   -0.8153 H         1 <0>         0.1341
     37 H6         -5.7952    1.5641   -0.1749 H         1 <0>         0.1369
     38 H7         -3.3055    5.3267    1.2463 H         1 <0>         0.4141
     39 H8         -1.6448    5.2564    1.4904 H         1 <0>         0.4113
     40 H9          0.7354    1.2981    0.1956 H         1 <0>         0.4069
     41 H10        -0.0151   -0.0293    0.9009 H         1 <0>         0.4196
     42 H11        -4.6103   -2.6938   -1.5174 H         1 <0>         0.0698
     43 H12        -2.8311   -2.7136   -1.5660 H         1 <0>         0.0722
     44 H13        -3.6502   -2.9170    1.1292 H         1 <0>         0.3970
     45 H14        -3.7658   -4.6829   -2.0121 H         1 <0>         0.1222
     46 H15        -3.7888   -7.1296   -2.2268 H         1 <0>         0.1274
     47 H16        -3.6749   -7.4964    2.0483 H         1 <0>         0.1324
     48 H17        -3.6433   -5.0490    2.2521 H         1 <0>         0.1189
     49 H18        -3.8092   -8.9608   -2.2439 H         1 <0>         0.3900
     50 H19        -3.9453  -10.8658   -3.7207 H         1 <0>         0.0567
     51 H20        -4.3989  -12.4448   -3.0357 H         1 <0>         0.0841
     52 H21        -6.4521  -11.4387   -2.0761 H         1 <0>         0.0605
     53 H22        -5.9985   -9.8597   -2.7611 H         1 <0>         0.0578
     54 O4         -7.8692  -11.0466   -4.4234 O.co2     1 <0>        -0.7910
     55 O5         -2.1749  -12.8215   -1.6290 O.co2     1 <0>        -0.7703
@<TRIPOS>BOND
     1    1    2 1
     2    1   33 1
     3    1   34 1
     4    1   35 1
     5    2    7 ar
     6    2    3 ar
     7    3    4 ar
     8    3   14 1
     9    4    5 ar
    10    4   36 1
    11    5    6 ar
    12    5   37 1
    13    6   11 ar
    14    6    7 ar
    15    7    8 ar
    16    8    9 ar
    17    8   13 1
    18    9   10 ar
    19   10   11 ar
    20   10   12 1
    21   12   38 1
    22   12   39 1
    23   13   40 1
    24   13   41 1
    25   14   15 1
    26   14   42 1
    27   14   43 1
    28   15   16 1
    29   15   44 1
    30   16   21 ar
    31   16   17 ar
    32   17   18 ar
    33   17   45 1
    34   18   19 ar
    35   18   46 1
    36   19   20 ar
    37   19   22 1
    38   20   21 ar
    39   20   47 1
    40   21   48 1
    41   22   23 2
    42   22   24 am
    43   24   25 1
    44   24   49 1
    45   25   26 1
    46   25   27 1
    47   25   31 1
    48   27   28 1
    49   27   50 1
    50   27   51 1
    51   28   29 1
    52   28   52 1
    53   28   53 1
    54   29   30 2
    55   29   54 1
    56   31   32 2
    57   31   55 1
@<TRIPOS>MOLECULE
ZINC03814828
   56    58     0     0     0
SMALL
USER_CHARGES

@<TRIPOS>ATOM
      1 C1         -1.2162   -1.2622   -0.2217 C.3       1 <0>        -0.1680
      2 C2         -2.4898   -0.4569   -0.2032 C.ar      1 <0>         0.0311
      3 C3         -3.6751   -1.0376   -0.5496 C.ar      1 <0>        -0.1084
      4 C4         -4.8590   -0.3069   -0.5373 C.ar      1 <0>         0.0057
      5 C5         -4.8687    1.0092   -0.1799 C.ar      1 <0>        -0.1590
      6 C6         -3.6692    1.6369    0.1811 C.ar      1 <0>         0.2052
      7 C7         -2.4654    0.8911    0.1683 C.ar      1 <0>        -0.1867
      8 C8         -1.2642    1.5472    0.5378 C.ar      1 <0>         0.5752
      9 N1         -1.3266    2.8249    0.8822 N.ar      1 <0>        -0.5796
     10 C9         -2.4789    3.4896    0.8757 C.ar      1 <0>         0.6816
     11 N2         -2.4761    4.8237    1.2404 N.pl3     1 <0>        -0.7916
     12 N3         -0.0630    0.8714    0.5442 N.pl3     1 <0>        -0.8051
     13 C10        -3.7022   -2.4902   -0.9500 C.3       1 <0>         0.1575
     14 N4         -3.6787   -3.3284    0.2513 N.pl3     1 <0>        -0.7476
     15 C11        -3.6974   -4.7136    0.1329 C.ar      1 <0>         0.2115
     16 C12        -3.7441   -5.3025   -1.1278 C.ar      1 <0>        -0.1992
     17 C13        -3.7570   -6.6733   -1.2484 C.ar      1 <0>        -0.0379
     18 C14        -3.7342   -7.4745   -0.1030 C.ar      1 <0>        -0.1515
     19 C15        -3.6930   -6.8801    1.1616 C.ar      1 <0>        -0.0181
     20 C16        -3.6751   -5.5088    1.2754 C.ar      1 <0>        -0.1980
     21 C17        -3.7540   -8.9442   -0.2286 C.2       1 <0>         0.5528
     22 O1         -3.7345   -9.6399    0.7684 O.2       1 <0>        -0.5534
     23 N5         -3.7936   -9.5158   -1.4485 N.am      1 <0>        -0.6831
     24 C18        -3.8133  -10.9754   -1.5732 C.3       1 <0>         0.0995
     25 H1         -4.3853  -11.4027   -0.7496 H         1 <0>         0.0868
     26 C19        -4.4638  -11.3650   -2.9021 C.3       1 <0>        -0.0869
     27 C20        -5.9335  -10.9395   -2.8946 C.3       1 <0>        -0.1522
     28 C21        -6.5742  -11.3232   -4.2035 C.2       1 <0>         0.4603
     29 O2         -5.9223  -11.8799   -5.0550 O.co2     1 <0>        -0.6373
     30 C22        -2.4020  -11.5022   -1.5313 C.2       1 <0>         0.4650
     31 O3         -1.4749  -10.7370   -1.4097 O.co2     1 <0>        -0.6421
     32 H2         -0.9948   -1.6152    0.7855 H         1 <0>         0.0995
     33 H3         -1.3361   -2.1165   -0.8879 H         1 <0>         0.1053
     34 H4         -0.3964   -0.6374   -0.5761 H         1 <0>         0.0996
     35 H5         -5.7845   -0.7892   -0.8153 H         1 <0>         0.1587
     36 H6         -5.7952    1.5641   -0.1749 H         1 <0>         0.1569
     37 H7         -3.3055    5.3267    1.2463 H         1 <0>         0.4290
     38 H8         -1.6448    5.2564    1.4904 H         1 <0>         0.4415
     39 H9          0.7354    1.2981    0.1956 H         1 <0>         0.4278
     40 H10        -0.0151   -0.0293    0.9009 H         1 <0>         0.4382
     41 H11        -4.6103   -2.6938   -1.5174 H         1 <0>         0.0807
     42 H12        -2.8311   -2.7136   -1.5660 H         1 <0>         0.0825
     43 H13        -3.6502   -2.9170    1.1292 H         1 <0>         0.3961
     44 H14        -3.7658   -4.6829   -2.0121 H         1 <0>         0.1218
     45 H15        -3.7888   -7.1296   -2.2268 H         1 <0>         0.1307
     46 H16        -3.6749   -7.4964    2.0483 H         1 <0>         0.1360
     47 H17        -3.6433   -5.0490    2.2521 H         1 <0>         0.1196
     48 H18        -3.8092   -8.9608   -2.2439 H         1 <0>         0.3896
     49 H19        -3.9453  -10.8658   -3.7207 H         1 <0>         0.0570
     50 H20        -4.3989  -12.4448   -3.0357 H         1 <0>         0.0859
     51 H21        -6.4521  -11.4387   -2.0761 H         1 <0>         0.0610
     52 H22        -5.9985   -9.8597   -2.7611 H         1 <0>         0.0559
     53 O4         -7.8692  -11.0466   -4.4234 O.co2     1 <0>        -0.7904
     54 O5         -2.1749  -12.8215   -1.6290 O.co2     1 <0>        -0.7657
     55 N6         -3.6848    2.9674    0.5420 N.ar      1 <0>        -0.5994
     56 H23        -4.5030    3.5416    0.5692 H         1 <0>         0.4555
@<TRIPOS>BOND
     1    1    2 1
     2    1   32 1
     3    1   33 1
     4    1   34 1
     5    2    7 ar
     6    2    3 ar
     7    3    4 ar
     8    3   13 1
     9    4    5 ar
    10    4   35 1
    11    5    6 ar
    12    5   36 1
    13    6    7 ar
    14    6   55 ar
    15    7    8 ar
    16    8    9 ar
    17    8   12 1
    18    9   10 ar
    19   10   11 1
    20   10   55 ar
    21   11   37 1
    22   11   38 1
    23   12   39 1
    24   12   40 1
    25   13   14 1
    26   13   41 1
    27   13   42 1
    28   14   15 1
    29   14   43 1
    30   15   20 ar
    31   15   16 ar
    32   16   17 ar
    33   16   44 1
    34   17   18 ar
    35   17   45 1
    36   18   19 ar
    37   18   21 1
    38   19   20 ar
    39   19   46 1
    40   20   47 1
    41   21   22 2
    42   21   23 am
    43   23   24 1
    44   23   48 1
    45   24   25 1
    46   24   26 1
    47   24   30 1
    48   26   27 1
    49   26   49 1
    50   26   50 1
    51   27   28 1
    52   27   51 1
    53   27   52 1
    54   28   29 2
    55   28   53 1
    56   30   31 2
    57   30   54 1
    58   55   56 1
@<TRIPOS>MOLECULE
ZINC03814829
   38    40     0     0     0
SMALL
USER_CHARGES

@<TRIPOS>ATOM
      1 C1         -0.0290   -2.8218   -0.0128 C.3       1 <0>         0.0946
      2 N1          1.2316   -2.0754   -0.0204 N.pl3     1 <0>        -0.6280
      3 C2          2.5082   -2.7938   -0.0359 C.3       1 <0>         0.1848
      4 C3          2.9590   -3.0478    1.3794 C.ar      1 <0>         0.0230
      5 C4          2.6599   -4.2647    1.9914 C.ar      1 <0>         0.1467
      6 N2          3.0433   -4.5098    3.2264 N.ar      1 <0>        -0.4457
      7 C5          3.7266   -3.5816    3.9005 C.ar      1 <0>         0.3710
      8 C6          4.0278   -2.3466    3.2738 C.ar      1 <0>        -0.0866
      9 N3          3.6356   -2.1212    2.0240 N.ar      1 <0>        -0.3569
     10 C7          4.7784   -1.3540    4.0448 C.ar      1 <0>         0.5466
     11 N4          5.1297   -1.6726    5.2830 N.ar      1 <0>        -0.6330
     12 C8          4.8127   -2.8517    5.8085 C.ar      1 <0>         0.6393
     13 N5          4.1395   -3.7801    5.1585 N.ar      1 <0>        -0.6077
     14 N6          5.2103   -3.1185    7.1047 N.pl3     1 <0>        -0.8103
     15 N7          5.1079   -0.1311    3.5028 N.pl3     1 <0>        -0.7837
     16 C9          1.2163   -0.6854   -0.0128 C.ar      1 <0>         0.2017
     17 C10         0.0021   -0.0041    0.0020 C.ar      1 <0>        -0.2082
     18 C11        -0.0165    1.3669    0.0096 C.ar      1 <0>        -0.0457
     19 C12         1.1860    2.0810    0.0019 C.ar      1 <0>        -0.1638
     20 C13         2.4038    1.3935   -0.0129 C.ar      1 <0>        -0.0377
     21 C14         2.4153    0.0225   -0.0204 C.ar      1 <0>        -0.1971
     22 C15         1.1698    3.5547    0.0105 C.2       1 <0>         0.4922
     23 O1          0.1109    4.1506    0.0242 O.co2     1 <0>        -0.6399
     24 H1         -0.3510   -3.0014   -1.0386 H         1 <0>         0.0488
     25 H2          0.1165   -3.7755    0.4946 H         1 <0>         0.0599
     26 H3         -0.7903   -2.2439    0.5111 H         1 <0>         0.0679
     27 H4          2.3836   -3.7448   -0.5538 H         1 <0>         0.0945
     28 H5          3.2566   -2.1937   -0.5534 H         1 <0>         0.0974
     29 H6          2.1069   -5.0147    1.4456 H         1 <0>         0.1755
     30 H7          4.9927   -3.9711    7.5130 H         1 <0>         0.4173
     31 H8          5.7070   -2.4532    7.6063 H         1 <0>         0.4157
     32 H9          5.6055    0.5143    4.0288 H         1 <0>         0.4167
     33 H10         4.8424    0.0845    2.5951 H         1 <0>         0.4304
     34 H11        -0.9261   -0.5561    0.0079 H         1 <0>         0.1140
     35 H12        -0.9587    1.8947    0.0169 H         1 <0>         0.1230
     36 H13         3.3342    1.9420   -0.0185 H         1 <0>         0.1266
     37 H14         3.3554   -0.5089   -0.0319 H         1 <0>         0.1203
     38 O2          2.3293    4.2413    0.0031 O.co2     1 <0>        -0.7637
@<TRIPOS>BOND
     1    1    2 1
     2    1   24 1
     3    1   25 1
     4    1   26 1
     5    2    3 1
     6    2   16 1
     7    3    4 1
     8    3   27 1
     9    3   28 1
    10    4    9 ar
    11    4    5 ar
    12    5    6 ar
    13    5   29 1
    14    6    7 ar
    15    7   13 ar
    16    7    8 ar
    17    8    9 ar
    18    8   10 ar
    19   10   11 ar
    20   10   15 1
    21   11   12 ar
    22   12   13 ar
    23   12   14 1
    24   14   30 1
    25   14   31 1
    26   15   32 1
    27   15   33 1
    28   16   21 ar
    29   16   17 ar
    30   17   18 ar
    31   17   34 1
    32   18   19 ar
    33   18   35 1
    34   19   20 ar
    35   19   22 1
    36   20   21 ar
    37   20   36 1
    38   21   37 1
    39   22   23 2
    40   22   38 1
@<TRIPOS>MOLECULE
ZINC03814829
   39    41     0     0     0
SMALL
USER_CHARGES

@<TRIPOS>ATOM
      1 C1         -0.0290   -2.8218   -0.0128 C.3       1 <0>         0.0906
      2 N1          1.2316   -2.0754   -0.0204 N.pl3     1 <0>        -0.6284
      3 C2          2.5082   -2.7938   -0.0359 C.3       1 <0>         0.1728
      4 C3          2.9590   -3.0478    1.3794 C.ar      1 <0>         0.0776
      5 C4          2.6599   -4.2647    1.9914 C.ar      1 <0>         0.1701
      6 N2          3.0433   -4.5098    3.2264 N.ar      1 <0>        -0.4477
      7 C5          3.7266   -3.5816    3.9005 C.ar      1 <0>         0.3308
      8 C6          4.0278   -2.3466    3.2738 C.ar      1 <0>        -0.0079
      9 N3          3.6356   -2.1212    2.0240 N.ar      1 <0>        -0.3443
     10 C7          4.7784   -1.3540    4.0448 C.ar      1 <0>         0.5796
     11 N4          5.1297   -1.6726    5.2830 N.ar      1 <0>        -0.5778
     12 C8          4.8127   -2.8517    5.8085 C.ar      1 <0>         0.7107
     13 N5          5.2103   -3.1185    7.1047 N.pl3     1 <0>        -0.7815
     14 N6          5.1079   -0.1311    3.5028 N.pl3     1 <0>        -0.7196
     15 C9          1.2163   -0.6854   -0.0128 C.ar      1 <0>         0.1875
     16 C10         0.0021   -0.0041    0.0020 C.ar      1 <0>        -0.1988
     17 C11        -0.0165    1.3669    0.0096 C.ar      1 <0>        -0.0441
     18 C12         1.1860    2.0810    0.0019 C.ar      1 <0>        -0.1515
     19 C13         2.4038    1.3935   -0.0129 C.ar      1 <0>        -0.0412
     20 C14         2.4153    0.0225   -0.0204 C.ar      1 <0>        -0.2011
     21 C15         1.1698    3.5547    0.0105 C.2       1 <0>         0.4876
     22 O1          0.1109    4.1506    0.0242 O.co2     1 <0>        -0.6319
     23 H1         -0.3510   -3.0014   -1.0386 H         1 <0>         0.0565
     24 H2          0.1165   -3.7755    0.4946 H         1 <0>         0.0591
     25 H3         -0.7903   -2.2439    0.5111 H         1 <0>         0.0730
     26 H4          2.3836   -3.7448   -0.5538 H         1 <0>         0.1091
     27 H5          3.2566   -2.1937   -0.5534 H         1 <0>         0.1108
     28 H6          2.1069   -5.0147    1.4456 H         1 <0>         0.2025
     29 H7          4.9927   -3.9711    7.5130 H         1 <0>         0.4316
     30 H8          5.7070   -2.4532    7.6063 H         1 <0>         0.4447
     31 H9          5.6055    0.5143    4.0288 H         1 <0>         0.4377
     32 H10         4.8424    0.0845    2.5951 H         1 <0>         0.4485
     33 H11        -0.9261   -0.5561    0.0079 H         1 <0>         0.1173
     34 H12        -0.9587    1.8947    0.0169 H         1 <0>         0.1279
     35 H13         3.3342    1.9420   -0.0185 H         1 <0>         0.1295
     36 H14         3.3554   -0.5089   -0.0319 H         1 <0>         0.1172
     37 O2          2.3293    4.2413    0.0031 O.co2     1 <0>        -0.7594
     38 N7          4.1240   -3.8457    5.1932 N.ar      1 <0>        -0.5968
     39 H15         3.9005   -4.7242    5.6154 H         1 <0>         0.4594
@<TRIPOS>BOND
     1    1    2 1
     2    1   23 1
     3    1   24 1
     4    1   25 1
     5    2    3 1
     6    2   15 1
     7    3    4 1
     8    3   26 1
     9    3   27 1
    10    4    9 ar
    11    4    5 ar
    12    5    6 ar
    13    5   28 1
    14    6    7 ar
    15    7    8 ar
    16    7   38 ar
    17    8    9 ar
    18    8   10 ar
    19   10   11 ar
    20   10   14 1
    21   11   12 ar
    22   12   13 1
    23   12   38 ar
    24   13   29 1
    25   13   30 1
    26   14   31 1
    27   14   32 1
    28   15   20 ar
    29   15   16 ar
    30   16   17 ar
    31   16   33 1
    32   17   18 ar
    33   17   34 1
    34   18   19 ar
    35   18   21 1
    36   19   20 ar
    37   19   35 1
    38   20   36 1
    39   21   22 2
    40   21   37 1
    41   38   39 1
@<TRIPOS>MOLECULE
ZINC03814830
   44    46     0     0     0
SMALL
USER_CHARGES

@<TRIPOS>ATOM
      1 C1          0.0781    4.8096   -0.5568 C.3       1 <0>        -0.0956
      2 C2         -0.1207    3.3690   -0.1616 C.ar      1 <0>        -0.0725
      3 C3          0.9586    2.5281   -0.0730 C.ar      1 <0>        -0.0872
      4 C4          0.7739    1.1929    0.2999 C.ar      1 <0>        -0.1036
      5 C5         -0.5125    0.7186    0.5757 C.ar      1 <0>        -0.0739
      6 C6         -1.5882    1.5635    0.4797 C.ar      1 <0>        -0.1307
      7 C7         -1.4008    2.8921    0.1077 C.ar      1 <0>         0.0724
      8 N1         -2.4936    3.7458    0.0109 N.pl3     1 <0>        -0.4846
      9 C8         -3.3695    3.3557   -1.1020 C.3       1 <0>         0.0111
     10 C9         -3.2389    3.7925    1.2759 C.3       1 <0>         0.0970
     11 C10        -4.2591    4.9001    1.2173 C.ar      1 <0>         0.0628
     12 C11        -5.5699    4.6121    0.8386 C.ar      1 <0>         0.1429
     13 N2         -6.4786    5.5624    0.7805 N.ar      1 <0>        -0.4418
     14 C12        -6.1403    6.8170    1.0880 C.ar      1 <0>         0.3677
     15 C13        -4.8067    7.1042    1.4723 C.ar      1 <0>        -0.0876
     16 N3         -3.9055    6.1288    1.5294 N.ar      1 <0>        -0.3610
     17 C14        -4.4740    8.4912    1.8019 C.ar      1 <0>         0.5446
     18 N4         -5.4421    9.3933    1.7199 N.ar      1 <0>        -0.6314
     19 C15        -6.6731    9.0529    1.3514 C.ar      1 <0>         0.6369
     20 N5         -7.0256    7.8203    1.0447 N.ar      1 <0>        -0.6035
     21 N6         -7.6343   10.0436    1.2869 N.pl3     1 <0>        -0.8106
     22 N7         -3.1989    8.8468    2.1836 N.pl3     1 <0>        -0.7904
     23 C16        -2.9747    1.0533    0.7767 C.3       1 <0>        -0.1274
     24 C17         1.9325    0.2877    0.4025 C.2       1 <0>         0.4875
     25 O1          3.0497    0.7013    0.1630 O.co2     1 <0>        -0.6311
     26 H1         -0.0788    4.9169   -1.6301 H         1 <0>         0.0586
     27 H2         -0.6358    5.4352   -0.0210 H         1 <0>         0.0720
     28 H3          1.0926    5.1187   -0.3053 H         1 <0>         0.0550
     29 H4          1.9507    2.8974   -0.2867 H         1 <0>         0.1282
     30 H5         -0.6585   -0.3118    0.8643 H         1 <0>         0.1290
     31 H6         -3.4875    2.2721   -1.1089 H         1 <0>         0.0517
     32 H7         -4.3448    3.8266   -0.9791 H         1 <0>         0.0619
     33 H8         -2.9261    3.6789   -2.0439 H         1 <0>         0.0708
     34 H9         -3.7451    2.8403    1.4348 H         1 <0>         0.0782
     35 H10        -2.5478    3.9782    2.0981 H         1 <0>         0.0973
     36 H11        -5.8426    3.5972    0.5897 H         1 <0>         0.1772
     37 H12        -8.5408    9.8232    1.0213 H         1 <0>         0.4180
     38 H13        -7.4025   10.9593    1.5072 H         1 <0>         0.4153
     39 H14        -2.9968    9.7710    2.3980 H         1 <0>         0.4147
     40 H15        -2.5033    8.1730    2.2380 H         1 <0>         0.4283
     41 H16        -3.1537    1.0919    1.8512 H         1 <0>         0.0689
     42 H17        -3.7083    1.6752    0.2636 H         1 <0>         0.0716
     43 H18        -3.0652    0.0239    0.4300 H         1 <0>         0.0684
     44 O2          1.7529   -0.9986    0.7620 O.co2     1 <0>        -0.7550
@<TRIPOS>BOND
     1    1    2 1
     2    1   26 1
     3    1   27 1
     4    1   28 1
     5    2    7 ar
     6    2    3 ar
     7    3    4 ar
     8    3   29 1
     9    4    5 ar
    10    4   24 1
    11    5    6 ar
    12    5   30 1
    13    6    7 ar
    14    6   23 1
    15    7    8 1
    16    8    9 1
    17    8   10 1
    18    9   31 1
    19    9   32 1
    20    9   33 1
    21   10   11 1
    22   10   34 1
    23   10   35 1
    24   11   16 ar
    25   11   12 ar
    26   12   13 ar
    27   12   36 1
    28   13   14 ar
    29   14   20 ar
    30   14   15 ar
    31   15   16 ar
    32   15   17 ar
    33   17   18 ar
    34   17   22 1
    35   18   19 ar
    36   19   20 ar
    37   19   21 1
    38   21   37 1
    39   21   38 1
    40   22   39 1
    41   22   40 1
    42   23   41 1
    43   23   42 1
    44   23   43 1
    45   24   25 2
    46   24   44 1
@<TRIPOS>MOLECULE
ZINC03814830
   45    47     0     0     0
SMALL
USER_CHARGES

@<TRIPOS>ATOM
      1 C1          0.0781    4.8096   -0.5568 C.3       1 <0>        -0.0954
      2 C2         -0.1207    3.3690   -0.1616 C.ar      1 <0>        -0.0687
      3 C3          0.9586    2.5281   -0.0730 C.ar      1 <0>        -0.0867
      4 C4          0.7739    1.1929    0.2999 C.ar      1 <0>        -0.0924
      5 C5         -0.5125    0.7186    0.5757 C.ar      1 <0>        -0.0728
      6 C6         -1.5882    1.5635    0.4797 C.ar      1 <0>        -0.1286
      7 C7         -1.4008    2.8921    0.1077 C.ar      1 <0>         0.0576
      8 N1         -2.4936    3.7458    0.0109 N.pl3     1 <0>        -0.4799
      9 C8         -3.3695    3.3557   -1.1020 C.3       1 <0>         0.0067
     10 C9         -3.2389    3.7925    1.2759 C.3       1 <0>         0.0792
     11 C10        -4.2591    4.9001    1.2173 C.ar      1 <0>         0.1169
     12 C11        -5.5699    4.6121    0.8386 C.ar      1 <0>         0.1668
     13 N2         -6.4786    5.5624    0.7805 N.ar      1 <0>        -0.4445
     14 C12        -6.1403    6.8170    1.0880 C.ar      1 <0>         0.3276
     15 C13        -4.8067    7.1042    1.4723 C.ar      1 <0>        -0.0106
     16 N3         -3.9055    6.1288    1.5294 N.ar      1 <0>        -0.3464
     17 C14        -4.4740    8.4912    1.8019 C.ar      1 <0>         0.5818
     18 N4         -5.4421    9.3933    1.7199 N.ar      1 <0>        -0.5781
     19 C15        -6.6731    9.0529    1.3514 C.ar      1 <0>         0.7107
     20 N5         -7.6343   10.0436    1.2869 N.pl3     1 <0>        -0.7806
     21 N6         -3.1989    8.8468    2.1836 N.pl3     1 <0>        -0.7282
     22 C16        -2.9747    1.0533    0.7767 C.3       1 <0>        -0.1283
     23 C17         1.9325    0.2877    0.4025 C.2       1 <0>         0.4833
     24 O1          3.0497    0.7013    0.1630 O.co2     1 <0>        -0.6259
     25 H1         -0.0788    4.9169   -1.6301 H         1 <0>         0.0603
     26 H2         -0.6358    5.4352   -0.0210 H         1 <0>         0.0669
     27 H3          1.0926    5.1187   -0.3053 H         1 <0>         0.0585
     28 H4          1.9507    2.8974   -0.2867 H         1 <0>         0.1316
     29 H5         -0.6585   -0.3118    0.8643 H         1 <0>         0.1325
     30 H6         -3.4875    2.2721   -1.1089 H         1 <0>         0.0596
     31 H7         -4.3448    3.8266   -0.9791 H         1 <0>         0.0529
     32 H8         -2.9261    3.6789   -2.0439 H         1 <0>         0.0786
     33 H9         -3.7451    2.8403    1.4348 H         1 <0>         0.0927
     34 H10        -2.5478    3.9782    2.0981 H         1 <0>         0.1121
     35 H11        -5.8426    3.5972    0.5897 H         1 <0>         0.2040
     36 H12        -8.5408    9.8232    1.0213 H         1 <0>         0.4325
     37 H13        -7.4025   10.9593    1.5072 H         1 <0>         0.4446
     38 H14        -2.9968    9.7710    2.3980 H         1 <0>         0.4356
     39 H15        -2.5033    8.1730    2.2380 H         1 <0>         0.4465
     40 H16        -3.1537    1.0919    1.8512 H         1 <0>         0.0699
     41 H17        -3.7083    1.6752    0.2636 H         1 <0>         0.0666
     42 H18        -3.0652    0.0239    0.4300 H         1 <0>         0.0738
     43 O2          1.7529   -0.9986    0.7620 O.co2     1 <0>        -0.7492
     44 N7         -7.0973    7.8063    1.0243 N.ar      1 <0>        -0.5944
     45 H19        -8.0322    7.5806    0.7506 H         1 <0>         0.4606
@<TRIPOS>BOND
     1    1    2 1
     2    1   25 1
     3    1   26 1
     4    1   27 1
     5    2    7 ar
     6    2    3 ar
     7    3    4 ar
     8    3   28 1
     9    4    5 ar
    10    4   23 1
    11    5    6 ar
    12    5   29 1
    13    6    7 ar
    14    6   22 1
    15    7    8 1
    16    8    9 1
    17    8   10 1
    18    9   30 1
    19    9   31 1
    20    9   32 1
    21   10   11 1
    22   10   33 1
    23   10   34 1
    24   11   16 ar
    25   11   12 ar
    26   12   13 ar
    27   12   35 1
    28   13   14 ar
    29   14   15 ar
    30   14   44 ar
    31   15   16 ar
    32   15   17 ar
    33   17   18 ar
    34   17   21 1
    35   18   19 ar
    36   19   20 1
    37   19   44 ar
    38   20   36 1
    39   20   37 1
    40   21   38 1
    41   21   39 1
    42   22   40 1
    43   22   41 1
    44   22   42 1
    45   23   24 2
    46   23   43 1
    47   44   45 1
@<TRIPOS>MOLECULE
ZINC03814831
   56    58     0     0     0
SMALL
USER_CHARGES

@<TRIPOS>ATOM
      1 C1          2.5719    0.3176    1.2122 C.3       1 <0>         0.0232
      2 N1          2.3963    1.1067   -0.0144 N.pl3     1 <0>        -0.5034
      3 C2          2.5083    0.2570   -1.2075 C.3       1 <0>         0.1149
      4 C3          3.9158   -0.2700   -1.3186 C.ar      1 <0>         0.0585
      5 C4          4.2253   -1.5270   -0.8002 C.ar      1 <0>         0.1466
      6 N2          5.4471   -2.0087   -0.8856 N.ar      1 <0>        -0.4422
      7 C5          6.4010   -1.2844   -1.4758 C.ar      1 <0>         0.3700
      8 C6          6.0811   -0.0075   -2.0009 C.ar      1 <0>        -0.0876
      9 N3          4.8396    0.4584   -1.9086 N.ar      1 <0>        -0.3545
     10 C7          7.1534    0.7569   -2.6405 C.ar      1 <0>         0.5461
     11 N4          8.3586    0.2063   -2.6883 N.ar      1 <0>        -0.6328
     12 C8          8.5880   -0.9979   -2.1741 C.ar      1 <0>         0.6375
     13 N5          7.6594   -1.7274   -1.5885 N.ar      1 <0>        -0.6042
     14 N6          9.8677   -1.5123   -2.2584 N.pl3     1 <0>        -0.8110
     15 N7          6.9185    2.0052   -3.1737 N.pl3     1 <0>        -0.7887
     16 C9          1.1841    1.7876    0.0004 C.ar      1 <0>         0.1444
     17 C10        -0.0126    1.0758    0.0080 C.ar      1 <0>        -0.1548
     18 C11        -1.2137    1.7468    0.0173 C.ar      1 <0>        -0.0441
     19 C12        -1.2318    3.1447    0.0298 C.ar      1 <0>        -0.1063
     20 C13        -0.0288    3.8564    0.0217 C.ar      1 <0>        -0.0155
     21 C14         1.1694    3.1795    0.0070 C.ar      1 <0>        -0.1707
     22 C15         2.4669    3.9460   -0.0012 C.3       1 <0>         0.5230
     23 F1          2.1976    5.3188    0.0077 F         1 <0>        -0.1819
     24 F2          3.2143    3.6100    1.1327 F         1 <0>        -0.1754
     25 F3          3.1933    3.6208   -1.1517 F         1 <0>        -0.1702
     26 C16        -2.5179    3.8672    0.0450 C.2       1 <0>         0.5516
     27 O1         -2.5322    5.0831    0.0505 O.2       1 <0>        -0.5423
     28 N8         -3.6770    3.1796    0.0528 N.am      1 <0>        -0.6794
     29 C17        -4.9542    3.8971    0.0679 C.3       1 <0>         0.0990
     30 H1         -4.8532    4.8064    0.6604 H         1 <0>         0.0884
     31 C18        -6.0334    3.0043    0.6838 C.3       1 <0>        -0.0867
     32 C19        -5.6998    2.7408    2.1535 C.3       1 <0>        -0.1532
     33 C20        -6.7628    1.8615    2.7601 C.2       1 <0>         0.4609
     34 O2         -7.6919    1.4843    2.0860 O.co2     1 <0>        -0.6382
     35 C21        -5.3448    4.2573   -1.3423 C.2       1 <0>         0.4652
     36 O3         -4.6296    3.9466   -2.2653 O.co2     1 <0>        -0.6397
     37 H2          1.7638   -0.4091    1.2955 H         1 <0>         0.0439
     38 H3          3.5278   -0.2047    1.1745 H         1 <0>         0.0700
     39 H4          2.5543    0.9812    2.0767 H         1 <0>         0.0790
     40 H5          1.8130   -0.5784   -1.1252 H         1 <0>         0.0701
     41 H6          2.2687    0.8431   -2.0947 H         1 <0>         0.1039
     42 H7          3.4533   -2.1121   -0.3227 H         1 <0>         0.1789
     43 H8         10.0632   -2.3888   -1.8918 H         1 <0>         0.4176
     44 H9         10.5706   -0.9969   -2.6842 H         1 <0>         0.4150
     45 H10         7.6414    2.4972   -3.5935 H         1 <0>         0.4146
     46 H11         6.0301    2.3922   -3.1295 H         1 <0>         0.4296
     47 H12         0.0021   -0.0041    0.0020 H         1 <0>         0.1379
     48 H13        -2.1416    1.1941    0.0186 H         1 <0>         0.1412
     49 H14        -0.0396    4.9364    0.0265 H         1 <0>         0.1543
     50 H15        -3.6656    2.2097    0.0484 H         1 <0>         0.3913
     51 H16        -7.0004    3.5027    0.6144 H         1 <0>         0.0864
     52 H17        -6.0730    2.0577    0.1448 H         1 <0>         0.0579
     53 H18        -4.7329    2.2425    2.2229 H         1 <0>         0.0567
     54 H19        -5.6602    3.6874    2.6925 H         1 <0>         0.0614
     55 O4         -6.6774    1.4974    4.0492 O.co2     1 <0>        -0.7898
     56 O5         -6.4871    4.9233   -1.5731 O.co2     1 <0>        -0.7660
@<TRIPOS>BOND
     1    1    2 1
     2    1   37 1
     3    1   38 1
     4    1   39 1
     5    2    3 1
     6    2   16 1
     7    3    4 1
     8    3   40 1
     9    3   41 1
    10    4    9 ar
    11    4    5 ar
    12    5    6 ar
    13    5   42 1
    14    6    7 ar
    15    7   13 ar
    16    7    8 ar
    17    8    9 ar
    18    8   10 ar
    19   10   11 ar
    20   10   15 1
    21   11   12 ar
    22   12   13 ar
    23   12   14 1
    24   14   43 1
    25   14   44 1
    26   15   45 1
    27   15   46 1
    28   16   21 ar
    29   16   17 ar
    30   17   18 ar
    31   17   47 1
    32   18   19 ar
    33   18   48 1
    34   19   20 ar
    35   19   26 1
    36   20   21 ar
    37   20   49 1
    38   21   22 1
    39   22   23 1
    40   22   24 1
    41   22   25 1
    42   26   27 2
    43   26   28 am
    44   28   29 1
    45   28   50 1
    46   29   30 1
    47   29   31 1
    48   29   35 1
    49   31   32 1
    50   31   51 1
    51   31   52 1
    52   32   33 1
    53   32   53 1
    54   32   54 1
    55   33   34 2
    56   33   55 1
    57   35   36 2
    58   35   56 1
@<TRIPOS>MOLECULE
ZINC03814831
   57    59     0     0     0
SMALL
USER_CHARGES

@<TRIPOS>ATOM
      1 C1          2.5719    0.3176    1.2122 C.3       1 <0>         0.0181
      2 N1          2.3963    1.1067   -0.0144 N.pl3     1 <0>        -0.5002
      3 C2          2.5083    0.2570   -1.2075 C.3       1 <0>         0.0977
      4 C3          3.9158   -0.2700   -1.3186 C.ar      1 <0>         0.1130
      5 C4          4.2253   -1.5270   -0.8002 C.ar      1 <0>         0.1707
      6 N2          5.4471   -2.0087   -0.8856 N.ar      1 <0>        -0.4447
      7 C5          6.4010   -1.2844   -1.4758 C.ar      1 <0>         0.3303
      8 C6          6.0811   -0.0075   -2.0009 C.ar      1 <0>        -0.0107
      9 N3          4.8396    0.4584   -1.9086 N.ar      1 <0>        -0.3405
     10 C7          7.1534    0.7569   -2.6405 C.ar      1 <0>         0.5821
     11 N4          8.3586    0.2063   -2.6883 N.ar      1 <0>        -0.5787
     12 C8          8.5880   -0.9979   -2.1741 C.ar      1 <0>         0.7109
     13 N5          9.8677   -1.5123   -2.2584 N.pl3     1 <0>        -0.7815
     14 N6          6.9185    2.0052   -3.1737 N.pl3     1 <0>        -0.7260
     15 C9          1.1841    1.7876    0.0004 C.ar      1 <0>         0.1293
     16 C10        -0.0126    1.0758    0.0080 C.ar      1 <0>        -0.1510
     17 C11        -1.2137    1.7468    0.0173 C.ar      1 <0>        -0.0434
     18 C12        -1.2318    3.1447    0.0298 C.ar      1 <0>        -0.0944
     19 C13        -0.0288    3.8564    0.0217 C.ar      1 <0>        -0.0153
     20 C14         1.1694    3.1795    0.0070 C.ar      1 <0>        -0.1673
     21 C15         2.4669    3.9460   -0.0012 C.3       1 <0>         0.5239
     22 F1          2.1976    5.3188    0.0077 F         1 <0>        -0.1768
     23 F2          3.2143    3.6100    1.1327 F         1 <0>        -0.1760
     24 F3          3.1933    3.6208   -1.1517 F         1 <0>        -0.1763
     25 C16        -2.5179    3.8672    0.0450 C.2       1 <0>         0.5468
     26 O1         -2.5322    5.0831    0.0505 O.2       1 <0>        -0.5383
     27 N7         -3.6770    3.1796    0.0528 N.am      1 <0>        -0.6760
     28 C17        -4.9542    3.8971    0.0679 C.3       1 <0>         0.0982
     29 H1         -4.8532    4.8064    0.6604 H         1 <0>         0.0898
     30 C18        -6.0334    3.0043    0.6838 C.3       1 <0>        -0.0875
     31 C19        -5.6998    2.7408    2.1535 C.3       1 <0>        -0.1528
     32 C20        -6.7628    1.8615    2.7601 C.2       1 <0>         0.4599
     33 O2         -7.6919    1.4843    2.0860 O.co2     1 <0>        -0.6366
     34 C21        -5.3448    4.2573   -1.3423 C.2       1 <0>         0.4654
     35 O3         -4.6296    3.9466   -2.2653 O.co2     1 <0>        -0.6423
     36 H2          1.7638   -0.4091    1.2955 H         1 <0>         0.0507
     37 H3          3.5278   -0.2047    1.1745 H         1 <0>         0.0625
     38 H4          2.5543    0.9812    2.0767 H         1 <0>         0.0874
     39 H5          1.8130   -0.5784   -1.1252 H         1 <0>         0.0854
     40 H6          2.2687    0.8431   -2.0947 H         1 <0>         0.1184
     41 H7          3.4533   -2.1121   -0.3227 H         1 <0>         0.2059
     42 H8         10.0632   -2.3888   -1.8918 H         1 <0>         0.4322
     43 H9         10.5706   -0.9969   -2.6842 H         1 <0>         0.4442
     44 H10         7.6414    2.4972   -3.5935 H         1 <0>         0.4356
     45 H11         6.0301    2.3922   -3.1295 H         1 <0>         0.4478
     46 H12         0.0021   -0.0041    0.0020 H         1 <0>         0.1381
     47 H13        -2.1416    1.1941    0.0186 H         1 <0>         0.1447
     48 H14        -0.0396    4.9364    0.0265 H         1 <0>         0.1574
     49 H15        -3.6656    2.2097    0.0484 H         1 <0>         0.3909
     50 H16        -7.0004    3.5027    0.6144 H         1 <0>         0.0882
     51 H17        -6.0730    2.0577    0.1448 H         1 <0>         0.0582
     52 H18        -4.7329    2.2425    2.2229 H         1 <0>         0.0549
     53 H19        -5.6602    3.6874    2.6925 H         1 <0>         0.0619
     54 O4         -6.6774    1.4974    4.0492 O.co2     1 <0>        -0.7888
     55 O5         -6.4871    4.9233   -1.5731 O.co2     1 <0>        -0.7612
     56 N8          7.6778   -1.7956   -1.5608 N.ar      1 <0>        -0.5948
     57 H20         7.8809   -2.6990   -1.1833 H         1 <0>         0.4605
@<TRIPOS>BOND
     1    1    2 1
     2    1   36 1
     3    1   37 1
     4    1   38 1
     5    2    3 1
     6    2   15 1
     7    3    4 1
     8    3   39 1
     9    3   40 1
    10    4    9 ar
    11    4    5 ar
    12    5    6 ar
    13    5   41 1
    14    6    7 ar
    15    7    8 ar
    16    7   56 ar
    17    8    9 ar
    18    8   10 ar
    19   10   11 ar
    20   10   14 1
    21   11   12 ar
    22   12   13 1
    23   12   56 ar
    24   13   42 1
    25   13   43 1
    26   14   44 1
    27   14   45 1
    28   15   20 ar
    29   15   16 ar
    30   16   17 ar
    31   16   46 1
    32   17   18 ar
    33   17   47 1
    34   18   19 ar
    35   18   25 1
    36   19   20 ar
    37   19   48 1
    38   20   21 1
    39   21   22 1
    40   21   23 1
    41   21   24 1
    42   25   26 2
    43   25   27 am
    44   27   28 1
    45   27   49 1
    46   28   29 1
    47   28   30 1
    48   28   34 1
    49   30   31 1
    50   30   50 1
    51   30   51 1
    52   31   32 1
    53   31   52 1
    54   31   53 1
    55   32   33 2
    56   32   54 1
    57   34   35 2
    58   34   55 1
    59   56   57 1
@<TRIPOS>MOLECULE
ZINC03814832
   58    60     0     0     0
SMALL
USER_CHARGES

@<TRIPOS>ATOM
      1 C1          1.3912   -2.6635   -2.2418 C.3       1 <0>        -0.1574
      2 C2          1.0535   -2.1846   -0.8285 C.3       1 <0>        -0.1336
      3 C3          1.0543   -0.6779   -0.7950 C.ar      1 <0>         0.0135
      4 C4         -0.1023    0.0147   -1.0056 C.ar      1 <0>        -0.1407
      5 C5         -0.1171    1.4057   -0.9772 C.ar      1 <0>        -0.0386
      6 C6          1.0225    2.1157   -0.7385 C.ar      1 <0>        -0.1379
      7 C7          2.2278    1.4361   -0.5182 C.ar      1 <0>         0.2326
      8 C8          2.2405    0.0203   -0.5475 C.ar      1 <0>        -0.2237
      9 C9          3.4714   -0.6458   -0.3214 C.ar      1 <0>         0.5116
     10 N1          4.5503    0.0883   -0.0940 N.ar      1 <0>        -0.6173
     11 C10         4.4938    1.4173   -0.0748 C.ar      1 <0>         0.5990
     12 N2          3.3759    2.0874   -0.2787 N.ar      1 <0>        -0.5988
     13 N3          5.6560    2.1263    0.1688 N.pl3     1 <0>        -0.8223
     14 N4          3.5436   -2.0221   -0.3377 N.pl3     1 <0>        -0.8554
     15 C11        -1.3810   -0.7370   -1.2718 C.3       1 <0>         0.1673
     16 N5         -1.9374   -1.2183   -0.0049 N.pl3     1 <0>        -0.7418
     17 C12        -3.1234   -1.9440    0.0024 C.ar      1 <0>         0.2238
     18 C13        -3.7841   -2.2074   -1.1944 C.ar      1 <0>        -0.2036
     19 C14        -4.9551   -2.9302   -1.1910 C.ar      1 <0>        -0.0362
     20 C15        -5.4870   -3.3906    0.0171 C.ar      1 <0>        -0.1656
     21 C16        -4.8243   -3.1195    1.2177 C.ar      1 <0>        -0.0166
     22 C17        -3.6509   -2.4007    1.2072 C.ar      1 <0>        -0.2051
     23 C18        -6.7454   -4.1604    0.0249 C.2       1 <0>         0.5576
     24 O1         -7.2071   -4.5599    1.0764 O.2       1 <0>        -0.5581
     25 N6         -7.3832   -4.4210   -1.1334 N.am      1 <0>        -0.6862
     26 C19        -8.6328   -5.1855   -1.1257 C.3       1 <0>         0.1003
     27 H1         -9.2033   -4.9402   -0.2299 H         1 <0>         0.0853
     28 C20        -9.4549   -4.8318   -2.3666 C.3       1 <0>        -0.0860
     29 C21        -9.8784   -3.3632   -2.2962 C.3       1 <0>        -0.1528
     30 C22       -10.6881   -3.0148   -3.5185 C.2       1 <0>         0.4614
     31 O2        -10.9042   -3.8548   -4.3597 O.co2     1 <0>        -0.6390
     32 C23        -8.3199   -6.6597   -1.1339 C.2       1 <0>         0.4650
     33 O3         -7.1709   -7.0333   -1.1450 O.co2     1 <0>        -0.6398
     34 H2          1.3906   -3.7532   -2.2661 H         1 <0>         0.0711
     35 H3          0.6466   -2.2841   -2.9417 H         1 <0>         0.0696
     36 H4          2.3770   -2.2943   -2.5247 H         1 <0>         0.0517
     37 H5          1.7980   -2.5640   -0.1287 H         1 <0>         0.1036
     38 H6          0.0676   -2.5537   -0.5457 H         1 <0>         0.0927
     39 H7         -1.0444    1.9313   -1.1513 H         1 <0>         0.1343
     40 H8          0.9962    3.1952   -0.7194 H         1 <0>         0.1370
     41 H9          5.6378    3.0960    0.1870 H         1 <0>         0.4141
     42 H10         6.4894    1.6539    0.3214 H         1 <0>         0.4114
     43 H11         3.1114   -2.5221   -1.0477 H         1 <0>         0.4204
     44 H12         4.0266   -2.4907    0.3609 H         1 <0>         0.4060
     45 H13        -2.0985   -0.0738   -1.7551 H         1 <0>         0.0697
     46 H14        -1.1745   -1.5858   -1.9238 H         1 <0>         0.0712
     47 H15        -1.4783   -1.0308    0.8287 H         1 <0>         0.3975
     48 H16        -3.3747   -1.8480   -2.1269 H         1 <0>         0.1220
     49 H17        -5.4648   -3.1380   -2.1201 H         1 <0>         0.1273
     50 H18        -5.2325   -3.4741    2.1526 H         1 <0>         0.1325
     51 H19        -3.1384   -2.1910    2.1344 H         1 <0>         0.1191
     52 H20        -7.0148   -4.1023   -1.9723 H         1 <0>         0.3899
     53 H21        -8.8519   -4.9936   -3.2601 H         1 <0>         0.0567
     54 H22       -10.3418   -5.4641   -2.4074 H         1 <0>         0.0841
     55 H23       -10.4813   -3.2014   -1.4027 H         1 <0>         0.0605
     56 H24        -8.9915   -2.7309   -2.2555 H         1 <0>         0.0578
     57 O4        -11.1691   -1.7712   -3.6728 O.co2     1 <0>        -0.7910
     58 O5         -9.3176   -7.5576   -1.1287 O.co2     1 <0>        -0.7703
@<TRIPOS>BOND
     1    1    2 1
     2    1   34 1
     3    1   35 1
     4    1   36 1
     5    2    3 1
     6    2   37 1
     7    2   38 1
     8    3    8 ar
     9    3    4 ar
    10    4    5 ar
    11    4   15 1
    12    5    6 ar
    13    5   39 1
    14    6    7 ar
    15    6   40 1
    16    7   12 ar
    17    7    8 ar
    18    8    9 ar
    19    9   10 ar
    20    9   14 1
    21   10   11 ar
    22   11   12 ar
    23   11   13 1
    24   13   41 1
    25   13   42 1
    26   14   43 1
    27   14   44 1
    28   15   16 1
    29   15   45 1
    30   15   46 1
    31   16   17 1
    32   16   47 1
    33   17   22 ar
    34   17   18 ar
    35   18   19 ar
    36   18   48 1
    37   19   20 ar
    38   19   49 1
    39   20   21 ar
    40   20   23 1
    41   21   22 ar
    42   21   50 1
    43   22   51 1
    44   23   24 2
    45   23   25 am
    46   25   26 1
    47   25   52 1
    48   26   27 1
    49   26   28 1
    50   26   32 1
    51   28   29 1
    52   28   53 1
    53   28   54 1
    54   29   30 1
    55   29   55 1
    56   29   56 1
    57   30   31 2
    58   30   57 1
    59   32   33 2
    60   32   58 1
@<TRIPOS>MOLECULE
ZINC03814832
   59    61     0     0     0
SMALL
USER_CHARGES

@<TRIPOS>ATOM
      1 C1          1.3912   -2.6635   -2.2418 C.3       1 <0>        -0.1650
      2 C2          1.0535   -2.1846   -0.8285 C.3       1 <0>        -0.1427
      3 C3          1.0543   -0.6779   -0.7950 C.ar      1 <0>         0.0348
      4 C4         -0.1023    0.0147   -1.0056 C.ar      1 <0>        -0.1058
      5 C5         -0.1171    1.4057   -0.9772 C.ar      1 <0>         0.0052
      6 C6          1.0225    2.1157   -0.7385 C.ar      1 <0>        -0.1581
      7 C7          2.2278    1.4361   -0.5182 C.ar      1 <0>         0.2044
      8 C8          2.2405    0.0203   -0.5475 C.ar      1 <0>        -0.1844
      9 C9          3.4714   -0.6458   -0.3214 C.ar      1 <0>         0.5762
     10 N1          4.5503    0.0883   -0.0940 N.ar      1 <0>        -0.5765
     11 C10         4.4938    1.4173   -0.0748 C.ar      1 <0>         0.6801
     12 N2          5.6560    2.1263    0.1688 N.pl3     1 <0>        -0.7912
     13 N3          3.5436   -2.0221   -0.3377 N.pl3     1 <0>        -0.8131
     14 C11        -1.3810   -0.7370   -1.2718 C.3       1 <0>         0.1571
     15 N4         -1.9374   -1.2183   -0.0049 N.pl3     1 <0>        -0.7480
     16 C12        -3.1234   -1.9440    0.0024 C.ar      1 <0>         0.2110
     17 C13        -3.7841   -2.2074   -1.1944 C.ar      1 <0>        -0.1987
     18 C14        -4.9551   -2.9302   -1.1910 C.ar      1 <0>        -0.0381
     19 C15        -5.4870   -3.3906    0.0171 C.ar      1 <0>        -0.1512
     20 C16        -4.8243   -3.1195    1.2177 C.ar      1 <0>        -0.0181
     21 C17        -3.6509   -2.4007    1.2072 C.ar      1 <0>        -0.1975
     22 C18        -6.7454   -4.1604    0.0249 C.2       1 <0>         0.5528
     23 O1         -7.2071   -4.5599    1.0764 O.2       1 <0>        -0.5533
     24 N5         -7.3832   -4.4210   -1.1334 N.am      1 <0>        -0.6830
     25 C19        -8.6328   -5.1855   -1.1257 C.3       1 <0>         0.0995
     26 H1         -9.2033   -4.9402   -0.2299 H         1 <0>         0.0867
     27 C20        -9.4549   -4.8318   -2.3666 C.3       1 <0>        -0.0868
     28 C21        -9.8784   -3.3632   -2.2962 C.3       1 <0>        -0.1522
     29 C22       -10.6881   -3.0148   -3.5185 C.2       1 <0>         0.4604
     30 O2        -10.9042   -3.8548   -4.3597 O.co2     1 <0>        -0.6373
     31 C23        -8.3199   -6.6597   -1.1339 C.2       1 <0>         0.4650
     32 O3         -7.1709   -7.0333   -1.1450 O.co2     1 <0>        -0.6421
     33 H2          1.3906   -3.7532   -2.2661 H         1 <0>         0.0865
     34 H3          0.6466   -2.2841   -2.9417 H         1 <0>         0.0804
     35 H4          2.3770   -2.2943   -2.5247 H         1 <0>         0.0523
     36 H5          1.7980   -2.5640   -0.1287 H         1 <0>         0.1065
     37 H6          0.0676   -2.5537   -0.5457 H         1 <0>         0.1134
     38 H7         -1.0444    1.9313   -1.1513 H         1 <0>         0.1591
     39 H8          0.9962    3.1952   -0.7194 H         1 <0>         0.1573
     40 H9          5.6378    3.0960    0.1870 H         1 <0>         0.4291
     41 H10         6.4894    1.6539    0.3214 H         1 <0>         0.4417
     42 H11         3.1114   -2.5221   -1.0477 H         1 <0>         0.4380
     43 H12         4.0266   -2.4907    0.3609 H         1 <0>         0.4270
     44 H13        -2.0985   -0.0738   -1.7551 H         1 <0>         0.0810
     45 H14        -1.1745   -1.5858   -1.9238 H         1 <0>         0.0817
     46 H15        -1.4783   -1.0308    0.8287 H         1 <0>         0.3966
     47 H16        -3.3747   -1.8480   -2.1269 H         1 <0>         0.1217
     48 H17        -5.4648   -3.1380   -2.1201 H         1 <0>         0.1307
     49 H18        -5.2325   -3.4741    2.1526 H         1 <0>         0.1361
     50 H19        -3.1384   -2.1910    2.1344 H         1 <0>         0.1199
     51 H20        -7.0148   -4.1023   -1.9723 H         1 <0>         0.3895
     52 H21        -8.8519   -4.9936   -3.2601 H         1 <0>         0.0570
     53 H22       -10.3418   -5.4641   -2.4074 H         1 <0>         0.0859
     54 H23       -10.4813   -3.2014   -1.4027 H         1 <0>         0.0610
     55 H24        -8.9915   -2.7309   -2.2555 H         1 <0>         0.0559
     56 O4        -11.1691   -1.7712   -3.6728 O.co2     1 <0>        -0.7903
     57 O5         -9.3176   -7.5576   -1.1287 O.co2     1 <0>        -0.7657
     58 N6          3.3768    2.1587   -0.2769 N.ar      1 <0>        -0.5979
     59 H25         3.4267    3.1570   -0.2447 H         1 <0>         0.4557
@<TRIPOS>BOND
     1    1    2 1
     2    1   33 1
     3    1   34 1
     4    1   35 1
     5    2    3 1
     6    2   36 1
     7    2   37 1
     8    3    8 ar
     9    3    4 ar
    10    4    5 ar
    11    4   14 1
    12    5    6 ar
    13    5   38 1
    14    6    7 ar
    15    6   39 1
    16    7    8 ar
    17    7   58 ar
    18    8    9 ar
    19    9   10 ar
    20    9   13 1
    21   10   11 ar
    22   11   12 1
    23   11   58 ar
    24   12   40 1
    25   12   41 1
    26   13   42 1
    27   13   43 1
    28   14   15 1
    29   14   44 1
    30   14   45 1
    31   15   16 1
    32   15   46 1
    33   16   21 ar
    34   16   17 ar
    35   17   18 ar
    36   17   47 1
    37   18   19 ar
    38   18   48 1
    39   19   20 ar
    40   19   22 1
    41   20   21 ar
    42   20   49 1
    43   21   50 1
    44   22   23 2
    45   22   24 am
    46   24   25 1
    47   24   51 1
    48   25   26 1
    49   25   27 1
    50   25   31 1
    51   27   28 1
    52   27   52 1
    53   27   53 1
    54   28   29 1
    55   28   54 1
    56   28   55 1
    57   29   30 2
    58   29   56 1
    59   31   32 2
    60   31   57 1
    61   58   59 1
@<TRIPOS>MOLECULE
ZINC03814833
   36    38     0     0     0
SMALL
USER_CHARGES

@<TRIPOS>ATOM
      1 C1          3.6414   -2.1140   -0.0452 C.3       1 <0>         0.0903
      2 N1          3.6196   -0.6492   -0.0366 N.pl3     1 <0>        -0.6273
      3 C2          4.8773    0.1022   -0.0446 C.3       1 <0>         0.1840
      4 C3          5.3224    0.3517    1.3734 C.ar      1 <0>         0.0180
      5 C4          6.2304   -0.5188    1.9753 C.ar      1 <0>         0.1497
      6 N2          6.6342   -0.3214    3.2123 N.ar      1 <0>        -0.4415
      7 C5          6.1684    0.7252    3.8982 C.ar      1 <0>         0.3749
      8 C6          5.2457    1.6068    3.2817 C.ar      1 <0>        -0.0898
      9 N3          4.8546    1.3921    2.0296 N.ar      1 <0>        -0.3617
     10 C7          4.7574    2.7427    4.0655 C.ar      1 <0>         0.5455
     11 N4          5.2091    2.8758    5.3049 N.ar      1 <0>        -0.6286
     12 C8          6.0754    2.0093    5.8204 C.ar      1 <0>         0.6414
     13 N5          6.5464    0.9711    5.1588 N.ar      1 <0>        -0.6033
     14 N6          6.5051    2.2077    7.1187 N.pl3     1 <0>        -0.8063
     15 N7          3.8594    3.6420    3.5338 N.pl3     1 <0>        -0.7900
     16 C9          2.3998    0.0311   -0.0208 C.ar      1 <0>         0.2119
     17 C10         1.2064   -0.6798   -0.0132 C.ar      1 <0>        -0.1949
     18 C11         0.0021   -0.0041    0.0020 C.ar      1 <0>        -0.0773
     19 C12        -0.0167    1.3786    0.0096 C.ar      1 <0>        -0.1763
     20 C13         1.1695    2.0894    0.0021 C.ar      1 <0>        -0.0789
     21 C14         2.3774    1.4200   -0.0131 C.ar      1 <0>        -0.1821
     22 H1          3.6368   -2.4714   -1.0749 H         1 <0>         0.0541
     23 H2          4.5417   -2.4669    0.4579 H         1 <0>         0.0665
     24 H3          2.7620   -2.4935    0.4752 H         1 <0>         0.0683
     25 H4          5.6405   -0.4725   -0.5692 H         1 <0>         0.0998
     26 H5          4.7278    1.0555   -0.5516 H         1 <0>         0.0970
     27 H6          6.6064   -1.3653    1.4199 H         1 <0>         0.1770
     28 H7          7.1373    1.5909    7.5199 H         1 <0>         0.4200
     29 H8          6.1747    2.9636    7.6288 H         1 <0>         0.4174
     30 H9          3.5466    4.3886    4.0682 H         1 <0>         0.4164
     31 H10         3.5398    3.5286    2.6250 H         1 <0>         0.4259
     32 H11         1.2204   -1.7597   -0.0194 H         1 <0>         0.1203
     33 H12        -0.9261   -0.5561    0.0076 H         1 <0>         0.1187
     34 H13        -0.9599    1.9046    0.0170 H         1 <0>         0.1159
     35 H14         1.1513    3.1692    0.0078 H         1 <0>         0.1186
     36 H15         3.3034    1.9757   -0.0186 H         1 <0>         0.1266
@<TRIPOS>BOND
     1    1    2 1
     2    1   22 1
     3    1   23 1
     4    1   24 1
     5    2    3 1
     6    2   16 1
     7    3    4 1
     8    3   25 1
     9    3   26 1
    10    4    9 ar
    11    4    5 ar
    12    5    6 ar
    13    5   27 1
    14    6    7 ar
    15    7   13 ar
    16    7    8 ar
    17    8    9 ar
    18    8   10 ar
    19   10   11 ar
    20   10   15 1
    21   11   12 ar
    22   12   13 ar
    23   12   14 1
    24   14   28 1
    25   14   29 1
    26   15   30 1
    27   15   31 1
    28   16   21 ar
    29   16   17 ar
    30   17   18 ar
    31   17   32 1
    32   18   19 ar
    33   18   33 1
    34   19   20 ar
    35   19   34 1
    36   20   21 ar
    37   20   35 1
    38   21   36 1
@<TRIPOS>MOLECULE
ZINC03814833
   37    39     0     0     0
SMALL
USER_CHARGES

@<TRIPOS>ATOM
      1 C1          3.6414   -2.1140   -0.0452 C.3       1 <0>         0.0865
      2 N1          3.6196   -0.6492   -0.0366 N.pl3     1 <0>        -0.6290
      3 C2          4.8773    0.1022   -0.0446 C.3       1 <0>         0.1723
      4 C3          5.3224    0.3517    1.3734 C.ar      1 <0>         0.0723
      5 C4          6.2304   -0.5188    1.9753 C.ar      1 <0>         0.1746
      6 N2          6.6342   -0.3214    3.2123 N.ar      1 <0>        -0.4445
      7 C5          6.1684    0.7252    3.8982 C.ar      1 <0>         0.3371
      8 C6          5.2457    1.6068    3.2817 C.ar      1 <0>        -0.0117
      9 N3          4.8546    1.3921    2.0296 N.ar      1 <0>        -0.3489
     10 C7          4.7574    2.7427    4.0655 C.ar      1 <0>         0.5814
     11 N4          5.2091    2.8758    5.3049 N.ar      1 <0>        -0.5751
     12 C8          6.0754    2.0093    5.8204 C.ar      1 <0>         0.7113
     13 N5          6.5051    2.2077    7.1187 N.pl3     1 <0>        -0.7754
     14 N6          3.8594    3.6420    3.5338 N.pl3     1 <0>        -0.7291
     15 C9          2.3998    0.0311   -0.0208 C.ar      1 <0>         0.2004
     16 C10         1.2064   -0.6798   -0.0132 C.ar      1 <0>        -0.1866
     17 C11         0.0021   -0.0041    0.0020 C.ar      1 <0>        -0.0737
     18 C12        -0.0167    1.3786    0.0096 C.ar      1 <0>        -0.1663
     19 C13         1.1695    2.0894    0.0021 C.ar      1 <0>        -0.0801
     20 C14         2.3774    1.4200   -0.0131 C.ar      1 <0>        -0.1878
     21 H1          3.6368   -2.4714   -1.0749 H         1 <0>         0.0614
     22 H2          4.5417   -2.4669    0.4579 H         1 <0>         0.0656
     23 H3          2.7620   -2.4935    0.4752 H         1 <0>         0.0734
     24 H4          5.6405   -0.4725   -0.5692 H         1 <0>         0.1141
     25 H5          4.7278    1.0555   -0.5516 H         1 <0>         0.1105
     26 H6          6.6064   -1.3653    1.4199 H         1 <0>         0.2042
     27 H7          7.1373    1.5909    7.5199 H         1 <0>         0.4343
     28 H8          6.1747    2.9636    7.6288 H         1 <0>         0.4465
     29 H9          3.5466    4.3886    4.0682 H         1 <0>         0.4371
     30 H10         3.5398    3.5286    2.6250 H         1 <0>         0.4438
     31 H11         1.2204   -1.7597   -0.0194 H         1 <0>         0.1237
     32 H12        -0.9261   -0.5561    0.0076 H         1 <0>         0.1241
     33 H13        -0.9599    1.9046    0.0170 H         1 <0>         0.1211
     34 H14         1.1513    3.1692    0.0078 H         1 <0>         0.1217
     35 H15         3.3034    1.9757   -0.0186 H         1 <0>         0.1237
     36 N7          6.5957    0.9247    5.1929 N.ar      1 <0>        -0.5954
     37 H16         7.2473    0.2897    5.6079 H         1 <0>         0.4625
@<TRIPOS>BOND
     1    1    2 1
     2    1   21 1
     3    1   22 1
     4    1   23 1
     5    2    3 1
     6    2   15 1
     7    3    4 1
     8    3   24 1
     9    3   25 1
    10    4    9 ar
    11    4    5 ar
    12    5    6 ar
    13    5   26 1
    14    6    7 ar
    15    7    8 ar
    16    7   36 ar
    17    8    9 ar
    18    8   10 ar
    19   10   11 ar
    20   10   14 1
    21   11   12 ar
    22   12   13 1
    23   12   36 ar
    24   13   27 1
    25   13   28 1
    26   14   29 1
    27   14   30 1
    28   15   20 ar
    29   15   16 ar
    30   16   17 ar
    31   16   31 1
    32   17   18 ar
    33   17   32 1
    34   18   19 ar
    35   18   33 1
    36   19   20 ar
    37   19   34 1
    38   20   35 1
    39   36   37 1
@<TRIPOS>MOLECULE
ZINC03814834
   40    42     0     0     0
SMALL
USER_CHARGES

@<TRIPOS>ATOM
      1 C1         -0.2287    0.0094   -0.7272 C.3       1 <0>        -0.1724
      2 C2         -0.2646    1.5159   -0.7125 C.2       1 <0>         0.5078
      3 O1          0.5404    2.1480   -1.3634 O.2       1 <0>        -0.5298
      4 N1         -1.1946    2.1607    0.0195 N.am      1 <0>        -0.6721
      5 C3         -1.1622    3.5583    0.1197 C.ar      1 <0>         0.0838
      6 C4          0.0549    4.2265    0.1154 C.ar      1 <0>        -0.0696
      7 C5          0.0868    5.6036    0.2084 C.ar      1 <0>        -0.1767
      8 C6         -1.0983    6.3198    0.3172 C.ar      1 <0>         0.2060
      9 C7         -2.3154    5.6508    0.3272 C.ar      1 <0>        -0.1741
     10 C8         -2.3470    4.2740    0.2289 C.ar      1 <0>        -0.0947
     11 N2         -1.0660    7.7148    0.4173 N.pl3     1 <0>        -0.7436
     12 C9          0.2179    8.4204    0.4068 C.3       1 <0>         0.1898
     13 C10        -0.0229    9.9032    0.5264 C.ar      1 <0>         0.0203
     14 C11         0.0289   10.5122    1.7798 C.ar      1 <0>         0.1575
     15 N3         -0.1775   11.8055    1.9094 N.ar      1 <0>        -0.4408
     16 C12        -0.4395   12.5425    0.8271 C.ar      1 <0>         0.3800
     17 C13        -0.4910   11.9185   -0.4443 C.ar      1 <0>        -0.0933
     18 N4         -0.2746   10.6116   -0.5538 N.ar      1 <0>        -0.3616
     19 C14        -0.7810   12.7593   -1.6071 C.ar      1 <0>         0.5465
     20 N5         -0.9780   14.0536   -1.3979 N.ar      1 <0>        -0.6281
     21 C15        -0.9150   14.5725   -0.1757 C.ar      1 <0>         0.6437
     22 N6         -0.6573   13.8612    0.9038 N.ar      1 <0>        -0.6026
     23 N7         -1.1306   15.9295   -0.0290 N.pl3     1 <0>        -0.8044
     24 N8         -0.8473   12.2241   -2.8748 N.pl3     1 <0>        -0.7895
     25 H1          0.4225   -0.3464    0.0712 H         1 <0>         0.0972
     26 H2         -1.2356   -0.3795   -0.5752 H         1 <0>         0.0814
     27 H3          0.1528   -0.3357   -1.6881 H         1 <0>         0.0962
     28 H4         -1.8863    1.6576    0.4769 H         1 <0>         0.4089
     29 H5          0.9766    3.6693    0.0349 H         1 <0>         0.1324
     30 H6          1.0332    6.1237    0.2003 H         1 <0>         0.1252
     31 H7         -3.2370    6.2075    0.4114 H         1 <0>         0.1232
     32 H8         -3.2934    3.7537    0.2366 H         1 <0>         0.1241
     33 H9         -1.8936    8.2148    0.4936 H         1 <0>         0.3996
     34 H10         0.8253    8.0820    1.2462 H         1 <0>         0.0835
     35 H11         0.7398    8.2111   -0.5270 H         1 <0>         0.0810
     36 H12         0.2405    9.9153    2.6547 H         1 <0>         0.1824
     37 H13        -1.0903   16.3347    0.8514 H         1 <0>         0.4207
     38 H14        -1.3223   16.4769   -0.8065 H         1 <0>         0.4181
     39 H15        -1.0410   12.7966   -3.6334 H         1 <0>         0.4173
     40 H16        -0.7003   11.2747   -3.0087 H         1 <0>         0.4267
@<TRIPOS>BOND
     1    1    2 1
     2    1   25 1
     3    1   26 1
     4    1   27 1
     5    2    3 2
     6    2    4 am
     7    4    5 1
     8    4   28 1
     9    5   10 ar
    10    5    6 ar
    11    6    7 ar
    12    6   29 1
    13    7    8 ar
    14    7   30 1
    15    8    9 ar
    16    8   11 1
    17    9   10 ar
    18    9   31 1
    19   10   32 1
    20   11   12 1
    21   11   33 1
    22   12   13 1
    23   12   34 1
    24   12   35 1
    25   13   18 ar
    26   13   14 ar
    27   14   15 ar
    28   14   36 1
    29   15   16 ar
    30   16   22 ar
    31   16   17 ar
    32   17   18 ar
    33   17   19 ar
    34   19   20 ar
    35   19   24 1
    36   20   21 ar
    37   21   22 ar
    38   21   23 1
    39   23   37 1
    40   23   38 1
    41   24   39 1
    42   24   40 1
@<TRIPOS>MOLECULE
ZINC03814834
   41    43     0     0     0
SMALL
USER_CHARGES

@<TRIPOS>ATOM
      1 C1         -0.2287    0.0094   -0.7272 C.3       1 <0>        -0.1738
      2 C2         -0.2646    1.5159   -0.7125 C.2       1 <0>         0.5108
      3 O1          0.5404    2.1480   -1.3634 O.2       1 <0>        -0.5290
      4 N1         -1.1946    2.1607    0.0195 N.am      1 <0>        -0.6749
      5 C3         -1.1622    3.5583    0.1197 C.ar      1 <0>         0.0996
      6 C4          0.0549    4.2265    0.1154 C.ar      1 <0>        -0.0726
      7 C5          0.0868    5.6036    0.2084 C.ar      1 <0>        -0.1711
      8 C6         -1.0983    6.3198    0.3172 C.ar      1 <0>         0.1927
      9 C7         -2.3154    5.6508    0.3272 C.ar      1 <0>        -0.1655
     10 C8         -2.3470    4.2740    0.2289 C.ar      1 <0>        -0.0970
     11 N2         -1.0660    7.7148    0.4173 N.pl3     1 <0>        -0.7498
     12 C9          0.2179    8.4204    0.4068 C.3       1 <0>         0.1786
     13 C10        -0.0229    9.9032    0.5264 C.ar      1 <0>         0.0770
     14 C11         0.0289   10.5122    1.7798 C.ar      1 <0>         0.1833
     15 N3         -0.1775   11.8055    1.9094 N.ar      1 <0>        -0.4440
     16 C12        -0.4395   12.5425    0.8271 C.ar      1 <0>         0.3441
     17 C13        -0.4910   11.9185   -0.4443 C.ar      1 <0>        -0.0148
     18 N4         -0.2746   10.6116   -0.5538 N.ar      1 <0>        -0.3479
     19 C14        -0.7810   12.7593   -1.6071 C.ar      1 <0>         0.5816
     20 N5         -0.9780   14.0536   -1.3979 N.ar      1 <0>        -0.5742
     21 C15        -0.9150   14.5725   -0.1757 C.ar      1 <0>         0.7121
     22 N6         -1.1306   15.9295   -0.0290 N.pl3     1 <0>        -0.7737
     23 N7         -0.8473   12.2241   -2.8748 N.pl3     1 <0>        -0.7283
     24 H1          0.4225   -0.3464    0.0712 H         1 <0>         0.0994
     25 H2         -1.2356   -0.3795   -0.5752 H         1 <0>         0.0832
     26 H3          0.1528   -0.3357   -1.6881 H         1 <0>         0.0984
     27 H4         -1.8863    1.6576    0.4769 H         1 <0>         0.4116
     28 H5          0.9766    3.6693    0.0349 H         1 <0>         0.1358
     29 H6          1.0332    6.1237    0.2003 H         1 <0>         0.1247
     30 H7         -3.2370    6.2075    0.4114 H         1 <0>         0.1240
     31 H8         -3.2934    3.7537    0.2366 H         1 <0>         0.1281
     32 H9         -1.8936    8.2148    0.4936 H         1 <0>         0.3990
     33 H10         0.8253    8.0820    1.2462 H         1 <0>         0.0966
     34 H11         0.7398    8.2111   -0.5270 H         1 <0>         0.0939
     35 H12         0.2405    9.9153    2.6547 H         1 <0>         0.2096
     36 H13        -1.0903   16.3347    0.8514 H         1 <0>         0.4349
     37 H14        -1.3223   16.4769   -0.8065 H         1 <0>         0.4470
     38 H15        -1.0410   12.7966   -3.6334 H         1 <0>         0.4378
     39 H16        -0.7003   11.2747   -3.0087 H         1 <0>         0.4446
     40 N8         -0.6548   13.8958    0.9712 N.ar      1 <0>        -0.5953
     41 H17        -0.6136   14.3148    1.8783 H         1 <0>         0.4636
@<TRIPOS>BOND
     1    1    2 1
     2    1   24 1
     3    1   25 1
     4    1   26 1
     5    2    3 2
     6    2    4 am
     7    4    5 1
     8    4   27 1
     9    5   10 ar
    10    5    6 ar
    11    6    7 ar
    12    6   28 1
    13    7    8 ar
    14    7   29 1
    15    8    9 ar
    16    8   11 1
    17    9   10 ar
    18    9   30 1
    19   10   31 1
    20   11   12 1
    21   11   32 1
    22   12   13 1
    23   12   33 1
    24   12   34 1
    25   13   18 ar
    26   13   14 ar
    27   14   15 ar
    28   14   35 1
    29   15   16 ar
    30   16   17 ar
    31   16   40 ar
    32   17   18 ar
    33   17   19 ar
    34   19   20 ar
    35   19   23 1
    36   20   21 ar
    37   21   22 1
    38   21   40 ar
    39   22   36 1
    40   22   37 1
    41   23   38 1
    42   23   39 1
    43   40   41 1
@<TRIPOS>MOLECULE
ZINC03814835
   38    40     0     0     0
SMALL
USER_CHARGES

@<TRIPOS>ATOM
      1 C1          2.4708    4.3104    0.0011 C.3       1 <0>        -0.1931
      2 C2          1.1735    3.5436    0.0094 C.2       1 <0>         0.3973
      3 O1          0.1169    4.1393    0.0223 O.2       1 <0>        -0.4711
      4 C3          1.1885    2.0762    0.0019 C.ar      1 <0>        -0.2391
      5 C4         -0.0164    1.3612    0.0095 C.ar      1 <0>        -0.0074
      6 C5          0.0021   -0.0041    0.0020 C.ar      1 <0>        -0.2095
      7 C6          1.2167   -0.6862   -0.0128 C.ar      1 <0>         0.2536
      8 C7          2.4171    0.0207   -0.0209 C.ar      1 <0>        -0.2138
      9 C8          2.4078    1.3861   -0.0135 C.ar      1 <0>        -0.0193
     10 N1          1.2309   -2.0750   -0.0199 N.pl3     1 <0>        -0.7311
     11 C9          2.5070   -2.7944   -0.0355 C.3       1 <0>         0.1855
     12 C10         2.2467   -4.2788   -0.0405 C.ar      1 <0>         0.0151
     13 C11         2.2202   -4.9710   -1.2508 C.ar      1 <0>         0.1582
     14 N2          1.9954   -6.2674   -1.2806 N.ar      1 <0>        -0.4401
     15 C12         1.7904   -6.9269   -0.1378 C.ar      1 <0>         0.3820
     16 C13         1.8183   -6.2185    1.0894 C.ar      1 <0>        -0.0937
     17 N3          2.0521   -4.9101    1.0977 N.ar      1 <0>        -0.3606
     18 C14         1.5891   -6.9758    2.3211 C.ar      1 <0>         0.5470
     19 N4          1.3690   -8.2786    2.2115 N.ar      1 <0>        -0.6275
     20 C15         1.3563   -8.8790    1.0256 C.ar      1 <0>         0.6449
     21 N5          1.5570   -8.2449   -0.1125 N.ar      1 <0>        -0.6023
     22 N6          1.1207  -10.2399    0.9837 N.pl3     1 <0>        -0.8033
     23 N7          1.6012   -6.3561    3.5514 N.pl3     1 <0>        -0.7892
     24 H1          2.7489    4.4847   -0.9435 H         1 <0>         0.0859
     25 H2          2.3356    5.2589    0.5210 H         1 <0>         0.0856
     26 H3          3.2412    3.7266    0.5048 H         1 <0>         0.0844
     27 H4         -0.9585    1.8893    0.0168 H         1 <0>         0.1316
     28 H5         -0.9262   -0.5560    0.0079 H         1 <0>         0.1254
     29 H6          3.3565   -0.5120   -0.0327 H         1 <0>         0.1287
     30 H7          3.3389    1.9333   -0.0191 H         1 <0>         0.1320
     31 H8          0.3959   -2.5686   -0.0146 H         1 <0>         0.4035
     32 H9          3.0675   -2.5208   -0.9294 H         1 <0>         0.0885
     33 H10         3.0841   -2.5298    0.8505 H         1 <0>         0.0857
     34 H11         2.3858   -4.4368   -2.1747 H         1 <0>         0.1825
     35 H12         1.1062  -10.7036    0.1318 H         1 <0>         0.4212
     36 H13         0.9698  -10.7316    1.8061 H         1 <0>         0.4185
     37 H14         1.4470   -6.8740    4.3569 H         1 <0>         0.4178
     38 H15         1.7640   -5.4017    3.6122 H         1 <0>         0.4264
@<TRIPOS>BOND
     1    1    2 1
     2    1   24 1
     3    1   25 1
     4    1   26 1
     5    2    3 2
     6    2    4 1
     7    4    9 ar
     8    4    5 ar
     9    5    6 ar
    10    5   27 1
    11    6    7 ar
    12    6   28 1
    13    7    8 ar
    14    7   10 1
    15    8    9 ar
    16    8   29 1
    17    9   30 1
    18   10   11 1
    19   10   31 1
    20   11   12 1
    21   11   32 1
    22   11   33 1
    23   12   17 ar
    24   12   13 ar
    25   13   14 ar
    26   13   34 1
    27   14   15 ar
    28   15   21 ar
    29   15   16 ar
    30   16   17 ar
    31   16   18 ar
    32   18   19 ar
    33   18   23 1
    34   19   20 ar
    35   20   21 ar
    36   20   22 1
    37   22   35 1
    38   22   36 1
    39   23   37 1
    40   23   38 1
@<TRIPOS>MOLECULE
ZINC03814835
   39    41     0     0     0
SMALL
USER_CHARGES

@<TRIPOS>ATOM
      1 C1          2.4708    4.3104    0.0011 C.3       1 <0>        -0.1936
      2 C2          1.1735    3.5436    0.0094 C.2       1 <0>         0.3943
      3 O1          0.1169    4.1393    0.0223 O.2       1 <0>        -0.4627
      4 C3          1.1885    2.0762    0.0019 C.ar      1 <0>        -0.2238
      5 C4         -0.0164    1.3612    0.0095 C.ar      1 <0>        -0.0096
      6 C5          0.0021   -0.0041    0.0020 C.ar      1 <0>        -0.2012
      7 C6          1.2167   -0.6862   -0.0128 C.ar      1 <0>         0.2414
      8 C7          2.4171    0.0207   -0.0209 C.ar      1 <0>        -0.2087
      9 C8          2.4078    1.3861   -0.0135 C.ar      1 <0>        -0.0213
     10 N1          1.2309   -2.0750   -0.0199 N.pl3     1 <0>        -0.7397
     11 C9          2.5070   -2.7944   -0.0355 C.3       1 <0>         0.1748
     12 C10         2.2467   -4.2788   -0.0405 C.ar      1 <0>         0.0725
     13 C11         2.2202   -4.9710   -1.2508 C.ar      1 <0>         0.1841
     14 N2          1.9954   -6.2674   -1.2806 N.ar      1 <0>        -0.4433
     15 C12         1.7904   -6.9269   -0.1378 C.ar      1 <0>         0.3466
     16 C13         1.8183   -6.2185    1.0894 C.ar      1 <0>        -0.0148
     17 N3          2.0521   -4.9101    1.0977 N.ar      1 <0>        -0.3472
     18 C14         1.5891   -6.9758    2.3211 C.ar      1 <0>         0.5816
     19 N4          1.3690   -8.2786    2.2115 N.ar      1 <0>        -0.5736
     20 C15         1.3563   -8.8790    1.0256 C.ar      1 <0>         0.7124
     21 N5          1.1207  -10.2399    0.9837 N.pl3     1 <0>        -0.7726
     22 N6          1.6012   -6.3561    3.5514 N.pl3     1 <0>        -0.7282
     23 H1          2.7489    4.4847   -0.9435 H         1 <0>         0.0875
     24 H2          2.3356    5.2589    0.5210 H         1 <0>         0.0889
     25 H3          3.2412    3.7266    0.5048 H         1 <0>         0.0845
     26 H4         -0.9585    1.8893    0.0168 H         1 <0>         0.1354
     27 H5         -0.9262   -0.5560    0.0079 H         1 <0>         0.1264
     28 H6          3.3565   -0.5120   -0.0327 H         1 <0>         0.1283
     29 H7          3.3389    1.9333   -0.0191 H         1 <0>         0.1358
     30 H8          0.3959   -2.5686   -0.0146 H         1 <0>         0.4027
     31 H9          3.0675   -2.5208   -0.9294 H         1 <0>         0.1010
     32 H10         3.0841   -2.5298    0.8505 H         1 <0>         0.0983
     33 H11         2.3858   -4.4368   -2.1747 H         1 <0>         0.2098
     34 H12         1.1062  -10.7036    0.1318 H         1 <0>         0.4352
     35 H13         0.9698  -10.7316    1.8061 H         1 <0>         0.4474
     36 H14         1.4470   -6.8740    4.3569 H         1 <0>         0.4382
     37 H15         1.7640   -5.4017    3.6122 H         1 <0>         0.4443
     38 N7          1.5552   -8.2840   -0.1775 N.ar      1 <0>        -0.5954
     39 H16         1.5400   -8.7633   -1.0550 H         1 <0>         0.4641
@<TRIPOS>BOND
     1    1    2 1
     2    1   23 1
     3    1   24 1
     4    1   25 1
     5    2    3 2
     6    2    4 1
     7    4    9 ar
     8    4    5 ar
     9    5    6 ar
    10    5   26 1
    11    6    7 ar
    12    6   27 1
    13    7    8 ar
    14    7   10 1
    15    8    9 ar
    16    8   28 1
    17    9   29 1
    18   10   11 1
    19   10   30 1
    20   11   12 1
    21   11   31 1
    22   11   32 1
    23   12   17 ar
    24   12   13 ar
    25   13   14 ar
    26   13   33 1
    27   14   15 ar
    28   15   16 ar
    29   15   38 ar
    30   16   17 ar
    31   16   18 ar
    32   18   19 ar
    33   18   22 1
    34   19   20 ar
    35   20   21 1
    36   20   38 ar
    37   21   34 1
    38   21   35 1
    39   22   36 1
    40   22   37 1
    41   38   39 1
@<TRIPOS>MOLECULE
ZINC03814836
   46    48     0     0     0
SMALL
USER_CHARGES

@<TRIPOS>ATOM
      1 C1          4.9065    1.4494   -0.0370 C.3       1 <0>        -0.1508
      2 C2          3.5712    2.1963   -0.0202 C.3       1 <0>        -0.1363
      3 C3          2.4220    1.1863   -0.0147 C.3       1 <0>         0.1177
      4 N1          1.1435    1.9015    0.0014 N.am      1 <0>        -0.7322
      5 C4         -0.0144    1.2118    0.0087 C.2       1 <0>         0.5631
      6 O1          0.0021   -0.0041    0.0020 O.2       1 <0>        -0.5445
      7 C5         -1.3019    1.9319    0.0187 C.ar      1 <0>        -0.2002
      8 C6         -1.3225    3.3297    0.0323 C.ar      1 <0>        -0.0338
      9 C7         -2.5251    3.9986    0.0363 C.ar      1 <0>        -0.2072
     10 C8         -3.7203    3.2847    0.0380 C.ar      1 <0>         0.2466
     11 C9         -3.7031    1.8927    0.0304 C.ar      1 <0>        -0.2034
     12 C10        -2.5038    1.2180    0.0205 C.ar      1 <0>        -0.0067
     13 N2         -4.9338    3.9635    0.0480 N.pl3     1 <0>        -0.7338
     14 C11        -4.9537    5.4284    0.0561 C.3       1 <0>         0.1864
     15 C12        -6.3811    5.9113    0.0660 C.ar      1 <0>         0.0159
     16 C13        -6.9951    6.2260    1.2779 C.ar      1 <0>         0.1581
     17 N3         -8.2405    6.6502    1.3120 N.ar      1 <0>        -0.4402
     18 C14        -8.9235    6.7803    0.1720 C.ar      1 <0>         0.3817
     19 C15        -8.2948    6.4590   -1.0568 C.ar      1 <0>        -0.0935
     20 N4         -7.0344    6.0371   -1.0695 N.ar      1 <0>        -0.3607
     21 C16        -9.0757    6.6143   -2.2853 C.ar      1 <0>         0.5469
     22 N5        -10.3241    7.0460   -2.1715 N.ar      1 <0>        -0.6276
     23 C17       -10.8509    7.3288   -0.9842 C.ar      1 <0>         0.6447
     24 N6        -10.1923    7.2070    0.1511 N.ar      1 <0>        -0.6024
     25 N7        -12.1581    7.7744   -0.9378 N.pl3     1 <0>        -0.8036
     26 N8         -8.5323    6.3216   -3.5170 N.pl3     1 <0>        -0.7892
     27 H1          4.9812    0.8188    0.8489 H         1 <0>         0.0584
     28 H2          4.9642    0.8284   -0.9309 H         1 <0>         0.0583
     29 H3          5.7252    2.1689   -0.0410 H         1 <0>         0.0605
     30 H4          3.4965    2.8268   -0.9062 H         1 <0>         0.0686
     31 H5          3.5135    2.8173    0.8737 H         1 <0>         0.0688
     32 H6          2.4967    0.5557    0.8712 H         1 <0>         0.0682
     33 H7          2.4797    0.5653   -0.9086 H         1 <0>         0.0681
     34 H8          1.1303    2.8713    0.0067 H         1 <0>         0.3985
     35 H9         -0.3956    3.8839    0.0354 H         1 <0>         0.1235
     36 H10        -2.5417    5.0784    0.0419 H         1 <0>         0.1285
     37 H11        -4.6320    1.3417    0.0318 H         1 <0>         0.1269
     38 H12        -2.4911    0.1381    0.0139 H         1 <0>         0.1350
     39 H13        -5.7672    3.4671    0.0496 H         1 <0>         0.4032
     40 H14        -4.4402    5.7938    0.9454 H         1 <0>         0.0874
     41 H15        -4.4494    5.8035   -0.8345 H         1 <0>         0.0846
     42 H16        -6.4421    6.1202    2.1995 H         1 <0>         0.1825
     43 H17       -12.5676    7.9883   -0.0849 H         1 <0>         0.4211
     44 H18       -12.6662    7.8733   -1.7582 H         1 <0>         0.4185
     45 H19        -9.0650    6.4303   -4.3203 H         1 <0>         0.4177
     46 H20        -7.6170    6.0069   -3.5809 H         1 <0>         0.4264
@<TRIPOS>BOND
     1    1    2 1
     2    1   27 1
     3    1   28 1
     4    1   29 1
     5    2    3 1
     6    2   30 1
     7    2   31 1
     8    3    4 1
     9    3   32 1
    10    3   33 1
    11    4    5 am
    12    4   34 1
    13    5    6 2
    14    5    7 1
    15    7   12 ar
    16    7    8 ar
    17    8    9 ar
    18    8   35 1
    19    9   10 ar
    20    9   36 1
    21   10   11 ar
    22   10   13 1
    23   11   12 ar
    24   11   37 1
    25   12   38 1
    26   13   14 1
    27   13   39 1
    28   14   15 1
    29   14   40 1
    30   14   41 1
    31   15   20 ar
    32   15   16 ar
    33   16   17 ar
    34   16   42 1
    35   17   18 ar
    36   18   24 ar
    37   18   19 ar
    38   19   20 ar
    39   19   21 ar
    40   21   22 ar
    41   21   26 1
    42   22   23 ar
    43   23   24 ar
    44   23   25 1
    45   25   43 1
    46   25   44 1
    47   26   45 1
    48   26   46 1
@<TRIPOS>MOLECULE
ZINC03814836
   47    49     0     0     0
SMALL
USER_CHARGES

@<TRIPOS>ATOM
      1 C1          4.9065    1.4494   -0.0370 C.3       1 <0>        -0.1519
      2 C2          3.5712    2.1963   -0.0202 C.3       1 <0>        -0.1358
      3 C3          2.4220    1.1863   -0.0147 C.3       1 <0>         0.1164
      4 N1          1.1435    1.9015    0.0014 N.am      1 <0>        -0.7297
      5 C4         -0.0144    1.2118    0.0087 C.2       1 <0>         0.5590
      6 O1          0.0021   -0.0041    0.0020 O.2       1 <0>        -0.5387
      7 C5         -1.3019    1.9319    0.0187 C.ar      1 <0>        -0.1849
      8 C6         -1.3225    3.3297    0.0323 C.ar      1 <0>        -0.0356
      9 C7         -2.5251    3.9986    0.0363 C.ar      1 <0>        -0.2024
     10 C8         -3.7203    3.2847    0.0380 C.ar      1 <0>         0.2347
     11 C9         -3.7031    1.8927    0.0304 C.ar      1 <0>        -0.1953
     12 C10        -2.5038    1.2180    0.0205 C.ar      1 <0>        -0.0082
     13 N2         -4.9338    3.9635    0.0480 N.pl3     1 <0>        -0.7418
     14 C11        -4.9537    5.4284    0.0561 C.3       1 <0>         0.1756
     15 C12        -6.3811    5.9113    0.0660 C.ar      1 <0>         0.0732
     16 C13        -6.9951    6.2260    1.2779 C.ar      1 <0>         0.1840
     17 N3         -8.2405    6.6502    1.3120 N.ar      1 <0>        -0.4434
     18 C14        -8.9235    6.7803    0.1720 C.ar      1 <0>         0.3462
     19 C15        -8.2948    6.4590   -1.0568 C.ar      1 <0>        -0.0148
     20 N4         -7.0344    6.0371   -1.0695 N.ar      1 <0>        -0.3472
     21 C16        -9.0757    6.6143   -2.2853 C.ar      1 <0>         0.5816
     22 N5        -10.3241    7.0460   -2.1715 N.ar      1 <0>        -0.5736
     23 C17       -10.8509    7.3288   -0.9842 C.ar      1 <0>         0.7122
     24 N6        -12.1581    7.7744   -0.9378 N.pl3     1 <0>        -0.7727
     25 N7         -8.5323    6.3216   -3.5170 N.pl3     1 <0>        -0.7283
     26 H1          4.9812    0.8188    0.8489 H         1 <0>         0.0592
     27 H2          4.9642    0.8284   -0.9309 H         1 <0>         0.0591
     28 H3          5.7252    2.1689   -0.0410 H         1 <0>         0.0619
     29 H4          3.4965    2.8268   -0.9062 H         1 <0>         0.0685
     30 H5          3.5135    2.8173    0.8737 H         1 <0>         0.0687
     31 H6          2.4967    0.5557    0.8712 H         1 <0>         0.0701
     32 H7          2.4797    0.5653   -0.9086 H         1 <0>         0.0700
     33 H8          1.1303    2.8713    0.0067 H         1 <0>         0.3982
     34 H9         -0.3956    3.8839    0.0354 H         1 <0>         0.1272
     35 H10        -2.5417    5.0784    0.0419 H         1 <0>         0.1282
     36 H11        -4.6320    1.3417    0.0318 H         1 <0>         0.1280
     37 H12        -2.4911    0.1381    0.0139 H         1 <0>         0.1389
     38 H13        -5.7672    3.4671    0.0496 H         1 <0>         0.4025
     39 H14        -4.4402    5.7938    0.9454 H         1 <0>         0.1001
     40 H15        -4.4494    5.8035   -0.8345 H         1 <0>         0.0973
     41 H16        -6.4421    6.1202    2.1995 H         1 <0>         0.2097
     42 H17       -12.5676    7.9883   -0.0849 H         1 <0>         0.4352
     43 H18       -12.6662    7.8733   -1.7582 H         1 <0>         0.4473
     44 H19        -9.0650    6.4303   -4.3203 H         1 <0>         0.4382
     45 H20        -7.6170    6.0069   -3.5809 H         1 <0>         0.4444
     46 N8        -10.2271    7.2245    0.2162 N.ar      1 <0>        -0.5954
     47 H21       -10.6506    7.4454    1.0947 H         1 <0>         0.4640
@<TRIPOS>BOND
     1    1    2 1
     2    1   26 1
     3    1   27 1
     4    1   28 1
     5    2    3 1
     6    2   29 1
     7    2   30 1
     8    3    4 1
     9    3   31 1
    10    3   32 1
    11    4    5 am
    12    4   33 1
    13    5    6 2
    14    5    7 1
    15    7   12 ar
    16    7    8 ar
    17    8    9 ar
    18    8   34 1
    19    9   10 ar
    20    9   35 1
    21   10   11 ar
    22   10   13 1
    23   11   12 ar
    24   11   36 1
    25   12   37 1
    26   13   14 1
    27   13   38 1
    28   14   15 1
    29   14   39 1
    30   14   40 1
    31   15   20 ar
    32   15   16 ar
    33   16   17 ar
    34   16   41 1
    35   17   18 ar
    36   18   19 ar
    37   18   46 ar
    38   19   20 ar
    39   19   21 ar
    40   21   22 ar
    41   21   25 1
    42   22   23 ar
    43   23   24 1
    44   23   46 ar
    45   24   42 1
    46   24   43 1
    47   25   44 1
    48   25   45 1
    49   46   47 1
@<TRIPOS>MOLECULE
ZINC03814837
   44    46     0     0     0
SMALL
USER_CHARGES

@<TRIPOS>ATOM
      1 C1         -1.2164   -1.2624   -0.2210 C.3       1 <0>        -0.1554
      2 C2         -2.4900   -0.4570   -0.2026 C.ar      1 <0>        -0.0041
      3 C3         -3.6756   -1.0380   -0.5473 C.ar      1 <0>        -0.1203
      4 C4         -4.8594   -0.3071   -0.5355 C.ar      1 <0>        -0.0484
      5 C5         -4.8688    1.0092   -0.1791 C.ar      1 <0>        -0.1336
      6 C6         -3.6690    1.6373    0.1802 C.ar      1 <0>         0.2304
      7 C7         -2.4652    0.8915    0.1674 C.ar      1 <0>        -0.2230
      8 C8         -1.2639    1.5478    0.5361 C.ar      1 <0>         0.5092
      9 N1         -1.3262    2.8257    0.8796 N.ar      1 <0>        -0.6176
     10 C9         -2.4785    3.4905    0.8732 C.ar      1 <0>         0.6015
     11 N2         -3.6246    2.9292    0.5391 N.ar      1 <0>        -0.5998
     12 N3         -2.4756    4.8248    1.2371 N.pl3     1 <0>        -0.8205
     13 N4         -0.0626    0.8721    0.5424 N.pl3     1 <0>        -0.8504
     14 C10        -3.7029   -2.4909   -0.9466 C.3       1 <0>        -0.0397
     15 C11        -3.8023   -3.3494    0.2879 C.ar      1 <0>         0.0028
     16 C12        -2.6531   -3.7881    0.9173 C.ar      1 <0>        -0.1903
     17 C13        -2.7421   -4.5741    2.0576 C.ar      1 <0>         0.1674
     18 C14        -3.9852   -4.9280    2.5588 C.ar      1 <0>        -0.3020
     19 C15        -5.1367   -4.4913    1.9223 C.ar      1 <0>         0.1691
     20 C16        -5.0425   -3.7012    0.7853 C.ar      1 <0>        -0.1824
     21 O1         -6.3567   -4.8363    2.4116 O.3       1 <0>        -0.3131
     22 C17        -6.3783   -5.6514    3.5851 C.3       1 <0>         0.0265
     23 O2         -1.6115   -5.0011    2.6791 O.3       1 <0>        -0.3139
     24 C18        -1.7782   -5.8116    3.8441 C.3       1 <0>         0.0264
     25 H1         -0.9949   -1.6150    0.7864 H         1 <0>         0.0802
     26 H2         -1.3366   -2.1170   -0.8868 H         1 <0>         0.0797
     27 H3         -0.3966   -0.6378   -0.5758 H         1 <0>         0.0953
     28 H4         -5.7851   -0.7896   -0.8125 H         1 <0>         0.1307
     29 H5         -5.7953    1.5641   -0.1738 H         1 <0>         0.1365
     30 H6         -3.3050    5.3277    1.2430 H         1 <0>         0.4152
     31 H7         -1.6441    5.2577    1.4864 H         1 <0>         0.4126
     32 H8          0.7355    1.2985    0.1932 H         1 <0>         0.4072
     33 H9         -0.0146   -0.0284    0.8998 H         1 <0>         0.4178
     34 H10        -4.5649   -2.6753   -1.5878 H         1 <0>         0.0885
     35 H11        -2.7889   -2.7364   -1.4873 H         1 <0>         0.0908
     36 H12        -1.6849   -3.5154    0.5241 H         1 <0>         0.1354
     37 H13        -4.0564   -5.5427    3.4440 H         1 <0>         0.1330
     38 H14        -5.9393   -3.3608    0.2891 H         1 <0>         0.1325
     39 H15        -5.8731   -5.1307    4.3985 H         1 <0>         0.0548
     40 H16        -7.4113   -5.8528    3.8687 H         1 <0>         0.1028
     41 H17        -5.8669   -6.5926    3.3831 H         1 <0>         0.0553
     42 H18        -2.3277   -6.7158    3.5820 H         1 <0>         0.0555
     43 H19        -0.7999   -6.0831    4.2409 H         1 <0>         0.1026
     44 H20        -2.3341   -5.2542    4.5980 H         1 <0>         0.0548
@<TRIPOS>BOND
     1    1    2 1
     2    1   25 1
     3    1   26 1
     4    1   27 1
     5    2    7 ar
     6    2    3 ar
     7    3    4 ar
     8    3   14 1
     9    4    5 ar
    10    4   28 1
    11    5    6 ar
    12    5   29 1
    13    6   11 ar
    14    6    7 ar
    15    7    8 ar
    16    8    9 ar
    17    8   13 1
    18    9   10 ar
    19   10   11 ar
    20   10   12 1
    21   12   30 1
    22   12   31 1
    23   13   32 1
    24   13   33 1
    25   14   15 1
    26   14   34 1
    27   14   35 1
    28   15   20 ar
    29   15   16 ar
    30   16   17 ar
    31   16   36 1
    32   17   18 ar
    33   17   23 1
    34   18   19 ar
    35   18   37 1
    36   19   20 ar
    37   19   21 1
    38   20   38 1
    39   21   22 1
    40   22   39 1
    41   22   40 1
    42   22   41 1
    43   23   24 1
    44   24   42 1
    45   24   43 1
    46   24   44 1
@<TRIPOS>MOLECULE
ZINC03814837
   45    47     0     0     0
SMALL
USER_CHARGES

@<TRIPOS>ATOM
      1 C1         -1.2164   -1.2624   -0.2210 C.3       1 <0>        -0.1703
      2 C2         -2.4900   -0.4570   -0.2026 C.ar      1 <0>         0.0182
      3 C3         -3.6756   -1.0380   -0.5473 C.ar      1 <0>        -0.0842
      4 C4         -4.8594   -0.3071   -0.5355 C.ar      1 <0>        -0.0067
      5 C5         -4.8688    1.0092   -0.1791 C.ar      1 <0>        -0.1545
      6 C6         -3.6690    1.6373    0.1802 C.ar      1 <0>         0.2007
      7 C7         -2.4652    0.8915    0.1674 C.ar      1 <0>        -0.1812
      8 C8         -1.2639    1.5478    0.5361 C.ar      1 <0>         0.5735
      9 N1         -1.3262    2.8257    0.8796 N.ar      1 <0>        -0.5770
     10 C9         -2.4785    3.4905    0.8732 C.ar      1 <0>         0.6814
     11 N2         -2.4756    4.8248    1.2371 N.pl3     1 <0>        -0.7886
     12 N3         -0.0626    0.8721    0.5424 N.pl3     1 <0>        -0.8074
     13 C10        -3.7029   -2.4909   -0.9466 C.3       1 <0>        -0.0490
     14 C11        -3.8023   -3.3494    0.2879 C.ar      1 <0>        -0.0111
     15 C12        -2.6531   -3.7881    0.9173 C.ar      1 <0>        -0.1944
     16 C13        -2.7421   -4.5741    2.0576 C.ar      1 <0>         0.1728
     17 C14        -3.9852   -4.9280    2.5588 C.ar      1 <0>        -0.2975
     18 C15        -5.1367   -4.4913    1.9223 C.ar      1 <0>         0.1750
     19 C16        -5.0425   -3.7012    0.7853 C.ar      1 <0>        -0.1845
     20 O1         -6.3567   -4.8363    2.4116 O.3       1 <0>        -0.3116
     21 C17        -6.3783   -5.6514    3.5851 C.3       1 <0>         0.0245
     22 O2         -1.6115   -5.0011    2.6791 O.3       1 <0>        -0.3129
     23 C18        -1.7782   -5.8116    3.8441 C.3       1 <0>         0.0243
     24 H1         -0.9949   -1.6150    0.7864 H         1 <0>         0.0995
     25 H2         -1.3366   -2.1170   -0.8868 H         1 <0>         0.1010
     26 H3         -0.3966   -0.6378   -0.5758 H         1 <0>         0.1010
     27 H4         -5.7851   -0.7896   -0.8125 H         1 <0>         0.1552
     28 H5         -5.7953    1.5641   -0.1738 H         1 <0>         0.1564
     29 H6         -3.3050    5.3277    1.2430 H         1 <0>         0.4302
     30 H7         -1.6441    5.2577    1.4864 H         1 <0>         0.4428
     31 H8          0.7355    1.2985    0.1932 H         1 <0>         0.4280
     32 H9         -0.0146   -0.0284    0.8998 H         1 <0>         0.4364
     33 H10        -4.5649   -2.6753   -1.5878 H         1 <0>         0.1008
     34 H11        -2.7889   -2.7364   -1.4873 H         1 <0>         0.1020
     35 H12        -1.6849   -3.5154    0.5241 H         1 <0>         0.1351
     36 H13        -4.0564   -5.5427    3.4440 H         1 <0>         0.1371
     37 H14        -5.9393   -3.3608    0.2891 H         1 <0>         0.1335
     38 H15        -5.8731   -5.1307    4.3985 H         1 <0>         0.0566
     39 H16        -7.4113   -5.8528    3.8687 H         1 <0>         0.1069
     40 H17        -5.8669   -6.5926    3.3831 H         1 <0>         0.0587
     41 H18        -2.3277   -6.7158    3.5820 H         1 <0>         0.0589
     42 H19        -0.7999   -6.0831    4.2409 H         1 <0>         0.1067
     43 H20        -2.3341   -5.2542    4.5980 H         1 <0>         0.0566
     44 N4         -3.6845    2.9680    0.5402 N.ar      1 <0>        -0.5991
     45 H21        -4.5028    3.5422    0.5672 H         1 <0>         0.4563
@<TRIPOS>BOND
     1    1    2 1
     2    1   24 1
     3    1   25 1
     4    1   26 1
     5    2    7 ar
     6    2    3 ar
     7    3    4 ar
     8    3   13 1
     9    4    5 ar
    10    4   27 1
    11    5    6 ar
    12    5   28 1
    13    6    7 ar
    14    6   44 ar
    15    7    8 ar
    16    8    9 ar
    17    8   12 1
    18    9   10 ar
    19   10   11 1
    20   10   44 ar
    21   11   29 1
    22   11   30 1
    23   12   31 1
    24   12   32 1
    25   13   14 1
    26   13   33 1
    27   13   34 1
    28   14   19 ar
    29   14   15 ar
    30   15   16 ar
    31   15   35 1
    32   16   17 ar
    33   16   22 1
    34   17   18 ar
    35   17   36 1
    36   18   19 ar
    37   18   20 1
    38   19   37 1
    39   20   21 1
    40   21   38 1
    41   21   39 1
    42   21   40 1
    43   22   23 1
    44   23   41 1
    45   23   42 1
    46   23   43 1
    47   44   45 1
@<TRIPOS>MOLECULE
ZINC03814838
   47    49     0     0     0
SMALL
USER_CHARGES

@<TRIPOS>ATOM
      1 C1          0.0023   -2.8537   -0.0330 C.ar      1 <0>        -0.0364
      2 C2          0.0273   -4.2295   -0.0439 C.ar      1 <0>        -0.2019
      3 C3          1.0315   -4.9144    0.6349 C.ar      1 <0>         0.2185
      4 C4          2.0166   -4.2101    1.3217 C.ar      1 <0>        -0.2023
      5 C5          2.0006   -2.8341    1.3312 C.ar      1 <0>        -0.0195
      6 C6          0.9936   -2.1435    0.6506 C.ar      1 <0>        -0.1525
      7 C7          0.9736   -0.6685    0.6587 C.2       1 <0>         0.5612
      8 O1          1.8336   -0.0520    1.2578 O.2       1 <0>        -0.5640
      9 N1          0.0021   -0.0041    0.0020 N.am      1 <0>        -0.6662
     10 C8         -0.0178    1.4608    0.0101 C.3       1 <0>         0.1242
     11 H1          1.0048    1.8381    0.0023 H         1 <0>         0.0878
     12 C9         -0.7578    1.9676   -1.2295 C.3       1 <0>        -0.1500
     13 C10         0.0141    1.5862   -2.4663 C.2       1 <0>         0.4626
     14 O2          1.0498    0.9720   -2.3666 O.co2     1 <0>        -0.6319
     15 C11        -0.7232    1.9468    1.2500 C.2       1 <0>         0.4633
     16 O3         -1.1640    1.1512    2.0453 O.co2     1 <0>        -0.6415
     17 N2          1.0504   -6.3047    0.6272 N.pl3     1 <0>        -0.7433
     18 C12         0.0145   -7.0473   -0.0951 C.3       1 <0>         0.1865
     19 C13         0.2616   -8.5266    0.0526 C.ar      1 <0>         0.0338
     20 C14        -0.3936   -9.2392    1.0563 C.ar      1 <0>         0.1580
     21 N3         -0.1944  -10.5317    1.2047 N.ar      1 <0>        -0.4429
     22 C15         0.6454  -11.1672    0.3839 C.ar      1 <0>         0.3742
     23 C16         1.3088  -10.4382   -0.6345 C.ar      1 <0>        -0.0914
     24 N4          1.0896   -9.1343   -0.7703 N.ar      1 <0>        -0.3631
     25 C17         2.2218  -11.1696   -1.5146 C.ar      1 <0>         0.5463
     26 N5          2.3716  -12.4699   -1.3036 N.ar      1 <0>        -0.6317
     27 C18         1.7167  -13.0905   -0.3274 C.ar      1 <0>         0.6391
     28 N6          0.8838  -12.4802    0.4920 N.ar      1 <0>        -0.6035
     29 N7          1.9194  -14.4475   -0.1631 N.pl3     1 <0>        -0.8095
     30 N8          2.9021  -10.5288   -2.5267 N.pl3     1 <0>        -0.7889
     31 H2         -0.7795   -2.3231   -0.5561 H         1 <0>         0.1269
     32 H3         -0.7355   -4.7787   -0.5758 H         1 <0>         0.1217
     33 H4          2.7943   -4.7441    1.8474 H         1 <0>         0.1179
     34 H5          2.7655   -2.2883    1.8636 H         1 <0>         0.1328
     35 H6         -0.6840   -0.4958   -0.4759 H         1 <0>         0.3847
     36 H7         -1.7507    1.5197   -1.2683 H         1 <0>         0.0586
     37 H8         -0.8503    3.0525   -1.1791 H         1 <0>         0.0858
     38 H9          1.7494   -6.7829    1.1001 H         1 <0>         0.3963
     39 H10        -0.9639   -6.7996    0.3164 H         1 <0>         0.0847
     40 H11         0.0435   -6.7778   -1.1508 H         1 <0>         0.0825
     41 H12        -1.0724   -8.7243    1.7200 H         1 <0>         0.1850
     42 H13         1.4542  -14.9257    0.5410 H         1 <0>         0.4184
     43 H14         2.5269  -14.9219   -0.7520 H         1 <0>         0.4156
     44 H15         3.5033  -11.0297   -3.0999 H         1 <0>         0.4156
     45 H16         2.7799   -9.5767   -2.6662 H         1 <0>         0.4289
     46 O4         -0.4490    1.9288   -3.6787 O.co2     1 <0>        -0.7928
     47 O5         -0.8617    3.2635    1.4708 O.co2     1 <0>        -0.7778
@<TRIPOS>BOND
     1    1    6 ar
     2    1    2 ar
     3    1   31 1
     4    2    3 ar
     5    2   32 1
     6    3    4 ar
     7    3   17 1
     8    4    5 ar
     9    4   33 1
    10    5    6 ar
    11    5   34 1
    12    6    7 1
    13    7    8 2
    14    7    9 am
    15    9   10 1
    16    9   35 1
    17   10   11 1
    18   10   12 1
    19   10   15 1
    20   12   13 1
    21   12   36 1
    22   12   37 1
    23   13   14 2
    24   13   46 1
    25   15   16 2
    26   15   47 1
    27   17   18 1
    28   17   38 1
    29   18   19 1
    30   18   39 1
    31   18   40 1
    32   19   24 ar
    33   19   20 ar
    34   20   21 ar
    35   20   41 1
    36   21   22 ar
    37   22   28 ar
    38   22   23 ar
    39   23   24 ar
    40   23   25 ar
    41   25   26 ar
    42   25   30 1
    43   26   27 ar
    44   27   28 ar
    45   27   29 1
    46   29   42 1
    47   29   43 1
    48   30   44 1
    49   30   45 1
@<TRIPOS>MOLECULE
ZINC03814838
   48    50     0     0     0
SMALL
USER_CHARGES

@<TRIPOS>ATOM
      1 C1          0.0023   -2.8537   -0.0330 C.ar      1 <0>        -0.0383
      2 C2          0.0273   -4.2295   -0.0439 C.ar      1 <0>        -0.1969
      3 C3          1.0315   -4.9144    0.6349 C.ar      1 <0>         0.2048
      4 C4          2.0166   -4.2101    1.3217 C.ar      1 <0>        -0.1942
      5 C5          2.0006   -2.8341    1.3312 C.ar      1 <0>        -0.0209
      6 C6          0.9936   -2.1435    0.6506 C.ar      1 <0>        -0.1379
      7 C7          0.9736   -0.6685    0.6587 C.2       1 <0>         0.5563
      8 O1          1.8336   -0.0520    1.2578 O.2       1 <0>        -0.5592
      9 N1          0.0021   -0.0041    0.0020 N.am      1 <0>        -0.6627
     10 C8         -0.0178    1.4608    0.0101 C.3       1 <0>         0.1235
     11 H1          1.0048    1.8381    0.0023 H         1 <0>         0.0892
     12 C9         -0.7578    1.9676   -1.2295 C.3       1 <0>        -0.1508
     13 C10         0.0141    1.5862   -2.4663 C.2       1 <0>         0.4629
     14 O2          1.0498    0.9720   -2.3666 O.co2     1 <0>        -0.6346
     15 C11        -0.7232    1.9468    1.2500 C.2       1 <0>         0.4632
     16 O3         -1.1640    1.1512    2.0453 O.co2     1 <0>        -0.6436
     17 N2          1.0504   -6.3047    0.6272 N.pl3     1 <0>        -0.7484
     18 C12         0.0145   -7.0473   -0.0951 C.3       1 <0>         0.1752
     19 C13         0.2616   -8.5266    0.0526 C.ar      1 <0>         0.0886
     20 C14        -0.3936   -9.2392    1.0563 C.ar      1 <0>         0.1840
     21 N3         -0.1944  -10.5317    1.2047 N.ar      1 <0>        -0.4456
     22 C15         0.6454  -11.1672    0.3839 C.ar      1 <0>         0.3362
     23 C16         1.3088  -10.4382   -0.6345 C.ar      1 <0>        -0.0147
     24 N4          1.0896   -9.1343   -0.7703 N.ar      1 <0>        -0.3484
     25 C17         2.2218  -11.1696   -1.5146 C.ar      1 <0>         0.5822
     26 N5          2.3716  -12.4699   -1.3036 N.ar      1 <0>        -0.5778
     27 C18         1.7167  -13.0905   -0.3274 C.ar      1 <0>         0.7114
     28 N6          1.9194  -14.4475   -0.1631 N.pl3     1 <0>        -0.7799
     29 N7          2.9021  -10.5288   -2.5267 N.pl3     1 <0>        -0.7266
     30 H2         -0.7795   -2.3231   -0.5561 H         1 <0>         0.1304
     31 H3         -0.7355   -4.7787   -0.5758 H         1 <0>         0.1211
     32 H4          2.7943   -4.7441    1.8474 H         1 <0>         0.1187
     33 H5          2.7655   -2.2883    1.8636 H         1 <0>         0.1366
     34 H6         -0.6840   -0.4958   -0.4759 H         1 <0>         0.3842
     35 H7         -1.7507    1.5197   -1.2683 H         1 <0>         0.0589
     36 H8         -0.8503    3.0525   -1.1791 H         1 <0>         0.0877
     37 H9          1.7494   -6.7829    1.1001 H         1 <0>         0.3957
     38 H10        -0.9639   -6.7996    0.3164 H         1 <0>         0.0979
     39 H11         0.0435   -6.7778   -1.1508 H         1 <0>         0.0955
     40 H12        -1.0724   -8.7243    1.7200 H         1 <0>         0.2119
     41 H13         1.4542  -14.9257    0.5410 H         1 <0>         0.4328
     42 H14         2.5269  -14.9219   -0.7520 H         1 <0>         0.4447
     43 H15         3.5033  -11.0297   -3.0999 H         1 <0>         0.4364
     44 H16         2.7799   -9.5767   -2.6662 H         1 <0>         0.4470
     45 O4         -0.4490    1.9288   -3.6787 O.co2     1 <0>        -0.7901
     46 O5         -0.8617    3.2635    1.4708 O.co2     1 <0>        -0.7731
     47 N8          0.8490  -12.5203    0.5460 N.ar      1 <0>        -0.5947
     48 H17         0.3701  -13.0146    1.2716 H         1 <0>         0.4615
@<TRIPOS>BOND
     1    1    6 ar
     2    1    2 ar
     3    1   30 1
     4    2    3 ar
     5    2   31 1
     6    3    4 ar
     7    3   17 1
     8    4    5 ar
     9    4   32 1
    10    5    6 ar
    11    5   33 1
    12    6    7 1
    13    7    8 2
    14    7    9 am
    15    9   10 1
    16    9   34 1
    17   10   11 1
    18   10   12 1
    19   10   15 1
    20   12   13 1
    21   12   35 1
    22   12   36 1
    23   13   14 2
    24   13   45 1
    25   15   16 2
    26   15   46 1
    27   17   18 1
    28   17   37 1
    29   18   19 1
    30   18   38 1
    31   18   39 1
    32   19   24 ar
    33   19   20 ar
    34   20   21 ar
    35   20   40 1
    36   21   22 ar
    37   22   23 ar
    38   22   47 ar
    39   23   24 ar
    40   23   25 ar
    41   25   26 ar
    42   25   29 1
    43   26   27 ar
    44   27   28 1
    45   27   47 ar
    46   28   41 1
    47   28   42 1
    48   29   43 1
    49   29   44 1
    50   47   48 1
@<TRIPOS>MOLECULE
ZINC03814839
   35    37     0     0     0
SMALL
USER_CHARGES

@<TRIPOS>ATOM
      1 C1         -0.0167    1.3786    0.0096 C.ar      1 <0>        -0.1804
      2 C2          1.1695    2.0894    0.0021 C.ar      1 <0>        -0.0728
      3 C3          2.3774    1.4200   -0.0131 C.ar      1 <0>        -0.1994
      4 C4          2.3998    0.0311   -0.0208 C.ar      1 <0>         0.2146
      5 C5          1.2064   -0.6798   -0.0132 C.ar      1 <0>        -0.1964
      6 C6          0.0021   -0.0041    0.0020 C.ar      1 <0>        -0.0725
      7 N1          3.6196   -0.6491   -0.0366 N.pl3     1 <0>        -0.7459
      8 C7          4.8773    0.1022   -0.0446 C.3       1 <0>         0.1719
      9 C8          6.0371   -0.8599   -0.0614 C.ar      1 <0>        -0.1470
     10 C9          6.5810   -1.3006    1.1416 C.ar      1 <0>        -0.0463
     11 C10         7.6271   -2.1746    1.1611 C.ar      1 <0>        -0.1276
     12 C11         8.1717   -2.6293   -0.0477 C.ar      1 <0>         0.2433
     13 C12         7.6203   -2.1754   -1.2705 C.ar      1 <0>        -0.2434
     14 C13         6.5433   -1.2826   -1.2556 C.ar      1 <0>        -0.0283
     15 C14         8.1871   -2.6490   -2.4801 C.ar      1 <0>         0.5153
     16 N2          9.2054   -3.4935   -2.4085 N.ar      1 <0>        -0.6362
     17 C15         9.6929   -3.8945   -1.2378 C.ar      1 <0>         0.6169
     18 N3          9.2033   -3.4857   -0.0828 N.ar      1 <0>        -0.6120
     19 N4         10.7574   -4.7776   -1.2308 N.pl3     1 <0>        -0.8177
     20 N5          7.6912   -2.2417   -3.7000 N.pl3     1 <0>        -0.8183
     21 H1         -0.9599    1.9046    0.0170 H         1 <0>         0.1172
     22 H2          1.1513    3.1692    0.0078 H         1 <0>         0.1196
     23 H3          3.3034    1.9757   -0.0190 H         1 <0>         0.1194
     24 H4          1.2204   -1.7597   -0.0194 H         1 <0>         0.1178
     25 H5         -0.9261   -0.5561    0.0076 H         1 <0>         0.1198
     26 H6          3.6341   -1.6190   -0.0423 H         1 <0>         0.4001
     27 H7          4.9170    0.7347   -0.9314 H         1 <0>         0.0664
     28 H8          4.9344    0.7246    0.8484 H         1 <0>         0.0691
     29 H9          6.1651   -0.9481    2.0739 H         1 <0>         0.1317
     30 H10         8.0366   -2.5110    2.1021 H         1 <0>         0.1391
     31 H11         6.1159   -0.9304   -2.1828 H         1 <0>         0.1241
     32 H12        11.1327   -5.0914   -2.0683 H         1 <0>         0.4135
     33 H13        11.1285   -5.0831   -0.3883 H         1 <0>         0.4165
     34 H14         6.9450   -1.6232   -3.7381 H         1 <0>         0.4144
     35 H15         8.0885   -2.5736   -4.5203 H         1 <0>         0.4133
@<TRIPOS>BOND
     1    1    6 ar
     2    1    2 ar
     3    1   21 1
     4    2    3 ar
     5    2   22 1
     6    3    4 ar
     7    3   23 1
     8    4    5 ar
     9    4    7 1
    10    5    6 ar
    11    5   24 1
    12    6   25 1
    13    7    8 1
    14    7   26 1
    15    8    9 1
    16    8   27 1
    17    8   28 1
    18    9   14 ar
    19    9   10 ar
    20   10   11 ar
    21   10   29 1
    22   11   12 ar
    23   11   30 1
    24   12   18 ar
    25   12   13 ar
    26   13   14 ar
    27   13   15 ar
    28   14   31 1
    29   15   16 ar
    30   15   20 1
    31   16   17 ar
    32   17   18 ar
    33   17   19 1
    34   19   32 1
    35   19   33 1
    36   20   34 1
    37   20   35 1
@<TRIPOS>MOLECULE
ZINC03814839
   36    38     0     0     0
SMALL
USER_CHARGES

@<TRIPOS>ATOM
      1 C1         -0.0167    1.3786    0.0096 C.ar      1 <0>        -0.1687
      2 C2          1.1695    2.0894    0.0021 C.ar      1 <0>        -0.0729
      3 C3          2.3774    1.4200   -0.0131 C.ar      1 <0>        -0.1953
      4 C4          2.3998    0.0311   -0.0208 C.ar      1 <0>         0.2042
      5 C5          1.2064   -0.6798   -0.0132 C.ar      1 <0>        -0.1897
      6 C6          0.0021   -0.0041    0.0020 C.ar      1 <0>        -0.0721
      7 N1          3.6196   -0.6491   -0.0366 N.pl3     1 <0>        -0.7521
      8 C7          4.8773    0.1022   -0.0446 C.3       1 <0>         0.1615
      9 C8          6.0371   -0.8599   -0.0614 C.ar      1 <0>        -0.1054
     10 C9          6.5810   -1.3006    1.1416 C.ar      1 <0>        -0.0048
     11 C10         7.6271   -2.1746    1.1611 C.ar      1 <0>        -0.1473
     12 C11         8.1717   -2.6293   -0.0477 C.ar      1 <0>         0.2039
     13 C12         7.6203   -2.1754   -1.2705 C.ar      1 <0>        -0.1896
     14 C13         6.5433   -1.2826   -1.2556 C.ar      1 <0>        -0.0176
     15 C14         8.1871   -2.6490   -2.4801 C.ar      1 <0>         0.5656
     16 N2          9.2054   -3.4935   -2.4085 N.ar      1 <0>        -0.5885
     17 C15         9.6929   -3.8945   -1.2378 C.ar      1 <0>         0.6983
     18 N3         10.7574   -4.7776   -1.2308 N.pl3     1 <0>        -0.7871
     19 N4          7.6912   -2.2417   -3.7000 N.pl3     1 <0>        -0.7635
     20 H1         -0.9599    1.9046    0.0170 H         1 <0>         0.1218
     21 H2          1.1513    3.1692    0.0078 H         1 <0>         0.1234
     22 H3          3.3034    1.9757   -0.0190 H         1 <0>         0.1192
     23 H4          1.2204   -1.7597   -0.0194 H         1 <0>         0.1187
     24 H5         -0.9261   -0.5561    0.0076 H         1 <0>         0.1238
     25 H6          3.6341   -1.6190   -0.0423 H         1 <0>         0.3992
     26 H7          4.9170    0.7347   -0.9314 H         1 <0>         0.0773
     27 H8          4.9344    0.7246    0.8484 H         1 <0>         0.0800
     28 H9          6.1651   -0.9481    2.0739 H         1 <0>         0.1565
     29 H10         8.0366   -2.5110    2.1021 H         1 <0>         0.1595
     30 H11         6.1159   -0.9304   -2.1828 H         1 <0>         0.1515
     31 H12        11.1327   -5.0914   -2.0683 H         1 <0>         0.4430
     32 H13        11.1285   -5.0831   -0.3883 H         1 <0>         0.4312
     33 H14         6.9450   -1.6232   -3.7381 H         1 <0>         0.4325
     34 H15         8.0885   -2.5736   -4.5203 H         1 <0>         0.4337
     35 N5          9.2321   -3.5095   -0.0220 N.ar      1 <0>        -0.6083
     36 H16         9.6052   -3.8174    0.8532 H         1 <0>         0.4581
@<TRIPOS>BOND
     1    1    6 ar
     2    1    2 ar
     3    1   20 1
     4    2    3 ar
     5    2   21 1
     6    3    4 ar
     7    3   22 1
     8    4    5 ar
     9    4    7 1
    10    5    6 ar
    11    5   23 1
    12    6   24 1
    13    7    8 1
    14    7   25 1
    15    8    9 1
    16    8   26 1
    17    8   27 1
    18    9   14 ar
    19    9   10 ar
    20   10   11 ar
    21   10   28 1
    22   11   12 ar
    23   11   29 1
    24   12   13 ar
    25   12   35 ar
    26   13   14 ar
    27   13   15 ar
    28   14   30 1
    29   15   16 ar
    30   15   19 1
    31   16   17 ar
    32   17   18 1
    33   17   35 ar
    34   18   31 1
    35   18   32 1
    36   19   33 1
    37   19   34 1
    38   35   36 1
@<TRIPOS>MOLECULE
ZINC03814840
   38    40     0     0     0
SMALL
USER_CHARGES

@<TRIPOS>ATOM
      1 C1         -1.2963    2.1760    0.0200 C.3       1 <0>         0.0923
      2 N1         -0.0178    1.4608    0.0101 N.pl3     1 <0>        -0.6273
      3 C2          0.0021   -0.0041    0.0020 C.3       1 <0>         0.1665
      4 C3          0.0225   -0.5140    1.4200 C.ar      1 <0>        -0.1445
      5 C4          1.2424   -0.7352    2.0525 C.ar      1 <0>        -0.0493
      6 C5          1.2955   -1.1913    3.3362 C.ar      1 <0>        -0.1266
      7 C6          0.1046   -1.4522    4.0277 C.ar      1 <0>         0.2391
      8 C7         -1.1354   -1.2316    3.3804 C.ar      1 <0>        -0.2396
      9 C8         -1.1550   -0.7578    2.0643 C.ar      1 <0>        -0.0372
     10 C9         -2.3263   -1.5020    4.0996 C.ar      1 <0>         0.5130
     11 N2         -2.2221   -1.9482    5.3428 N.ar      1 <0>        -0.6363
     12 C10        -1.0362   -2.1416    5.9131 C.ar      1 <0>         0.6140
     13 N3          0.1027   -1.9058    5.2899 N.ar      1 <0>        -0.6111
     14 N4         -0.9950   -2.6092    7.2141 N.pl3     1 <0>        -0.8191
     15 N5         -3.5616   -1.3054    3.5206 N.pl3     1 <0>        -0.8198
     16 C11         1.1822    2.1755    0.0025 C.ar      1 <0>         0.2173
     17 C12         2.3954    1.4990   -0.0070 C.ar      1 <0>        -0.1996
     18 C13         3.5800    2.2088   -0.0193 C.ar      1 <0>        -0.0727
     19 C14         3.5594    3.5915   -0.0117 C.ar      1 <0>        -0.1790
     20 C15         2.3535    4.2681    0.0030 C.ar      1 <0>        -0.0728
     21 C16         1.1652    3.5645    0.0101 C.ar      1 <0>        -0.1981
     22 H1         -1.6085    2.3477    1.0501 H         1 <0>         0.0462
     23 H2         -1.1814    3.1328   -0.4892 H         1 <0>         0.0697
     24 H3         -2.0503    1.5794   -0.4935 H         1 <0>         0.0659
     25 H4         -0.8878   -0.3767   -0.5053 H         1 <0>         0.0830
     26 H5          0.8920   -0.3525   -0.5222 H         1 <0>         0.0857
     27 H6          2.1610   -0.5385    1.5196 H         1 <0>         0.1303
     28 H7          2.2493   -1.3549    3.8157 H         1 <0>         0.1371
     29 H8         -2.0955   -0.5866    1.5618 H         1 <0>         0.1197
     30 H9         -1.8202   -2.7889    7.6912 H         1 <0>         0.4128
     31 H10        -0.1410   -2.7573    7.6494 H         1 <0>         0.4159
     32 H11        -3.6237   -0.9780    2.6096 H         1 <0>         0.4133
     33 H12        -4.3689   -1.4945    4.0241 H         1 <0>         0.4125
     34 H13         2.4122    0.4191   -0.0084 H         1 <0>         0.1221
     35 H14         4.5235    1.6835   -0.0308 H         1 <0>         0.1202
     36 H15         4.4873    4.1442   -0.0176 H         1 <0>         0.1170
     37 H16         2.3410    5.3481    0.0086 H         1 <0>         0.1192
     38 H17         0.2237    4.0936    0.0219 H         1 <0>         0.1202
@<TRIPOS>BOND
     1    1    2 1
     2    1   22 1
     3    1   23 1
     4    1   24 1
     5    2    3 1
     6    2   16 1
     7    3    4 1
     8    3   25 1
     9    3   26 1
    10    4    9 ar
    11    4    5 ar
    12    5    6 ar
    13    5   27 1
    14    6    7 ar
    15    6   28 1
    16    7   13 ar
    17    7    8 ar
    18    8    9 ar
    19    8   10 ar
    20    9   29 1
    21   10   11 ar
    22   10   15 1
    23   11   12 ar
    24   12   13 ar
    25   12   14 1
    26   14   30 1
    27   14   31 1
    28   15   32 1
    29   15   33 1
    30   16   21 ar
    31   16   17 ar
    32   17   18 ar
    33   17   34 1
    34   18   19 ar
    35   18   35 1
    36   19   20 ar
    37   19   36 1
    38   20   21 ar
    39   20   37 1
    40   21   38 1
@<TRIPOS>MOLECULE
ZINC03814840
   39    41     0     0     0
SMALL
USER_CHARGES

@<TRIPOS>ATOM
      1 C1         -1.2963    2.1760    0.0200 C.3       1 <0>         0.0890
      2 N1         -0.0178    1.4608    0.0101 N.pl3     1 <0>        -0.6302
      3 C2          0.0021   -0.0041    0.0020 C.3       1 <0>         0.1559
      4 C3          0.0225   -0.5140    1.4200 C.ar      1 <0>        -0.1054
      5 C4          1.2424   -0.7352    2.0525 C.ar      1 <0>        -0.0097
      6 C5          1.2955   -1.1913    3.3362 C.ar      1 <0>        -0.1457
      7 C6          0.1046   -1.4522    4.0277 C.ar      1 <0>         0.1983
      8 C7         -1.1354   -1.2316    3.3804 C.ar      1 <0>        -0.1873
      9 C8         -1.1550   -0.7578    2.0643 C.ar      1 <0>        -0.0252
     10 C9         -2.3263   -1.5020    4.0996 C.ar      1 <0>         0.5651
     11 N2         -2.2221   -1.9482    5.3428 N.ar      1 <0>        -0.5892
     12 C10        -1.0362   -2.1416    5.9131 C.ar      1 <0>         0.6973
     13 N3         -0.9950   -2.6092    7.2141 N.pl3     1 <0>        -0.7884
     14 N4         -3.5616   -1.3054    3.5206 N.pl3     1 <0>        -0.7655
     15 C11         1.1822    2.1755    0.0025 C.ar      1 <0>         0.2065
     16 C12         2.3954    1.4990   -0.0070 C.ar      1 <0>        -0.2035
     17 C13         3.5800    2.2088   -0.0193 C.ar      1 <0>        -0.0727
     18 C14         3.5594    3.5915   -0.0117 C.ar      1 <0>        -0.1693
     19 C15         2.3535    4.2681    0.0030 C.ar      1 <0>        -0.0697
     20 C16         1.1652    3.5645    0.0101 C.ar      1 <0>        -0.1909
     21 H1         -1.6085    2.3477    1.0501 H         1 <0>         0.0460
     22 H2         -1.1814    3.1328   -0.4892 H         1 <0>         0.0759
     23 H3         -2.0503    1.5794   -0.4935 H         1 <0>         0.0691
     24 H4         -0.8878   -0.3767   -0.5053 H         1 <0>         0.0951
     25 H5          0.8920   -0.3525   -0.5222 H         1 <0>         0.0970
     26 H6          2.1610   -0.5385    1.5196 H         1 <0>         0.1540
     27 H7          2.2493   -1.3549    3.8157 H         1 <0>         0.1576
     28 H8         -2.0955   -0.5866    1.5618 H         1 <0>         0.1472
     29 H9         -1.8202   -2.7889    7.6912 H         1 <0>         0.4425
     30 H10        -0.1410   -2.7573    7.6494 H         1 <0>         0.4308
     31 H11        -3.6237   -0.9780    2.6096 H         1 <0>         0.4315
     32 H12        -4.3689   -1.4945    4.0241 H         1 <0>         0.4330
     33 H13         2.4122    0.4191   -0.0084 H         1 <0>         0.1187
     34 H14         4.5235    1.6835   -0.0308 H         1 <0>         0.1232
     35 H15         4.4873    4.1442   -0.0176 H         1 <0>         0.1218
     36 H16         2.3410    5.3481    0.0086 H         1 <0>         0.1241
     37 H17         0.2237    4.0936    0.0219 H         1 <0>         0.1231
     38 N5          0.1644   -1.9173    5.3238 N.ar      1 <0>        -0.6073
     39 H18         1.0513   -2.0654    5.7614 H         1 <0>         0.4574
@<TRIPOS>BOND
     1    1    2 1
     2    1   21 1
     3    1   22 1
     4    1   23 1
     5    2    3 1
     6    2   15 1
     7    3    4 1
     8    3   24 1
     9    3   25 1
    10    4    9 ar
    11    4    5 ar
    12    5    6 ar
    13    5   26 1
    14    6    7 ar
    15    6   27 1
    16    7    8 ar
    17    7   38 ar
    18    8    9 ar
    19    8   10 ar
    20    9   28 1
    21   10   11 ar
    22   10   14 1
    23   11   12 ar
    24   12   13 1
    25   12   38 ar
    26   13   29 1
    27   13   30 1
    28   14   31 1
    29   14   32 1
    30   15   20 ar
    31   15   16 ar
    32   16   17 ar
    33   16   33 1
    34   17   18 ar
    35   17   34 1
    36   18   19 ar
    37   18   35 1
    38   19   20 ar
    39   19   36 1
    40   20   37 1
    41   38   39 1
@<TRIPOS>MOLECULE
ZINC03814841
   36    38     0     0     0
SMALL
USER_CHARGES

@<TRIPOS>ATOM
      1 C1          5.7238    3.7740   -0.0323 C.ar      1 <0>        -0.1077
      2 C2          5.1929    3.3391    1.1676 C.ar      1 <0>        -0.1228
      3 C3          4.1079    2.4825    1.1734 C.ar      1 <0>        -0.0943
      4 C4          3.5541    2.0605   -0.0208 C.ar      1 <0>        -0.1008
      5 C5          4.0886    2.4909   -1.2208 C.ar      1 <0>        -0.0943
      6 C6          5.1700    3.3520   -1.2265 C.ar      1 <0>        -0.1227
      7 C7          2.3716    1.1263   -0.0145 C.3       1 <0>         0.1113
      8 O1          1.1433    1.9005    0.0013 O.3       1 <0>        -0.3462
      9 C8         -0.0144    1.2109    0.0087 C.2       1 <0>         0.5151
     10 O2          0.0021   -0.0041    0.0020 O.2       1 <0>        -0.5129
     11 C9         -1.3012    1.9307    0.0187 C.ar      1 <0>        -0.1712
     12 C10        -1.3156    3.3368    0.0323 C.ar      1 <0>        -0.0185
     13 C11        -2.4885    4.0227    0.0375 C.ar      1 <0>        -0.1380
     14 C12        -3.7074    3.3259    0.0386 C.ar      1 <0>         0.2666
     15 C13        -3.7027    1.9073    0.0304 C.ar      1 <0>        -0.2531
     16 C14        -2.4935    1.2151    0.0205 C.ar      1 <0>         0.0276
     17 C15        -4.9927    1.2182    0.0324 C.ar      1 <0>         0.5239
     18 N1         -6.0896    1.9648    0.0416 N.ar      1 <0>        -0.6363
     19 C16        -6.0206    3.2920    0.0489 C.ar      1 <0>         0.6281
     20 N2         -4.8849    3.9624    0.0472 N.ar      1 <0>        -0.6184
     21 N3         -7.2022    4.0078    0.0584 N.pl3     1 <0>        -0.8129
     22 N4         -5.0664   -0.1567    0.0244 N.pl3     1 <0>        -0.8083
     23 H1          6.5710    4.4438   -0.0368 H         1 <0>         0.1251
     24 H2          5.6255    3.6688    2.1006 H         1 <0>         0.1262
     25 H3          3.6931    2.1427    2.1109 H         1 <0>         0.1248
     26 H4          3.6587    2.1577   -2.1539 H         1 <0>         0.1248
     27 H5          5.5845    3.6921   -2.1640 H         1 <0>         0.1262
     28 H6          2.4135    0.4931    0.8717 H         1 <0>         0.0814
     29 H7          2.3965    0.5027   -0.9082 H         1 <0>         0.0814
     30 H8         -0.3815    3.8789    0.0353 H         1 <0>         0.1446
     31 H9         -2.4831    5.1026    0.0441 H         1 <0>         0.1453
     32 H10        -2.4824    0.1352    0.0146 H         1 <0>         0.1386
     33 H11        -8.0522    3.5406    0.0596 H         1 <0>         0.4146
     34 H12        -7.1817    4.9776    0.0639 H         1 <0>         0.4178
     35 H13        -4.2535   -0.6859    0.0173 H         1 <0>         0.4181
     36 H14        -5.9312   -0.5961    0.0258 H         1 <0>         0.4168
@<TRIPOS>BOND
     1    1    6 ar
     2    1    2 ar
     3    1   23 1
     4    2    3 ar
     5    2   24 1
     6    3    4 ar
     7    3   25 1
     8    4    5 ar
     9    4    7 1
    10    5    6 ar
    11    5   26 1
    12    6   27 1
    13    7    8 1
    14    7   28 1
    15    7   29 1
    16    8    9 1
    17    9   10 2
    18    9   11 1
    19   11   16 ar
    20   11   12 ar
    21   12   13 ar
    22   12   30 1
    23   13   14 ar
    24   13   31 1
    25   14   20 ar
    26   14   15 ar
    27   15   16 ar
    28   15   17 ar
    29   16   32 1
    30   17   18 ar
    31   17   22 1
    32   18   19 ar
    33   19   20 ar
    34   19   21 1
    35   21   33 1
    36   21   34 1
    37   22   35 1
    38   22   36 1
@<TRIPOS>MOLECULE
ZINC03814841
   37    39     0     0     0
SMALL
USER_CHARGES

@<TRIPOS>ATOM
      1 C1          5.7238    3.7740   -0.0323 C.ar      1 <0>        -0.1018
      2 C2          5.1929    3.3391    1.1676 C.ar      1 <0>        -0.1215
      3 C3          4.1079    2.4825    1.1734 C.ar      1 <0>        -0.0934
      4 C4          3.5541    2.0605   -0.0208 C.ar      1 <0>        -0.1097
      5 C5          4.0886    2.4909   -1.2208 C.ar      1 <0>        -0.0935
      6 C6          5.1700    3.3520   -1.2265 C.ar      1 <0>        -0.1215
      7 C7          2.3716    1.1263   -0.0145 C.3       1 <0>         0.1145
      8 O1          1.1433    1.9005    0.0013 O.3       1 <0>        -0.3436
      9 C8         -0.0144    1.2109    0.0087 C.2       1 <0>         0.5063
     10 O2          0.0021   -0.0041    0.0020 O.2       1 <0>        -0.4900
     11 C9         -1.3012    1.9307    0.0187 C.ar      1 <0>        -0.1227
     12 C10        -1.3156    3.3368    0.0323 C.ar      1 <0>         0.0203
     13 C11        -2.4885    4.0227    0.0375 C.ar      1 <0>        -0.1527
     14 C12        -3.7074    3.3259    0.0386 C.ar      1 <0>         0.2210
     15 C13        -3.7027    1.9073    0.0304 C.ar      1 <0>        -0.1924
     16 C14        -2.4935    1.2151    0.0205 C.ar      1 <0>         0.0281
     17 C15        -4.9927    1.2182    0.0324 C.ar      1 <0>         0.5684
     18 N1         -6.0896    1.9648    0.0416 N.ar      1 <0>        -0.5855
     19 C16        -6.0206    3.2920    0.0489 C.ar      1 <0>         0.7024
     20 N2         -7.2022    4.0078    0.0584 N.pl3     1 <0>        -0.7840
     21 N3         -5.0664   -0.1567    0.0244 N.pl3     1 <0>        -0.7535
     22 H1          6.5710    4.4438   -0.0368 H         1 <0>         0.1281
     23 H2          5.6255    3.6688    2.1006 H         1 <0>         0.1286
     24 H3          3.6931    2.1427    2.1109 H         1 <0>         0.1250
     25 H4          3.6587    2.1577   -2.1539 H         1 <0>         0.1250
     26 H5          5.5845    3.6921   -2.1640 H         1 <0>         0.1286
     27 H6          2.4135    0.4931    0.8717 H         1 <0>         0.0868
     28 H7          2.3965    0.5027   -0.9082 H         1 <0>         0.0868
     29 H8         -0.3815    3.8789    0.0353 H         1 <0>         0.1688
     30 H9         -2.4831    5.1026    0.0441 H         1 <0>         0.1658
     31 H10        -2.4824    0.1352    0.0146 H         1 <0>         0.1647
     32 H11        -8.0522    3.5406    0.0596 H         1 <0>         0.4437
     33 H12        -7.1817    4.9776    0.0639 H         1 <0>         0.4319
     34 H13        -4.2535   -0.6859    0.0173 H         1 <0>         0.4358
     35 H14        -5.9312   -0.5961    0.0258 H         1 <0>         0.4365
     36 N4         -4.8866    4.0380    0.0476 N.ar      1 <0>        -0.6108
     37 H15        -4.8669    5.0378    0.0526 H         1 <0>         0.4597
@<TRIPOS>BOND
     1    1    6 ar
     2    1    2 ar
     3    1   22 1
     4    2    3 ar
     5    2   23 1
     6    3    4 ar
     7    3   24 1
     8    4    5 ar
     9    4    7 1
    10    5    6 ar
    11    5   25 1
    12    6   26 1
    13    7    8 1
    14    7   27 1
    15    7   28 1
    16    8    9 1
    17    9   10 2
    18    9   11 1
    19   11   16 ar
    20   11   12 ar
    21   12   13 ar
    22   12   29 1
    23   13   14 ar
    24   13   30 1
    25   14   15 ar
    26   14   36 ar
    27   15   16 ar
    28   15   17 ar
    29   16   31 1
    30   17   18 ar
    31   17   21 1
    32   18   19 ar
    33   19   20 1
    34   19   36 ar
    35   20   32 1
    36   20   33 1
    37   21   34 1
    38   21   35 1
    39   36   37 1
@<TRIPOS>MOLECULE
ZINC03814842
   38    40     0     0     0
SMALL
USER_CHARGES

@<TRIPOS>ATOM
      1 C1         -2.5562    1.5032    1.0734 C.3       1 <0>        -0.1570
      2 C2         -1.2225    2.2025    1.0163 C.ar      1 <0>         0.0471
      3 C3         -1.1246    3.5532    1.2264 C.ar      1 <0>        -0.2003
      4 C4          0.1175    4.1734    1.1737 C.ar      1 <0>         0.2122
      5 N1          1.2174    3.4996    0.9207 N.ar      1 <0>        -0.4870
      6 C5          1.1876    2.1847    0.7027 C.ar      1 <0>         0.4122
      7 C6         -0.0480    1.4926    0.7424 C.ar      1 <0>        -0.2768
      8 C7         -0.0494    0.0953    0.5073 C.ar      1 <0>         0.5241
      9 N2          1.1084   -0.5007    0.2606 N.ar      1 <0>        -0.6159
     10 C8          2.2468    0.1862    0.2323 C.ar      1 <0>         0.6236
     11 N3          2.3033    1.4877    0.4439 N.ar      1 <0>        -0.5898
     12 N4          3.4216   -0.4921   -0.0304 N.pl3     1 <0>        -0.8107
     13 N5         -1.2235   -0.6248    0.5340 N.pl3     1 <0>        -0.8458
     14 C9         -2.3610    4.3632    1.5202 C.3       1 <0>         0.1265
     15 O1         -1.9941    5.7553    1.7090 O.3       1 <0>        -0.3512
     16 C10        -2.9913    6.6190    1.9815 C.2       1 <0>         0.5148
     17 O2         -4.1360    6.2201    2.0593 O.2       1 <0>        -0.5023
     18 C11        -2.6927    8.0513    2.1858 C.ar      1 <0>        -0.1294
     19 C12        -1.3773    8.5122    2.1028 C.ar      1 <0>        -0.0612
     20 C13        -1.1062    9.8518    2.2895 C.ar      1 <0>        -0.1326
     21 C14        -2.1329   10.7363    2.5692 C.ar      1 <0>        -0.0815
     22 C15        -3.4380   10.2853    2.6585 C.ar      1 <0>        -0.1315
     23 C16        -3.7239    8.9493    2.4684 C.ar      1 <0>        -0.0542
     24 H1         -2.6884    1.0527    2.0572 H         1 <0>         0.0903
     25 H2         -3.3529    2.2251    0.8943 H         1 <0>         0.0826
     26 H3         -2.5918    0.7259    0.3101 H         1 <0>         0.1034
     27 H4          0.1810    5.2379    1.3448 H         1 <0>         0.1739
     28 H5          3.4041   -1.4488   -0.1893 H         1 <0>         0.4161
     29 H6          4.2638   -0.0115   -0.0559 H         1 <0>         0.4189
     30 H7         -1.3853   -1.3134   -0.1296 H         1 <0>         0.4109
     31 H8         -1.8884   -0.4431    1.2165 H         1 <0>         0.4185
     32 H9         -3.0563    4.2808    0.6848 H         1 <0>         0.0879
     33 H10        -2.8354    3.9863    2.4263 H         1 <0>         0.0876
     34 H11        -0.5745    7.8222    1.8890 H         1 <0>         0.1395
     35 H12        -0.0898   10.2105    2.2212 H         1 <0>         0.1339
     36 H13        -1.9147   11.7834    2.7182 H         1 <0>         0.1310
     37 H14        -4.2346   10.9810    2.8772 H         1 <0>         0.1342
     38 H15        -4.7430    8.5986    2.5384 H         1 <0>         0.1381
@<TRIPOS>BOND
     1    1    2 1
     2    1   24 1
     3    1   25 1
     4    1   26 1
     5    2    7 ar
     6    2    3 ar
     7    3    4 ar
     8    3   14 1
     9    4    5 ar
    10    4   27 1
    11    5    6 ar
    12    6   11 ar
    13    6    7 ar
    14    7    8 ar
    15    8    9 ar
    16    8   13 1
    17    9   10 ar
    18   10   11 ar
    19   10   12 1
    20   12   28 1
    21   12   29 1
    22   13   30 1
    23   13   31 1
    24   14   15 1
    25   14   32 1
    26   14   33 1
    27   15   16 1
    28   16   17 2
    29   16   18 1
    30   18   23 ar
    31   18   19 ar
    32   19   20 ar
    33   19   34 1
    34   20   21 ar
    35   20   35 1
    36   21   22 ar
    37   21   36 1
    38   22   23 ar
    39   22   37 1
    40   23   38 1
@<TRIPOS>MOLECULE
ZINC03814842
   39    41     0     0     0
SMALL
USER_CHARGES

@<TRIPOS>ATOM
      1 C1         -2.5562    1.5032    1.0734 C.3       1 <0>        -0.1698
      2 C2         -1.2225    2.2025    1.0163 C.ar      1 <0>         0.0652
      3 C3         -1.1246    3.5532    1.2264 C.ar      1 <0>        -0.1566
      4 C4          0.1175    4.1734    1.1737 C.ar      1 <0>         0.2385
      5 N1          1.2174    3.4996    0.9207 N.ar      1 <0>        -0.4972
      6 C5          1.1876    2.1847    0.7027 C.ar      1 <0>         0.4010
      7 C6         -0.0480    1.4926    0.7424 C.ar      1 <0>        -0.2288
      8 C7         -0.0494    0.0953    0.5073 C.ar      1 <0>         0.5813
      9 N2          1.1084   -0.5007    0.2606 N.ar      1 <0>        -0.5710
     10 C8          2.2468    0.1862    0.2323 C.ar      1 <0>         0.6935
     11 N3          3.4216   -0.4921   -0.0304 N.pl3     1 <0>        -0.7780
     12 N4         -1.2235   -0.6248    0.5340 N.pl3     1 <0>        -0.8022
     13 C9         -2.3610    4.3632    1.5202 C.3       1 <0>         0.1110
     14 O1         -1.9941    5.7553    1.7090 O.3       1 <0>        -0.3576
     15 C10        -2.9913    6.6190    1.9815 C.2       1 <0>         0.5199
     16 O2         -4.1360    6.2201    2.0593 O.2       1 <0>        -0.4937
     17 C11        -2.6927    8.0513    2.1858 C.ar      1 <0>        -0.1351
     18 C12        -1.3773    8.5122    2.1028 C.ar      1 <0>        -0.0635
     19 C13        -1.1062    9.8518    2.2895 C.ar      1 <0>        -0.1323
     20 C14        -2.1329   10.7363    2.5692 C.ar      1 <0>        -0.0754
     21 C15        -3.4380   10.2853    2.6585 C.ar      1 <0>        -0.1277
     22 C16        -3.7239    8.9493    2.4684 C.ar      1 <0>        -0.0509
     23 H1         -2.6884    1.0527    2.0572 H         1 <0>         0.1101
     24 H2         -3.3529    2.2251    0.8943 H         1 <0>         0.1038
     25 H3         -2.5918    0.7259    0.3101 H         1 <0>         0.1094
     26 H4          0.1810    5.2379    1.3448 H         1 <0>         0.1982
     27 H5          3.4041   -1.4488   -0.1893 H         1 <0>         0.4460
     28 H6          4.2638   -0.0115   -0.0559 H         1 <0>         0.4335
     29 H7         -1.3853   -1.3134   -0.1296 H         1 <0>         0.4314
     30 H8         -1.8884   -0.4431    1.2165 H         1 <0>         0.4366
     31 H9         -3.0563    4.2808    0.6848 H         1 <0>         0.1026
     32 H10        -2.8354    3.9863    2.4263 H         1 <0>         0.1026
     33 H11        -0.5745    7.8222    1.8890 H         1 <0>         0.1352
     34 H12        -0.0898   10.2105    2.2212 H         1 <0>         0.1349
     35 H13        -1.9147   11.7834    2.7182 H         1 <0>         0.1343
     36 H14        -4.2346   10.9810    2.8772 H         1 <0>         0.1378
     37 H15        -4.7430    8.5986    2.5384 H         1 <0>         0.1400
     38 N5          2.3671    1.5214    0.4415 N.ar      1 <0>        -0.5885
     39 H16         3.2673    1.9549    0.4001 H         1 <0>         0.4616
@<TRIPOS>BOND
     1    1    2 1
     2    1   23 1
     3    1   24 1
     4    1   25 1
     5    2    7 ar
     6    2    3 ar
     7    3    4 ar
     8    3   13 1
     9    4    5 ar
    10    4   26 1
    11    5    6 ar
    12    6    7 ar
    13    6   38 ar
    14    7    8 ar
    15    8    9 ar
    16    8   12 1
    17    9   10 ar
    18   10   11 1
    19   10   38 ar
    20   11   27 1
    21   11   28 1
    22   12   29 1
    23   12   30 1
    24   13   14 1
    25   13   31 1
    26   13   32 1
    27   14   15 1
    28   15   16 2
    29   15   17 1
    30   17   22 ar
    31   17   18 ar
    32   18   19 ar
    33   18   33 1
    34   19   20 ar
    35   19   34 1
    36   20   21 ar
    37   20   35 1
    38   21   22 ar
    39   21   36 1
    40   22   37 1
    41   38   39 1
@<TRIPOS>MOLECULE
ZINC03814844
   44    46     0     0     0
SMALL
USER_CHARGES

@<TRIPOS>ATOM
      1 C1         -4.0547   -0.0293    7.6846 C.3       1 <0>         0.0256
      2 O1         -3.5297    0.2964    6.3960 O.3       1 <0>        -0.3135
      3 C2         -4.2415   -0.1224    5.3156 C.ar      1 <0>         0.0778
      4 C3         -5.4223   -0.8325    5.4966 C.ar      1 <0>        -0.1281
      5 C4         -6.1518   -1.2624    4.4065 C.ar      1 <0>        -0.1831
      6 C5         -5.7138   -0.9822    3.1209 C.ar      1 <0>         0.1576
      7 C6         -4.5211   -0.2711    2.9309 C.ar      1 <0>        -0.1251
      8 C7         -3.7886    0.1599    4.0406 C.ar      1 <0>        -0.0560
      9 C8         -4.0448    0.0259    1.5679 C.2       1 <0>         0.5109
     10 O2         -4.6841   -0.3503    0.6055 O.2       1 <0>        -0.4831
     11 O3         -2.9004    0.7146    1.3893 O.3       1 <0>        -0.3498
     12 C9         -2.4922    0.9708    0.0196 C.3       1 <0>         0.1156
     13 C10        -1.2003    1.7467    0.0172 C.ar      1 <0>        -0.1357
     14 C11        -1.2352    3.1381    0.0297 C.ar      1 <0>        -0.0406
     15 C12        -0.0847    3.8695    0.0227 C.ar      1 <0>        -0.1284
     16 C13         1.1532    3.2124    0.0079 C.ar      1 <0>         0.2461
     17 C14         1.1863    1.7967    0.0004 C.ar      1 <0>        -0.2441
     18 C15        -0.0126    1.0758    0.0080 C.ar      1 <0>        -0.0211
     19 C16         2.4495    1.1542   -0.0142 C.ar      1 <0>         0.5169
     20 N1          3.5384    1.9090   -0.0201 N.ar      1 <0>        -0.6367
     21 C17         3.4619    3.2368   -0.0127 C.ar      1 <0>         0.6174
     22 N2          2.3131    3.8856    0.0009 N.ar      1 <0>        -0.6119
     23 N3          4.6358    3.9680   -0.0189 N.pl3     1 <0>        -0.8178
     24 N4          2.5428   -0.2210   -0.0216 N.pl3     1 <0>        -0.8182
     25 O4         -6.4350   -1.4001    2.0499 O.3       1 <0>        -0.2845
     26 C18        -7.6400   -2.1193    2.3199 C.3       1 <0>         0.0205
     27 H1         -5.0444    0.4136    7.7962 H         1 <0>         0.0561
     28 H2         -4.1279   -1.1123    7.7840 H         1 <0>         0.0558
     29 H3         -3.3922    0.3624    8.4564 H         1 <0>         0.1030
     30 H4         -5.7708   -1.0495    6.4955 H         1 <0>         0.1389
     31 H5         -7.0682   -1.8141    4.5552 H         1 <0>         0.1426
     32 H6         -2.8711    0.7125    3.9020 H         1 <0>         0.1540
     33 H7         -3.2644    1.5493   -0.4876 H         1 <0>         0.0829
     34 H8         -2.3480    0.0234   -0.4998 H         1 <0>         0.0800
     35 H9         -2.1882    3.6460    0.0408 H         1 <0>         0.1331
     36 H10        -0.1269    4.9487    0.0281 H         1 <0>         0.1406
     37 H11         0.0021   -0.0041    0.0020 H         1 <0>         0.1252
     38 H12         5.4916    3.5115   -0.0286 H         1 <0>         0.4133
     39 H13         4.6034    4.9375   -0.0137 H         1 <0>         0.4163
     40 H14         1.7376   -0.7618   -0.0169 H         1 <0>         0.4147
     41 H15         3.4137   -0.6480   -0.0316 H         1 <0>         0.4132
     42 H16        -8.1177   -2.3938    1.3794 H         1 <0>         0.1050
     43 H17        -7.4058   -3.0213    2.8853 H         1 <0>         0.0574
     44 H18        -8.3154   -1.4914    2.9009 H         1 <0>         0.0576
@<TRIPOS>BOND
     1    1    2 1
     2    1   27 1
     3    1   28 1
     4    1   29 1
     5    2    3 1
     6    3    8 ar
     7    3    4 ar
     8    4    5 ar
     9    4   30 1
    10    5    6 ar
    11    5   31 1
    12    6    7 ar
    13    6   25 1
    14    7    8 ar
    15    7    9 1
    16    8   32 1
    17    9   10 2
    18    9   11 1
    19   11   12 1
    20   12   13 1
    21   12   33 1
    22   12   34 1
    23   13   18 ar
    24   13   14 ar
    25   14   15 ar
    26   14   35 1
    27   15   16 ar
    28   15   36 1
    29   16   22 ar
    30   16   17 ar
    31   17   18 ar
    32   17   19 ar
    33   18   37 1
    34   19   20 ar
    35   19   24 1
    36   20   21 ar
    37   21   22 ar
    38   21   23 1
    39   23   38 1
    40   23   39 1
    41   24   40 1
    42   24   41 1
    43   25   26 1
    44   26   42 1
    45   26   43 1
    46   26   44 1
@<TRIPOS>MOLECULE
ZINC03814844
   45    47     0     0     0
SMALL
USER_CHARGES

@<TRIPOS>ATOM
      1 C1         -4.0547   -0.0293    7.6846 C.3       1 <0>         0.0242
      2 O1         -3.5297    0.2964    6.3960 O.3       1 <0>        -0.3153
      3 C2         -4.2415   -0.1224    5.3156 C.ar      1 <0>         0.0785
      4 C3         -5.4223   -0.8325    5.4966 C.ar      1 <0>        -0.1225
      5 C4         -6.1518   -1.2624    4.4065 C.ar      1 <0>        -0.1801
      6 C5         -5.7138   -0.9822    3.1209 C.ar      1 <0>         0.1618
      7 C6         -4.5211   -0.2711    2.9309 C.ar      1 <0>        -0.1317
      8 C7         -3.7886    0.1599    4.0406 C.ar      1 <0>        -0.0596
      9 C8         -4.0448    0.0259    1.5679 C.2       1 <0>         0.5156
     10 O2         -4.6841   -0.3503    0.6055 O.2       1 <0>        -0.4745
     11 O3         -2.9004    0.7146    1.3893 O.3       1 <0>        -0.3531
     12 C9         -2.4922    0.9708    0.0196 C.3       1 <0>         0.1006
     13 C10        -1.2003    1.7467    0.0172 C.ar      1 <0>        -0.0936
     14 C11        -1.2352    3.1381    0.0297 C.ar      1 <0>         0.0012
     15 C12        -0.0847    3.8695    0.0227 C.ar      1 <0>        -0.1480
     16 C13         1.1532    3.2124    0.0079 C.ar      1 <0>         0.2065
     17 C14         1.1863    1.7967    0.0004 C.ar      1 <0>        -0.1907
     18 C15        -0.0126    1.0758    0.0080 C.ar      1 <0>        -0.0108
     19 C16         2.4495    1.1542   -0.0142 C.ar      1 <0>         0.5668
     20 N1          3.5384    1.9090   -0.0201 N.ar      1 <0>        -0.5888
     21 C17         3.4619    3.2368   -0.0127 C.ar      1 <0>         0.6985
     22 N2          4.6358    3.9680   -0.0189 N.pl3     1 <0>        -0.7876
     23 N3          2.5428   -0.2210   -0.0216 N.pl3     1 <0>        -0.7635
     24 O4         -6.4350   -1.4001    2.0499 O.3       1 <0>        -0.2858
     25 C18        -7.6400   -2.1193    2.3199 C.3       1 <0>         0.0191
     26 H1         -5.0444    0.4136    7.7962 H         1 <0>         0.0581
     27 H2         -4.1279   -1.1123    7.7840 H         1 <0>         0.0578
     28 H3         -3.3922    0.3624    8.4564 H         1 <0>         0.1048
     29 H4         -5.7708   -1.0495    6.4955 H         1 <0>         0.1416
     30 H5         -7.0682   -1.8141    4.5552 H         1 <0>         0.1456
     31 H6         -2.8711    0.7125    3.9020 H         1 <0>         0.1503
     32 H7         -3.2644    1.5493   -0.4876 H         1 <0>         0.0943
     33 H8         -2.3480    0.0234   -0.4998 H         1 <0>         0.0916
     34 H9         -2.1882    3.6460    0.0408 H         1 <0>         0.1578
     35 H10        -0.1269    4.9487    0.0281 H         1 <0>         0.1608
     36 H11         0.0021   -0.0041    0.0020 H         1 <0>         0.1524
     37 H12         5.4916    3.5115   -0.0286 H         1 <0>         0.4428
     38 H13         4.6034    4.9375   -0.0137 H         1 <0>         0.4310
     39 H14         1.7376   -0.7618   -0.0169 H         1 <0>         0.4327
     40 H15         3.4137   -0.6480   -0.0316 H         1 <0>         0.4336
     41 H16        -8.1177   -2.3938    1.3794 H         1 <0>         0.1076
     42 H17        -7.4058   -3.0213    2.8853 H         1 <0>         0.0598
     43 H18        -8.3154   -1.4914    2.9009 H         1 <0>         0.0600
     44 N4          2.3130    3.9570    0.0013 N.ar      1 <0>        -0.6080
     45 H19         2.2659    4.9558    0.0067 H         1 <0>         0.4581
@<TRIPOS>BOND
     1    1    2 1
     2    1   26 1
     3    1   27 1
     4    1   28 1
     5    2    3 1
     6    3    8 ar
     7    3    4 ar
     8    4    5 ar
     9    4   29 1
    10    5    6 ar
    11    5   30 1
    12    6    7 ar
    13    6   24 1
    14    7    8 ar
    15    7    9 1
    16    8   31 1
    17    9   10 2
    18    9   11 1
    19   11   12 1
    20   12   13 1
    21   12   32 1
    22   12   33 1
    23   13   18 ar
    24   13   14 ar
    25   14   15 ar
    26   14   34 1
    27   15   16 ar
    28   15   35 1
    29   16   17 ar
    30   16   44 ar
    31   17   18 ar
    32   17   19 ar
    33   18   36 1
    34   19   20 ar
    35   19   23 1
    36   20   21 ar
    37   21   22 1
    38   21   44 ar
    39   22   37 1
    40   22   38 1
    41   23   39 1
    42   23   40 1
    43   24   25 1
    44   25   41 1
    45   25   42 1
    46   25   43 1
    47   44   45 1
@<TRIPOS>MOLECULE
ZINC03814845
   48    50     0     0     0
SMALL
USER_CHARGES

@<TRIPOS>ATOM
      1 C1         -5.0406   -0.6204    7.8374 C.3       1 <0>         0.0201
      2 O1         -5.8472   -1.0961    6.7579 O.3       1 <0>        -0.2975
      3 C2         -5.4142   -0.8264    5.4993 C.ar      1 <0>         0.1626
      4 C3         -4.2332   -0.1162    5.3102 C.ar      1 <0>        -0.2194
      5 C4         -3.7864    0.1612    4.0391 C.ar      1 <0>        -0.0088
      6 C5         -4.5206   -0.2708    2.9287 C.ar      1 <0>        -0.1812
      7 C6         -5.7145   -0.9825    3.1178 C.ar      1 <0>         0.1864
      8 C7         -6.1526   -1.2617    4.4049 C.ar      1 <0>         0.0278
      9 O2         -7.3077   -1.9559    4.5955 O.3       1 <0>        -0.3146
     10 C8         -8.5132   -1.1949    4.6940 C.3       1 <0>         0.0352
     11 O3         -6.4357   -1.4009    2.0465 O.3       1 <0>        -0.3147
     12 C9         -6.1296   -2.6952    1.5239 C.3       1 <0>         0.0518
     13 C10        -4.0451    0.0257    1.5680 C.2       1 <0>         0.5119
     14 O4         -4.6845   -0.3506    0.6053 O.2       1 <0>        -0.4880
     15 O5         -2.9004    0.7146    1.3893 O.3       1 <0>        -0.3509
     16 C11        -2.4922    0.9708    0.0196 C.3       1 <0>         0.1160
     17 C12        -1.2003    1.7467    0.0172 C.ar      1 <0>        -0.1364
     18 C13        -1.2352    3.1381    0.0297 C.ar      1 <0>        -0.0410
     19 C14        -0.0847    3.8695    0.0227 C.ar      1 <0>        -0.1282
     20 C15         1.1532    3.2124    0.0079 C.ar      1 <0>         0.2464
     21 C16         1.1863    1.7967    0.0004 C.ar      1 <0>        -0.2445
     22 C17        -0.0126    1.0758    0.0080 C.ar      1 <0>        -0.0212
     23 C18         2.4495    1.1542   -0.0142 C.ar      1 <0>         0.5168
     24 N1          3.5384    1.9090   -0.0201 N.ar      1 <0>        -0.6365
     25 C19         3.4619    3.2368   -0.0127 C.ar      1 <0>         0.6178
     26 N2          2.3131    3.8856    0.0009 N.ar      1 <0>        -0.6119
     27 N3          4.6358    3.9680   -0.0189 N.pl3     1 <0>        -0.8174
     28 N4          2.5428   -0.2210   -0.0216 N.pl3     1 <0>        -0.8182
     29 H1         -4.9619    0.4653    7.7810 H         1 <0>         0.0616
     30 H2         -5.4989   -0.9027    8.7852 H         1 <0>         0.1071
     31 H3         -4.0459   -1.0609    7.7692 H         1 <0>         0.0621
     32 H4         -3.6648    0.2191    6.1651 H         1 <0>         0.1466
     33 H5         -2.8688    0.7130    3.8980 H         1 <0>         0.1507
     34 H6         -8.6608   -0.6274    3.7752 H         1 <0>         0.0506
     35 H7         -9.3568   -1.8686    4.8445 H         1 <0>         0.0965
     36 H8         -8.4415   -0.5084    5.5376 H         1 <0>         0.0466
     37 H9         -5.0880   -2.7208    1.2038 H         1 <0>         0.0474
     38 H10        -6.2908   -3.4466    2.2970 H         1 <0>         0.0502
     39 H11        -6.7767   -2.9055    0.6723 H         1 <0>         0.0986
     40 H12        -3.2644    1.5493   -0.4876 H         1 <0>         0.0832
     41 H13        -2.3480    0.0234   -0.4998 H         1 <0>         0.0796
     42 H14        -2.1882    3.6460    0.0408 H         1 <0>         0.1330
     43 H15        -0.1269    4.9487    0.0281 H         1 <0>         0.1407
     44 H16         0.0021   -0.0041    0.0020 H         1 <0>         0.1249
     45 H17         5.4916    3.5115   -0.0286 H         1 <0>         0.4135
     46 H18         4.6034    4.9375   -0.0137 H         1 <0>         0.4165
     47 H19         1.7376   -0.7618   -0.0169 H         1 <0>         0.4145
     48 H20         3.4137   -0.6480   -0.0316 H         1 <0>         0.4135
@<TRIPOS>BOND
     1    1    2 1
     2    1   29 1
     3    1   30 1
     4    1   31 1
     5    2    3 1
     6    3    8 ar
     7    3    4 ar
     8    4    5 ar
     9    4   32 1
    10    5    6 ar
    11    5   33 1
    12    6    7 ar
    13    6   13 1
    14    7    8 ar
    15    7   11 1
    16    8    9 1
    17    9   10 1
    18   10   34 1
    19   10   35 1
    20   10   36 1
    21   11   12 1
    22   12   37 1
    23   12   38 1
    24   12   39 1
    25   13   14 2
    26   13   15 1
    27   15   16 1
    28   16   17 1
    29   16   40 1
    30   16   41 1
    31   17   22 ar
    32   17   18 ar
    33   18   19 ar
    34   18   42 1
    35   19   20 ar
    36   19   43 1
    37   20   26 ar
    38   20   21 ar
    39   21   22 ar
    40   21   23 ar
    41   22   44 1
    42   23   24 ar
    43   23   28 1
    44   24   25 ar
    45   25   26 ar
    46   25   27 1
    47   27   45 1
    48   27   46 1
    49   28   47 1
    50   28   48 1
@<TRIPOS>MOLECULE
ZINC03814845
   49    51     0     0     0
SMALL
USER_CHARGES

@<TRIPOS>ATOM
      1 C1         -5.0406   -0.6204    7.8374 C.3       1 <0>         0.0195
      2 O1         -5.8472   -1.0961    6.7579 O.3       1 <0>        -0.2944
      3 C2         -5.4142   -0.8264    5.4993 C.ar      1 <0>         0.1682
      4 C3         -4.2332   -0.1162    5.3102 C.ar      1 <0>        -0.2204
      5 C4         -3.7864    0.1612    4.0391 C.ar      1 <0>        -0.0106
      6 C5         -4.5206   -0.2708    2.9287 C.ar      1 <0>        -0.1880
      7 C6         -5.7145   -0.9825    3.1178 C.ar      1 <0>         0.1894
      8 C7         -6.1526   -1.2617    4.4049 C.ar      1 <0>         0.0308
      9 O2         -7.3077   -1.9559    4.5955 O.3       1 <0>        -0.3140
     10 C8         -8.5132   -1.1949    4.6940 C.3       1 <0>         0.0349
     11 O3         -6.4357   -1.4009    2.0465 O.3       1 <0>        -0.3150
     12 C9         -6.1296   -2.6952    1.5239 C.3       1 <0>         0.0513
     13 C10        -4.0451    0.0257    1.5680 C.2       1 <0>         0.5165
     14 O4         -4.6845   -0.3506    0.6053 O.2       1 <0>        -0.4795
     15 O5         -2.9004    0.7146    1.3893 O.3       1 <0>        -0.3543
     16 C11        -2.4922    0.9708    0.0196 C.3       1 <0>         0.1009
     17 C12        -1.2003    1.7467    0.0172 C.ar      1 <0>        -0.0941
     18 C13        -1.2352    3.1381    0.0297 C.ar      1 <0>         0.0009
     19 C14        -0.0847    3.8695    0.0227 C.ar      1 <0>        -0.1478
     20 C15         1.1532    3.2124    0.0079 C.ar      1 <0>         0.2069
     21 C16         1.1863    1.7967    0.0004 C.ar      1 <0>        -0.1909
     22 C17        -0.0126    1.0758    0.0080 C.ar      1 <0>        -0.0111
     23 C18         2.4495    1.1542   -0.0142 C.ar      1 <0>         0.5666
     24 N1          3.5384    1.9090   -0.0201 N.ar      1 <0>        -0.5885
     25 C19         3.4619    3.2368   -0.0127 C.ar      1 <0>         0.6986
     26 N2          4.6358    3.9680   -0.0189 N.pl3     1 <0>        -0.7871
     27 N3          2.5428   -0.2210   -0.0216 N.pl3     1 <0>        -0.7635
     28 H1         -4.9619    0.4653    7.7810 H         1 <0>         0.0621
     29 H2         -5.4989   -0.9027    8.7852 H         1 <0>         0.1100
     30 H3         -4.0459   -1.0609    7.7692 H         1 <0>         0.0626
     31 H4         -3.6648    0.2191    6.1651 H         1 <0>         0.1473
     32 H5         -2.8688    0.7130    3.8980 H         1 <0>         0.1469
     33 H6         -8.6608   -0.6274    3.7752 H         1 <0>         0.0512
     34 H7         -9.3568   -1.8686    4.8445 H         1 <0>         0.0995
     35 H8         -8.4415   -0.5084    5.5376 H         1 <0>         0.0479
     36 H9         -5.0880   -2.7208    1.2038 H         1 <0>         0.0459
     37 H10        -6.2908   -3.4466    2.2970 H         1 <0>         0.0527
     38 H11        -6.7767   -2.9055    0.6723 H         1 <0>         0.1008
     39 H12        -3.2644    1.5493   -0.4876 H         1 <0>         0.0947
     40 H13        -2.3480    0.0234   -0.4998 H         1 <0>         0.0913
     41 H14        -2.1882    3.6460    0.0408 H         1 <0>         0.1578
     42 H15        -0.1269    4.9487    0.0281 H         1 <0>         0.1610
     43 H16         0.0021   -0.0041    0.0020 H         1 <0>         0.1521
     44 H17         5.4916    3.5115   -0.0286 H         1 <0>         0.4430
     45 H18         4.6034    4.9375   -0.0137 H         1 <0>         0.4312
     46 H19         1.7376   -0.7618   -0.0169 H         1 <0>         0.4326
     47 H20         3.4137   -0.6480   -0.0316 H         1 <0>         0.4338
     48 N4          2.3130    3.9570    0.0013 N.ar      1 <0>        -0.6082
     49 H21         2.2659    4.9558    0.0067 H         1 <0>         0.4583
@<TRIPOS>BOND
     1    1    2 1
     2    1   28 1
     3    1   29 1
     4    1   30 1
     5    2    3 1
     6    3    8 ar
     7    3    4 ar
     8    4    5 ar
     9    4   31 1
    10    5    6 ar
    11    5   32 1
    12    6    7 ar
    13    6   13 1
    14    7    8 ar
    15    7   11 1
    16    8    9 1
    17    9   10 1
    18   10   33 1
    19   10   34 1
    20   10   35 1
    21   11   12 1
    22   12   36 1
    23   12   37 1
    24   12   38 1
    25   13   14 2
    26   13   15 1
    27   15   16 1
    28   16   17 1
    29   16   39 1
    30   16   40 1
    31   17   22 ar
    32   17   18 ar
    33   18   19 ar
    34   18   41 1
    35   19   20 ar
    36   19   42 1
    37   20   21 ar
    38   20   48 ar
    39   21   22 ar
    40   21   23 ar
    41   22   43 1
    42   23   24 ar
    43   23   27 1
    44   24   25 ar
    45   25   26 1
    46   25   48 ar
    47   26   44 1
    48   26   45 1
    49   27   46 1
    50   27   47 1
    51   48   49 1
@<TRIPOS>MOLECULE
ZINC03814846
   44    46     0     0     0
SMALL
USER_CHARGES

@<TRIPOS>ATOM
      1 C1         -1.1598    1.8644   -8.3788 C.3       1 <0>         0.0245
      2 O1         -0.4662    1.3893   -7.2233 O.3       1 <0>        -0.3083
      3 C2         -0.9737    1.7388   -6.0119 C.ar      1 <0>         0.1586
      4 C3         -0.3499    1.3116   -4.8515 C.ar      1 <0>        -0.1250
      5 C4         -0.8717    1.6715   -3.6081 C.ar      1 <0>        -0.0479
      6 C5         -2.0239    2.4561   -3.5401 C.ar      1 <0>        -0.1312
      7 C6         -2.6378    2.8836   -4.7057 C.ar      1 <0>         0.1565
      8 C7         -2.1156    2.5234   -5.9396 C.ar      1 <0>        -0.2656
      9 O2         -3.7565    3.6527   -4.6407 O.3       1 <0>        -0.3085
     10 C8         -4.3412    4.0534   -5.8815 C.3       1 <0>         0.0242
     11 C9         -0.2096    1.2183   -2.3674 C.2       1 <0>         0.5139
     12 O3          0.7903    0.5313   -2.4286 O.2       1 <0>        -0.4950
     13 O4         -0.7150    1.5668   -1.1683 O.3       1 <0>        -0.3438
     14 C10        -0.0127    1.0858    0.0080 C.3       1 <0>         0.1142
     15 C11        -0.7181    1.5718    1.2479 C.ar      1 <0>        -0.1374
     16 C12        -0.3499    2.7885    1.8148 C.ar      1 <0>        -0.0407
     17 C13        -0.9715    3.2589    2.9333 C.ar      1 <0>        -0.1280
     18 C14        -1.9898    2.5023    3.5292 C.ar      1 <0>         0.2467
     19 C15        -2.3590    1.2621    2.9539 C.ar      1 <0>        -0.2444
     20 C16        -1.7049    0.8106    1.8026 C.ar      1 <0>        -0.0202
     21 C17        -3.3915    0.5147    3.5736 C.ar      1 <0>         0.5171
     22 N1         -3.9614    1.0123    4.6613 N.ar      1 <0>        -0.6366
     23 C18        -3.5836    2.1822    5.1688 C.ar      1 <0>         0.6178
     24 N2         -2.6292    2.9184    4.6323 N.ar      1 <0>        -0.6119
     25 N3         -4.2183    2.6467    6.3065 N.pl3     1 <0>        -0.8176
     26 N4         -3.7928   -0.6988    3.0576 N.pl3     1 <0>        -0.8180
     27 H1         -0.6513    1.5145   -9.2772 H         1 <0>         0.1062
     28 H2         -2.1822    1.4868   -8.3696 H         1 <0>         0.0573
     29 H3         -1.1749    2.9543   -8.3710 H         1 <0>         0.0575
     30 H4          0.5393    0.7012   -4.9088 H         1 <0>         0.1496
     31 H5         -2.4339    2.7329   -2.5801 H         1 <0>         0.1500
     32 H6         -2.5993    2.8550   -6.8465 H         1 <0>         0.1418
     33 H7         -3.6182    4.6358   -6.4526 H         1 <0>         0.0574
     34 H8         -4.6265    3.1690   -6.4512 H         1 <0>         0.0571
     35 H9         -5.2250    4.6612   -5.6872 H         1 <0>         0.1058
     36 H10         0.0021   -0.0041    0.0020 H         1 <0>         0.0820
     37 H11         1.0099    1.4631    0.0003 H         1 <0>         0.0849
     38 H12         0.4372    3.3709    1.3592 H         1 <0>         0.1333
     39 H13        -0.6780    4.2066    3.3601 H         1 <0>         0.1409
     40 H14        -1.9790   -0.1339    1.3564 H         1 <0>         0.1255
     41 H15        -4.9229    2.1218    6.7174 H         1 <0>         0.4134
     42 H16        -3.9587    3.4974    6.6936 H         1 <0>         0.4164
     43 H17        -3.3673   -1.0515    2.2604 H         1 <0>         0.4147
     44 H18        -4.5007   -1.2001    3.4917 H         1 <0>         0.4134
@<TRIPOS>BOND
     1    1    2 1
     2    1   27 1
     3    1   28 1
     4    1   29 1
     5    2    3 1
     6    3    8 ar
     7    3    4 ar
     8    4    5 ar
     9    4   30 1
    10    5    6 ar
    11    5   11 1
    12    6    7 ar
    13    6   31 1
    14    7    8 ar
    15    7    9 1
    16    8   32 1
    17    9   10 1
    18   10   33 1
    19   10   34 1
    20   10   35 1
    21   11   12 2
    22   11   13 1
    23   13   14 1
    24   14   15 1
    25   14   36 1
    26   14   37 1
    27   15   20 ar
    28   15   16 ar
    29   16   17 ar
    30   16   38 1
    31   17   18 ar
    32   17   39 1
    33   18   24 ar
    34   18   19 ar
    35   19   20 ar
    36   19   21 ar
    37   20   40 1
    38   21   22 ar
    39   21   26 1
    40   22   23 ar
    41   23   24 ar
    42   23   25 1
    43   25   41 1
    44   25   42 1
    45   26   43 1
    46   26   44 1
@<TRIPOS>MOLECULE
ZINC03814846
   45    47     0     0     0
SMALL
USER_CHARGES

@<TRIPOS>ATOM
      1 C1         -1.1598    1.8644   -8.3788 C.3       1 <0>         0.0231
      2 O1         -0.4662    1.3893   -7.2233 O.3       1 <0>        -0.3064
      3 C2         -0.9737    1.7388   -6.0119 C.ar      1 <0>         0.1637
      4 C3         -0.3499    1.3116   -4.8515 C.ar      1 <0>        -0.1233
      5 C4         -0.8717    1.6715   -3.6081 C.ar      1 <0>        -0.0528
      6 C5         -2.0239    2.4561   -3.5401 C.ar      1 <0>        -0.1355
      7 C6         -2.6378    2.8836   -4.7057 C.ar      1 <0>         0.1580
      8 C7         -2.1156    2.5234   -5.9396 C.ar      1 <0>        -0.2627
      9 O2         -3.7565    3.6527   -4.6407 O.3       1 <0>        -0.3103
     10 C8         -4.3412    4.0534   -5.8815 C.3       1 <0>         0.0229
     11 C9         -0.2096    1.2183   -2.3674 C.2       1 <0>         0.5190
     12 O3          0.7903    0.5313   -2.4286 O.2       1 <0>        -0.4859
     13 O4         -0.7150    1.5668   -1.1683 O.3       1 <0>        -0.3472
     14 C10        -0.0127    1.0858    0.0080 C.3       1 <0>         0.0993
     15 C11        -0.7181    1.5718    1.2479 C.ar      1 <0>        -0.0951
     16 C12        -0.3499    2.7885    1.8148 C.ar      1 <0>         0.0013
     17 C13        -0.9715    3.2589    2.9333 C.ar      1 <0>        -0.1477
     18 C14        -1.9898    2.5023    3.5292 C.ar      1 <0>         0.2073
     19 C15        -2.3590    1.2621    2.9539 C.ar      1 <0>        -0.1909
     20 C16        -1.7049    0.8106    1.8026 C.ar      1 <0>        -0.0101
     21 C17        -3.3915    0.5147    3.5736 C.ar      1 <0>         0.5668
     22 N1         -3.9614    1.0123    4.6613 N.ar      1 <0>        -0.5886
     23 C18        -3.5836    2.1822    5.1688 C.ar      1 <0>         0.6986
     24 N2         -4.2183    2.6467    6.3065 N.pl3     1 <0>        -0.7873
     25 N3         -3.7928   -0.6988    3.0576 N.pl3     1 <0>        -0.7633
     26 H1         -0.6513    1.5145   -9.2772 H         1 <0>         0.1093
     27 H2         -2.1822    1.4868   -8.3696 H         1 <0>         0.0589
     28 H3         -1.1749    2.9543   -8.3710 H         1 <0>         0.0591
     29 H4          0.5393    0.7012   -4.9088 H         1 <0>         0.1510
     30 H5         -2.4339    2.7329   -2.5801 H         1 <0>         0.1462
     31 H6         -2.5993    2.8550   -6.8465 H         1 <0>         0.1443
     32 H7         -3.6182    4.6358   -6.4526 H         1 <0>         0.0594
     33 H8         -4.6265    3.1690   -6.4512 H         1 <0>         0.0591
     34 H9         -5.2250    4.6612   -5.6872 H         1 <0>         0.1075
     35 H10         0.0021   -0.0041    0.0020 H         1 <0>         0.0936
     36 H11         1.0099    1.4631    0.0003 H         1 <0>         0.0963
     37 H12         0.4372    3.3709    1.3592 H         1 <0>         0.1581
     38 H13        -0.6780    4.2066    3.3601 H         1 <0>         0.1611
     39 H14        -1.9790   -0.1339    1.3564 H         1 <0>         0.1527
     40 H15        -4.9229    2.1218    6.7174 H         1 <0>         0.4429
     41 H16        -3.9587    3.4974    6.6936 H         1 <0>         0.4311
     42 H17        -3.3673   -1.0515    2.2604 H         1 <0>         0.4327
     43 H18        -4.5007   -1.2001    3.4917 H         1 <0>         0.4338
     44 N4         -2.6117    2.9807    4.6624 N.ar      1 <0>        -0.6081
     45 H19        -2.3352    3.8595    5.0512 H         1 <0>         0.4582
@<TRIPOS>BOND
     1    1    2 1
     2    1   26 1
     3    1   27 1
     4    1   28 1
     5    2    3 1
     6    3    8 ar
     7    3    4 ar
     8    4    5 ar
     9    4   29 1
    10    5    6 ar
    11    5   11 1
    12    6    7 ar
    13    6   30 1
    14    7    8 ar
    15    7    9 1
    16    8   31 1
    17    9   10 1
    18   10   32 1
    19   10   33 1
    20   10   34 1
    21   11   12 2
    22   11   13 1
    23   13   14 1
    24   14   15 1
    25   14   35 1
    26   14   36 1
    27   15   20 ar
    28   15   16 ar
    29   16   17 ar
    30   16   37 1
    31   17   18 ar
    32   17   38 1
    33   18   19 ar
    34   18   44 ar
    35   19   20 ar
    36   19   21 ar
    37   20   39 1
    38   21   22 ar
    39   21   25 1
    40   22   23 ar
    41   23   24 1
    42   23   44 ar
    43   24   40 1
    44   24   41 1
    45   25   42 1
    46   25   43 1
    47   44   45 1
@<TRIPOS>MOLECULE
ZINC03814847
   38    40     0     0     0
SMALL
USER_CHARGES

@<TRIPOS>ATOM
      1 C1         -3.9001    5.1048    4.4334 C.3       1 <0>        -0.1424
      2 C2         -2.5595    4.5243    4.8880 C.3       1 <0>        -0.0841
      3 C3         -2.5578    3.0332    4.6697 C.ar      1 <0>         0.1869
      4 C4         -2.1394    2.5113    3.4334 C.ar      1 <0>         0.1010
      5 N1         -2.1271    1.2029    3.2282 N.ar      1 <0>        -0.3605
      6 C5         -2.5188    0.3854    4.1997 C.ar      1 <0>        -0.0950
      7 C6         -2.5269   -1.0695    4.0328 C.ar      1 <0>         0.5454
      8 N2         -2.9340   -1.8052    5.0576 N.ar      1 <0>        -0.6295
      9 C7         -3.3213   -1.2439    6.1988 C.ar      1 <0>         0.6394
     10 N3         -3.3334    0.0584    6.4013 N.ar      1 <0>        -0.6025
     11 C8         -2.9458    0.9111    5.4445 C.ar      1 <0>         0.3774
     12 N4         -2.9522    2.2340    5.6352 N.ar      1 <0>        -0.4427
     13 N5         -3.7336   -2.0698    7.2274 N.pl3     1 <0>        -0.8077
     14 N6         -2.1259   -1.6536    2.8509 N.pl3     1 <0>        -0.7922
     15 C9         -1.7037    3.4300    2.3556 C.ar      1 <0>        -0.0676
     16 C10        -0.6192    4.2821    2.5575 C.ar      1 <0>        -0.0615
     17 C11        -0.2209    5.1392    1.5525 C.ar      1 <0>        -0.1544
     18 C12        -0.8916    5.1536    0.3417 C.ar      1 <0>        -0.0675
     19 C13        -1.9651    4.3103    0.1288 C.ar      1 <0>        -0.2091
     20 C14        -2.3763    3.4435    1.1291 C.ar      1 <0>         0.1578
     21 O1         -3.4317    2.6144    0.9213 O.3       1 <0>        -0.3058
     22 C15        -4.0733    2.6880   -0.3534 C.3       1 <0>         0.0252
     23 H1         -3.9013    6.1833    4.5913 H         1 <0>         0.0698
     24 H2         -4.0476    4.8924    3.3745 H         1 <0>         0.0562
     25 H3         -4.7064    4.6522    5.0105 H         1 <0>         0.0600
     26 H4         -2.4119    4.7367    5.9469 H         1 <0>         0.0929
     27 H5         -1.7531    4.9769    4.3109 H         1 <0>         0.0951
     28 H6         -4.0218   -1.6871    8.0709 H         1 <0>         0.4194
     29 H7         -3.7349   -3.0321    7.1059 H         1 <0>         0.4167
     30 H8         -1.8316   -1.0993    2.1113 H         1 <0>         0.4258
     31 H9         -2.1379   -2.6191    2.7585 H         1 <0>         0.4155
     32 H10        -0.0939    4.2743    3.5011 H         1 <0>         0.1331
     33 H11         0.6171    5.8018    1.7112 H         1 <0>         0.1305
     34 H12        -0.5744    5.8276   -0.4404 H         1 <0>         0.1284
     35 H13        -2.4847    4.3269   -0.8178 H         1 <0>         0.1319
     36 H14        -4.8976    1.9756   -0.3869 H         1 <0>         0.0995
     37 H15        -3.3540    2.4484   -1.1366 H         1 <0>         0.0577
     38 H16        -4.4576    3.6960   -0.5091 H         1 <0>         0.0571
@<TRIPOS>BOND
     1    1    2 1
     2    1   23 1
     3    1   24 1
     4    1   25 1
     5    2    3 1
     6    2   26 1
     7    2   27 1
     8    3   12 ar
     9    3    4 ar
    10    4    5 ar
    11    4   15 1
    12    5    6 ar
    13    6   11 ar
    14    6    7 ar
    15    7    8 ar
    16    7   14 1
    17    8    9 ar
    18    9   10 ar
    19    9   13 1
    20   10   11 ar
    21   11   12 ar
    22   13   28 1
    23   13   29 1
    24   14   30 1
    25   14   31 1
    26   15   20 ar
    27   15   16 ar
    28   16   17 ar
    29   16   32 1
    30   17   18 ar
    31   17   33 1
    32   18   19 ar
    33   18   34 1
    34   19   20 ar
    35   19   35 1
    36   20   21 1
    37   21   22 1
    38   22   36 1
    39   22   37 1
    40   22   38 1
@<TRIPOS>MOLECULE
ZINC03814847
   39    41     0     0     0
SMALL
USER_CHARGES

@<TRIPOS>ATOM
      1 C1         -3.9001    5.1048    4.4334 C.3       1 <0>        -0.1462
      2 C2         -2.5595    4.5243    4.8880 C.3       1 <0>        -0.0928
      3 C3         -2.5578    3.0332    4.6697 C.ar      1 <0>         0.2115
      4 C4         -2.1394    2.5113    3.4334 C.ar      1 <0>         0.1633
      5 N1         -2.1271    1.2029    3.2282 N.ar      1 <0>        -0.3493
      6 C5         -2.5188    0.3854    4.1997 C.ar      1 <0>        -0.0195
      7 C6         -2.5269   -1.0695    4.0328 C.ar      1 <0>         0.5827
      8 N2         -2.9340   -1.8052    5.0576 N.ar      1 <0>        -0.5774
      9 C7         -3.3213   -1.2439    6.1988 C.ar      1 <0>         0.7032
     10 C8         -2.9458    0.9111    5.4445 C.ar      1 <0>         0.3443
     11 N3         -2.9522    2.2340    5.6352 N.ar      1 <0>        -0.4488
     12 N4         -3.7336   -2.0698    7.2274 N.pl3     1 <0>        -0.7783
     13 N5         -2.1259   -1.6536    2.8509 N.pl3     1 <0>        -0.7324
     14 C9         -1.7037    3.4300    2.3556 C.ar      1 <0>        -0.1060
     15 C10        -0.6192    4.2821    2.5575 C.ar      1 <0>        -0.0542
     16 C11        -0.2209    5.1392    1.5525 C.ar      1 <0>        -0.1495
     17 C12        -0.8916    5.1536    0.3417 C.ar      1 <0>        -0.0488
     18 C13        -1.9651    4.3103    0.1288 C.ar      1 <0>        -0.2056
     19 C14        -2.3763    3.4435    1.1291 C.ar      1 <0>         0.1687
     20 O1         -3.4317    2.6144    0.9213 O.3       1 <0>        -0.3139
     21 C15        -4.0733    2.6880   -0.3534 C.3       1 <0>         0.0227
     22 H1         -3.9013    6.1833    4.5913 H         1 <0>         0.0825
     23 H2         -4.0476    4.8924    3.3745 H         1 <0>         0.0617
     24 H3         -4.7064    4.6522    5.0105 H         1 <0>         0.0619
     25 H4         -2.4119    4.7367    5.9469 H         1 <0>         0.1044
     26 H5         -1.7531    4.9769    4.3109 H         1 <0>         0.1092
     27 H6         -4.0218   -1.6871    8.0709 H         1 <0>         0.4334
     28 H7         -3.7349   -3.0321    7.1059 H         1 <0>         0.4458
     29 H8         -1.8316   -1.0993    2.1113 H         1 <0>         0.4437
     30 H9         -2.1379   -2.6191    2.7585 H         1 <0>         0.4358
     31 H10        -0.0939    4.2743    3.5011 H         1 <0>         0.1363
     32 H11         0.6171    5.8018    1.7112 H         1 <0>         0.1384
     33 H12        -0.5744    5.8276   -0.4404 H         1 <0>         0.1368
     34 H13        -2.4847    4.3269   -0.8178 H         1 <0>         0.1393
     35 H14        -4.8976    1.9756   -0.3869 H         1 <0>         0.1039
     36 H15        -3.3540    2.4484   -1.1366 H         1 <0>         0.0631
     37 H16        -4.4576    3.6960   -0.5091 H         1 <0>         0.0627
     38 N6         -3.3565    0.0853    6.4685 N.ar      1 <0>        -0.5924
     39 H17        -3.6664    0.4058    7.3636 H         1 <0>         0.4598
@<TRIPOS>BOND
     1    1    2 1
     2    1   22 1
     3    1   23 1
     4    1   24 1
     5    2    3 1
     6    2   25 1
     7    2   26 1
     8    3   11 ar
     9    3    4 ar
    10    4    5 ar
    11    4   14 1
    12    5    6 ar
    13    6   10 ar
    14    6    7 ar
    15    7    8 ar
    16    7   13 1
    17    8    9 ar
    18    9   12 1
    19    9   38 ar
    20   10   11 ar
    21   10   38 ar
    22   12   27 1
    23   12   28 1
    24   13   29 1
    25   13   30 1
    26   14   19 ar
    27   14   15 ar
    28   15   16 ar
    29   15   31 1
    30   16   17 ar
    31   16   32 1
    32   17   18 ar
    33   17   33 1
    34   18   19 ar
    35   18   34 1
    36   19   20 1
    37   20   21 1
    38   21   35 1
    39   21   36 1
    40   21   37 1
    41   38   39 1
@<TRIPOS>MOLECULE
ZINC03814848
   44    48     0     0     0
SMALL
USER_CHARGES

@<TRIPOS>ATOM
      1 C1         -0.6766    1.9769   -3.5916 C.ar      1 <0>        -0.1528
      2 C2         -1.9757    2.4491   -3.5403 C.ar      1 <0>        -0.0872
      3 C3         -2.6470    2.4861   -2.3347 C.ar      1 <0>        -0.1587
      4 C4         -2.0177    2.0484   -1.1749 C.ar      1 <0>         0.1937
      5 C5         -0.7165    1.5721   -1.2267 C.ar      1 <0>        -0.1304
      6 C6         -0.0500    1.5407   -2.4405 C.ar      1 <0>        -0.0844
      7 C7         -0.0127    1.0858    0.0080 C.3       1 <0>        -0.0264
      8 C8         -0.6927    1.5588    1.2611 C.ar      1 <0>        -0.1307
      9 C9         -0.0010    1.5114    2.4621 C.ar      1 <0>        -0.0806
     10 C10        -0.6037    1.9356    3.6303 C.ar      1 <0>        -0.1524
     11 C11        -1.9026    2.4104    3.6102 C.ar      1 <0>        -0.0813
     12 C12        -2.5976    2.4627    2.4186 C.ar      1 <0>        -0.1750
     13 C13        -1.9921    2.0380    1.2415 C.ar      1 <0>         0.1898
     14 N1         -2.7025    2.0978    0.0410 N.pl3     1 <0>        -0.5528
     15 C14        -4.1630    2.2125    0.0570 C.3       1 <0>         0.1741
     16 C15        -4.7751    0.8355    0.0573 C.ar      1 <0>         0.0161
     17 C16        -5.1339    0.2396    1.2659 C.ar      1 <0>         0.1558
     18 N2         -5.6746   -0.9600    1.2912 N.ar      1 <0>        -0.4397
     19 C17        -5.8720   -1.6179    0.1461 C.ar      1 <0>         0.3779
     20 C18        -5.5005   -1.0099   -1.0790 C.ar      1 <0>        -0.0908
     21 N3         -4.9608    0.2047   -1.0828 N.ar      1 <0>        -0.3590
     22 C19        -5.7328   -1.7619   -2.3134 C.ar      1 <0>         0.5464
     23 N4         -6.2773   -2.9662   -2.2081 N.ar      1 <0>        -0.6283
     24 C20        -6.6012   -3.4758   -1.0239 C.ar      1 <0>         0.6422
     25 N5         -6.4136   -2.8419    0.1165 N.ar      1 <0>        -0.6026
     26 N6         -7.1649   -4.7369   -0.9864 N.pl3     1 <0>        -0.8055
     27 N7         -5.3980   -1.2360   -3.5419 N.pl3     1 <0>        -0.7898
     28 H1         -0.1507    1.9492   -4.5345 H         1 <0>         0.1217
     29 H2         -2.4639    2.7887   -4.4419 H         1 <0>         0.1246
     30 H3         -3.6612    2.8548   -2.2924 H         1 <0>         0.1266
     31 H4          0.9644    1.1731   -2.4873 H         1 <0>         0.1235
     32 H5          0.0021   -0.0041    0.0020 H         1 <0>         0.0794
     33 H6          1.0131    1.4544    0.0002 H         1 <0>         0.0829
     34 H7          1.0133    1.1410    2.4845 H         1 <0>         0.1248
     35 H8         -0.0592    1.8960    4.5621 H         1 <0>         0.1235
     36 H9         -2.3725    2.7394    4.5253 H         1 <0>         0.1274
     37 H10        -3.6118    2.8334    2.4008 H         1 <0>         0.1274
     38 H11        -4.4754    2.7492    0.9528 H         1 <0>         0.1077
     39 H12        -4.4943    2.7573   -0.8270 H         1 <0>         0.1060
     40 H13        -4.9702    0.7708    2.1919 H         1 <0>         0.1765
     41 H14        -7.4112   -5.1330   -0.1359 H         1 <0>         0.4202
     42 H15        -7.3142   -5.2261   -1.8106 H         1 <0>         0.4176
     43 H16        -5.0011   -0.3529   -3.5996 H         1 <0>         0.4259
     44 H17        -5.5593   -1.7489   -4.3493 H         1 <0>         0.4166
@<TRIPOS>BOND
     1    1    6 ar
     2    1    2 ar
     3    1   28 1
     4    2    3 ar
     5    2   29 1
     6    3    4 ar
     7    3   30 1
     8    4   14 1
     9    4    5 ar
    10    5    6 ar
    11    5    7 1
    12    6   31 1
    13    7    8 1
    14    7   32 1
    15    7   33 1
    16    8   13 ar
    17    8    9 ar
    18    9   10 ar
    19    9   34 1
    20   10   11 ar
    21   10   35 1
    22   11   12 ar
    23   11   36 1
    24   12   13 ar
    25   12   37 1
    26   13   14 1
    27   14   15 1
    28   15   16 1
    29   15   38 1
    30   15   39 1
    31   16   21 ar
    32   16   17 ar
    33   17   18 ar
    34   17   40 1
    35   18   19 ar
    36   19   25 ar
    37   19   20 ar
    38   20   21 ar
    39   20   22 ar
    40   22   23 ar
    41   22   27 1
    42   23   24 ar
    43   24   25 ar
    44   24   26 1
    45   26   41 1
    46   26   42 1
    47   27   43 1
    48   27   44 1
@<TRIPOS>MOLECULE
ZINC03814848
   45    49     0     0     0
SMALL
USER_CHARGES

@<TRIPOS>ATOM
      1 C1         -0.6766    1.9769   -3.5916 C.ar      1 <0>        -0.1451
      2 C2         -1.9757    2.4491   -3.5403 C.ar      1 <0>        -0.0870
      3 C3         -2.6470    2.4861   -2.3347 C.ar      1 <0>        -0.1628
      4 C4         -2.0177    2.0484   -1.1749 C.ar      1 <0>         0.1826
      5 C5         -0.7165    1.5721   -1.2267 C.ar      1 <0>        -0.1250
      6 C6         -0.0500    1.5407   -2.4405 C.ar      1 <0>        -0.0822
      7 C7         -0.0127    1.0858    0.0080 C.3       1 <0>        -0.0302
      8 C8         -0.6927    1.5588    1.2611 C.ar      1 <0>        -0.1256
      9 C9         -0.0010    1.5114    2.4621 C.ar      1 <0>        -0.0786
     10 C10        -0.6037    1.9356    3.6303 C.ar      1 <0>        -0.1441
     11 C11        -1.9026    2.4104    3.6102 C.ar      1 <0>        -0.0800
     12 C12        -2.5976    2.4627    2.4186 C.ar      1 <0>        -0.1780
     13 C13        -1.9921    2.0380    1.2415 C.ar      1 <0>         0.1782
     14 N1         -2.7025    2.0978    0.0410 N.pl3     1 <0>        -0.5550
     15 C14        -4.1630    2.2125    0.0570 C.3       1 <0>         0.1626
     16 C15        -4.7751    0.8355    0.0573 C.ar      1 <0>         0.0713
     17 C16        -5.1339    0.2396    1.2659 C.ar      1 <0>         0.1802
     18 N2         -5.6746   -0.9600    1.2912 N.ar      1 <0>        -0.4425
     19 C17        -5.8720   -1.6179    0.1461 C.ar      1 <0>         0.3402
     20 C18        -5.5005   -1.0099   -1.0790 C.ar      1 <0>        -0.0131
     21 N3         -4.9608    0.2047   -1.0828 N.ar      1 <0>        -0.3460
     22 C19        -5.7328   -1.7619   -2.3134 C.ar      1 <0>         0.5820
     23 N4         -6.2773   -2.9662   -2.2081 N.ar      1 <0>        -0.5746
     24 C20        -6.6012   -3.4758   -1.0239 C.ar      1 <0>         0.7116
     25 N5         -7.1649   -4.7369   -0.9864 N.pl3     1 <0>        -0.7748
     26 N6         -5.3980   -1.2360   -3.5419 N.pl3     1 <0>        -0.7290
     27 H1         -0.1507    1.9492   -4.5345 H         1 <0>         0.1261
     28 H2         -2.4639    2.7887   -4.4419 H         1 <0>         0.1279
     29 H3         -3.6612    2.8548   -2.2924 H         1 <0>         0.1262
     30 H4          0.9644    1.1731   -2.4873 H         1 <0>         0.1277
     31 H5          0.0021   -0.0041    0.0020 H         1 <0>         0.0812
     32 H6          1.0131    1.4544    0.0002 H         1 <0>         0.0877
     33 H7          1.0133    1.1410    2.4845 H         1 <0>         0.1289
     34 H8         -0.0592    1.8960    4.5621 H         1 <0>         0.1279
     35 H9         -2.3725    2.7394    4.5253 H         1 <0>         0.1307
     36 H10        -3.6118    2.8334    2.4008 H         1 <0>         0.1267
     37 H11        -4.4754    2.7492    0.9528 H         1 <0>         0.1210
     38 H12        -4.4943    2.7573   -0.8270 H         1 <0>         0.1192
     39 H13        -4.9702    0.7708    2.1919 H         1 <0>         0.2036
     40 H14        -7.4112   -5.1330   -0.1359 H         1 <0>         0.4345
     41 H15        -7.3142   -5.2261   -1.8106 H         1 <0>         0.4466
     42 H16        -5.0011   -0.3529   -3.5996 H         1 <0>         0.4440
     43 H17        -5.5593   -1.7489   -4.3493 H         1 <0>         0.4372
     44 N7         -6.4339   -2.8755    0.1813 N.ar      1 <0>        -0.5950
     45 H18        -6.6883   -3.2851    1.0574 H         1 <0>         0.4629
@<TRIPOS>BOND
     1    1    6 ar
     2    1    2 ar
     3    1   27 1
     4    2    3 ar
     5    2   28 1
     6    3    4 ar
     7    3   29 1
     8    4   14 1
     9    4    5 ar
    10    5    6 ar
    11    5    7 1
    12    6   30 1
    13    7    8 1
    14    7   31 1
    15    7   32 1
    16    8   13 ar
    17    8    9 ar
    18    9   10 ar
    19    9   33 1
    20   10   11 ar
    21   10   34 1
    22   11   12 ar
    23   11   35 1
    24   12   13 ar
    25   12   36 1
    26   13   14 1
    27   14   15 1
    28   15   16 1
    29   15   37 1
    30   15   38 1
    31   16   21 ar
    32   16   17 ar
    33   17   18 ar
    34   17   39 1
    35   18   19 ar
    36   19   20 ar
    37   19   44 ar
    38   20   21 ar
    39   20   22 ar
    40   22   23 ar
    41   22   26 1
    42   23   24 ar
    43   24   25 1
    44   24   44 ar
    45   25   40 1
    46   25   41 1
    47   26   42 1
    48   26   43 1
    49   44   45 1
@<TRIPOS>MOLECULE
ZINC03814849
   42    46     0     0     0
SMALL
USER_CHARGES

@<TRIPOS>ATOM
      1 C1          4.8349   -3.6823   -1.7118 C.ar      1 <0>        -0.0836
      2 C2          5.0859   -3.3780   -3.0363 C.ar      1 <0>        -0.1339
      3 C3          4.0830   -2.8422   -3.8274 C.ar      1 <0>        -0.0627
      4 C4          2.8321   -2.6140   -3.2863 C.ar      1 <0>        -0.1436
      5 C5          2.5726   -2.9200   -1.9480 C.ar      1 <0>         0.1965
      6 C6          3.5838   -3.4558   -1.1654 C.ar      1 <0>        -0.1398
      7 N1          1.3051   -2.6892   -1.4026 N.pl3     1 <0>        -0.5747
      8 C7          0.1343   -2.9100   -2.1360 C.ar      1 <0>         0.1871
      9 C8         -0.9923   -3.4269   -1.5219 C.ar      1 <0>        -0.1488
     10 C9         -2.1462   -3.6386   -2.2557 C.ar      1 <0>        -0.0808
     11 C10        -2.1850   -3.3336   -3.6030 C.ar      1 <0>        -0.1320
     12 C11        -1.0649   -2.8114   -4.2288 C.ar      1 <0>        -0.0603
     13 C12         0.0895   -2.5974   -3.5000 C.ar      1 <0>        -0.1439
     14 S1          1.5333   -1.9327   -4.2696 S.3       1 <0>        -0.0012
     15 C13         1.2007   -2.2085   -0.0227 C.3       1 <0>         0.1837
     16 C14         1.2095   -0.7016   -0.0137 C.ar      1 <0>         0.0161
     17 C15         0.0021   -0.0041    0.0020 C.ar      1 <0>         0.1562
     18 N2         -0.0158    1.3119    0.0093 N.ar      1 <0>        -0.4395
     19 C16         1.1366    1.9864    0.0019 C.ar      1 <0>         0.3786
     20 C17         2.3609    1.2725   -0.0136 C.ar      1 <0>        -0.0897
     21 N3          2.3567   -0.0566   -0.0212 N.ar      1 <0>        -0.3591
     22 C18         3.6035    2.0465   -0.0218 C.ar      1 <0>         0.5464
     23 N4          3.5059    3.3687   -0.0142 N.ar      1 <0>        -0.6284
     24 C19         2.3221    3.9732    0.0003 C.ar      1 <0>         0.6421
     25 N5          1.1745    3.3246    0.0082 N.ar      1 <0>        -0.6024
     26 N6          2.2930    5.3547    0.0080 N.pl3     1 <0>        -0.8057
     27 N7          4.8316    1.4225   -0.0368 N.pl3     1 <0>        -0.7902
     28 H1          5.6202   -4.1000   -1.0993 H         1 <0>         0.1299
     29 H2          6.0650   -3.5584   -3.4551 H         1 <0>         0.1302
     30 H3          4.2777   -2.6042   -4.8627 H         1 <0>         0.1318
     31 H4          3.3953   -3.6960   -0.1294 H         1 <0>         0.1297
     32 H5         -0.9697   -3.6681   -0.4694 H         1 <0>         0.1321
     33 H6         -3.0222   -4.0453   -1.7723 H         1 <0>         0.1321
     34 H7         -3.0894   -3.5028   -4.1686 H         1 <0>         0.1318
     35 H8         -1.0937   -2.5729   -5.2818 H         1 <0>         0.1331
     36 H9          2.0459   -2.5803    0.5565 H         1 <0>         0.1029
     37 H10         0.2714   -2.5690    0.4183 H         1 <0>         0.1048
     38 H11        -0.9296   -0.5503    0.0080 H         1 <0>         0.1756
     39 H12         1.4429    5.8218    0.0189 H         1 <0>         0.4202
     40 H13         3.1226    5.8573    0.0025 H         1 <0>         0.4175
     41 H14         4.8835    0.4539   -0.0422 H         1 <0>         0.4256
     42 H15         5.6445    1.9518   -0.0421 H         1 <0>         0.4164
@<TRIPOS>BOND
     1    1    6 ar
     2    1    2 ar
     3    1   28 1
     4    2    3 ar
     5    2   29 1
     6    3    4 ar
     7    3   30 1
     8    4   14 1
     9    4    5 ar
    10    5    6 ar
    11    5    7 1
    12    6   31 1
    13    7    8 1
    14    7   15 1
    15    8   13 ar
    16    8    9 ar
    17    9   10 ar
    18    9   32 1
    19   10   11 ar
    20   10   33 1
    21   11   12 ar
    22   11   34 1
    23   12   13 ar
    24   12   35 1
    25   13   14 1
    26   15   16 1
    27   15   36 1
    28   15   37 1
    29   16   21 ar
    30   16   17 ar
    31   17   18 ar
    32   17   38 1
    33   18   19 ar
    34   19   25 ar
    35   19   20 ar
    36   20   21 ar
    37   20   22 ar
    38   22   23 ar
    39   22   27 1
    40   23   24 ar
    41   24   25 ar
    42   24   26 1
    43   26   39 1
    44   26   40 1
    45   27   41 1
    46   27   42 1
@<TRIPOS>MOLECULE
ZINC03814849
   43    47     0     0     0
SMALL
USER_CHARGES

@<TRIPOS>ATOM
      1 C1          4.8349   -3.6823   -1.7118 C.ar      1 <0>        -0.0823
      2 C2          5.0859   -3.3780   -3.0363 C.ar      1 <0>        -0.1267
      3 C3          4.0830   -2.8422   -3.8274 C.ar      1 <0>        -0.0612
      4 C4          2.8321   -2.6140   -3.2863 C.ar      1 <0>        -0.1434
      5 C5          2.5726   -2.9200   -1.9480 C.ar      1 <0>         0.1837
      6 C6          3.5838   -3.4558   -1.1654 C.ar      1 <0>        -0.1396
      7 N1          1.3051   -2.6892   -1.4026 N.pl3     1 <0>        -0.5747
      8 C7          0.1343   -2.9100   -2.1360 C.ar      1 <0>         0.1742
      9 C8         -0.9923   -3.4269   -1.5219 C.ar      1 <0>        -0.1480
     10 C9         -2.1462   -3.6386   -2.2557 C.ar      1 <0>        -0.0787
     11 C10        -2.1850   -3.3336   -3.6030 C.ar      1 <0>        -0.1242
     12 C11        -1.0649   -2.8114   -4.2288 C.ar      1 <0>        -0.0584
     13 C12         0.0895   -2.5974   -3.5000 C.ar      1 <0>        -0.1437
     14 S1          1.5333   -1.9327   -4.2696 S.3       1 <0>         0.0004
     15 C13         1.2007   -2.2085   -0.0227 C.3       1 <0>         0.1721
     16 C14         1.2095   -0.7016   -0.0137 C.ar      1 <0>         0.0708
     17 C15         0.0021   -0.0041    0.0020 C.ar      1 <0>         0.1809
     18 N2         -0.0158    1.3119    0.0093 N.ar      1 <0>        -0.4424
     19 C16         1.1366    1.9864    0.0019 C.ar      1 <0>         0.3407
     20 C17         2.3609    1.2725   -0.0136 C.ar      1 <0>        -0.0125
     21 N3          2.3567   -0.0566   -0.0212 N.ar      1 <0>        -0.3460
     22 C18         3.6035    2.0465   -0.0218 C.ar      1 <0>         0.5824
     23 N4          3.5059    3.3687   -0.0142 N.ar      1 <0>        -0.5747
     24 C19         2.3221    3.9732    0.0003 C.ar      1 <0>         0.7117
     25 N5          2.2930    5.3547    0.0080 N.pl3     1 <0>        -0.7750
     26 N6          4.8316    1.4225   -0.0368 N.pl3     1 <0>        -0.7295
     27 H1          5.6202   -4.1000   -1.0993 H         1 <0>         0.1338
     28 H2          6.0650   -3.5584   -3.4551 H         1 <0>         0.1345
     29 H3          4.2777   -2.6042   -4.8627 H         1 <0>         0.1353
     30 H4          3.3953   -3.6960   -0.1294 H         1 <0>         0.1312
     31 H5         -0.9697   -3.6681   -0.4694 H         1 <0>         0.1334
     32 H6         -3.0222   -4.0453   -1.7723 H         1 <0>         0.1360
     33 H7         -3.0894   -3.5028   -4.1686 H         1 <0>         0.1361
     34 H8         -1.0937   -2.5729   -5.2818 H         1 <0>         0.1365
     35 H9          2.0459   -2.5803    0.5565 H         1 <0>         0.1163
     36 H10         0.2714   -2.5690    0.4183 H         1 <0>         0.1183
     37 H11        -0.9296   -0.5503    0.0080 H         1 <0>         0.2030
     38 H12         1.4429    5.8218    0.0189 H         1 <0>         0.4344
     39 H13         3.1226    5.8573    0.0025 H         1 <0>         0.4465
     40 H14         4.8835    0.4539   -0.0422 H         1 <0>         0.4436
     41 H15         5.6445    1.9518   -0.0421 H         1 <0>         0.4370
     42 N7          1.1097    3.3640    0.0090 N.ar      1 <0>        -0.5949
     43 H16         0.2341    3.8469    0.0199 H         1 <0>         0.4628
@<TRIPOS>BOND
     1    1    6 ar
     2    1    2 ar
     3    1   27 1
     4    2    3 ar
     5    2   28 1
     6    3    4 ar
     7    3   29 1
     8    4   14 1
     9    4    5 ar
    10    5    6 ar
    11    5    7 1
    12    6   30 1
    13    7    8 1
    14    7   15 1
    15    8   13 ar
    16    8    9 ar
    17    9   10 ar
    18    9   31 1
    19   10   11 ar
    20   10   32 1
    21   11   12 ar
    22   11   33 1
    23   12   13 ar
    24   12   34 1
    25   13   14 1
    26   15   16 1
    27   15   35 1
    28   15   36 1
    29   16   21 ar
    30   16   17 ar
    31   17   18 ar
    32   17   37 1
    33   18   19 ar
    34   19   20 ar
    35   19   42 ar
    36   20   21 ar
    37   20   22 ar
    38   22   23 ar
    39   22   26 1
    40   23   24 ar
    41   24   25 1
    42   24   42 ar
    43   25   38 1
    44   25   39 1
    45   26   40 1
    46   26   41 1
    47   42   43 1
@<TRIPOS>MOLECULE
ZINC03814850
   50    52     0     0     0
SMALL
USER_CHARGES

@<TRIPOS>ATOM
      1 C1         -0.2591   -3.1627   -0.7554 C.3       1 <0>         0.0906
      2 N1          1.0616   -2.8076   -0.2303 N.pl3     1 <0>        -0.6159
      3 C2          1.1747   -2.0734    1.0324 C.3       1 <0>         0.1626
      4 C3          1.1654   -0.5922    0.7548 C.ar      1 <0>        -0.1334
      5 C4          2.3664    0.1099    0.7349 C.ar      1 <0>        -0.0435
      6 C5          2.3929    1.4505    0.4869 C.ar      1 <0>        -0.1172
      7 C6          1.1934    2.1345    0.2479 C.ar      1 <0>         0.2458
      8 C7         -0.0287    1.4192    0.2689 C.ar      1 <0>        -0.2282
      9 C8         -0.0217    0.0431    0.5266 C.ar      1 <0>         0.0475
     10 Cl1        -1.5109   -0.8487    0.5565 Cl        1 <0>        -0.0483
     11 C9         -1.2281    2.1306    0.0193 C.ar      1 <0>         0.5174
     12 N2         -1.1498    3.4331   -0.2118 N.ar      1 <0>        -0.6119
     13 C10         0.0196    4.0665   -0.2224 C.ar      1 <0>         0.6092
     14 N3          1.1662    3.4522   -0.0014 N.ar      1 <0>        -0.5966
     15 N4          0.0344    5.4262   -0.4752 N.pl3     1 <0>        -0.8151
     16 N5         -2.4461    1.4853    0.0220 N.pl3     1 <0>        -0.8463
     17 C11         2.2150   -3.1697   -0.9346 C.ar      1 <0>         0.2883
     18 C12         3.4662   -2.8280   -0.4395 C.ar      1 <0>        -0.3091
     19 C13         4.6096   -3.1906   -1.1344 C.ar      1 <0>         0.1943
     20 C14         4.5028   -3.8874   -2.3319 C.ar      1 <0>        -0.0273
     21 C15         3.2498   -4.2245   -2.8296 C.ar      1 <0>         0.1938
     22 C16         2.1075   -3.8654   -2.1311 C.ar      1 <0>        -0.3073
     23 O1          3.1443   -4.9060   -4.0016 O.3       1 <0>        -0.3006
     24 C17         1.8253   -5.2188   -4.4537 C.3       1 <0>         0.0258
     25 O2          5.6255   -4.2402   -3.0173 O.3       1 <0>        -0.3094
     26 C18         6.1172   -3.3070   -3.9813 C.3       1 <0>         0.0335
     27 O3          5.8353   -2.8603   -0.6466 O.3       1 <0>        -0.2995
     28 C19         5.8702   -2.1441    0.5894 C.3       1 <0>         0.0239
     29 H1         -0.6214   -2.3615   -1.3996 H         1 <0>         0.0518
     30 H2         -0.1853   -4.0859   -1.3303 H         1 <0>         0.0679
     31 H3         -0.9532   -3.3049    0.0729 H         1 <0>         0.0700
     32 H4          2.1069   -2.3444    1.5281 H         1 <0>         0.0912
     33 H5          0.3332   -2.3275    1.6771 H         1 <0>         0.0923
     34 H6          3.2922   -0.4152    0.9184 H         1 <0>         0.1359
     35 H7          3.3330    1.9820    0.4743 H         1 <0>         0.1455
     36 H8          0.8761    5.9081   -0.4874 H         1 <0>         0.4173
     37 H9         -0.7969    5.8979   -0.6404 H         1 <0>         0.4150
     38 H10        -2.6457    0.8291    0.7079 H         1 <0>         0.4124
     39 H11        -3.1036    1.6875   -0.6619 H         1 <0>         0.4073
     40 H12         3.5489   -2.2828    0.4891 H         1 <0>         0.1340
     41 H13         1.1337   -4.1273   -2.5178 H         1 <0>         0.1351
     42 H14         1.3231   -5.8367   -3.7094 H         1 <0>         0.0571
     43 H15         1.2629   -4.2965   -4.5996 H         1 <0>         0.0557
     44 H16         1.8838   -5.7617   -5.3971 H         1 <0>         0.1021
     45 H17         5.3541   -3.1318   -4.7396 H         1 <0>         0.0406
     46 H18         6.3598   -2.3668   -3.4860 H         1 <0>         0.0412
     47 H19         7.0129   -3.7105   -4.4536 H         1 <0>         0.0887
     48 H20         6.9059   -1.9443    0.8644 H         1 <0>         0.1032
     49 H21         5.3355   -1.2008    0.4780 H         1 <0>         0.0550
     50 H22         5.3960   -2.7407    1.3686 H         1 <0>         0.0577
@<TRIPOS>BOND
     1    1    2 1
     2    1   29 1
     3    1   30 1
     4    1   31 1
     5    2    3 1
     6    2   17 1
     7    3    4 1
     8    3   32 1
     9    3   33 1
    10    4    9 ar
    11    4    5 ar
    12    5    6 ar
    13    5   34 1
    14    6    7 ar
    15    6   35 1
    16    7   14 ar
    17    7    8 ar
    18    8    9 ar
    19    8   11 ar
    20    9   10 1
    21   11   12 ar
    22   11   16 1
    23   12   13 ar
    24   13   14 ar
    25   13   15 1
    26   15   36 1
    27   15   37 1
    28   16   38 1
    29   16   39 1
    30   17   22 ar
    31   17   18 ar
    32   18   19 ar
    33   18   40 1
    34   19   20 ar
    35   19   27 1
    36   20   21 ar
    37   20   25 1
    38   21   22 ar
    39   21   23 1
    40   22   41 1
    41   23   24 1
    42   24   42 1
    43   24   43 1
    44   24   44 1
    45   25   26 1
    46   26   45 1
    47   26   46 1
    48   26   47 1
    49   27   28 1
    50   28   48 1
    51   28   49 1
    52   28   50 1
@<TRIPOS>MOLECULE
ZINC03814850
   51    53     0     0     0
SMALL
USER_CHARGES

@<TRIPOS>ATOM
      1 C1         -0.2591   -3.1627   -0.7554 C.3       1 <0>         0.0868
      2 N1          1.0616   -2.8076   -0.2303 N.pl3     1 <0>        -0.6196
      3 C2          1.1747   -2.0734    1.0324 C.3       1 <0>         0.1522
      4 C3          1.1654   -0.5922    0.7548 C.ar      1 <0>        -0.0983
      5 C4          2.3664    0.1099    0.7349 C.ar      1 <0>         0.0013
      6 C5          2.3929    1.4505    0.4869 C.ar      1 <0>        -0.1413
      7 C6          1.1934    2.1345    0.2479 C.ar      1 <0>         0.2112
      8 C7         -0.0287    1.4192    0.2689 C.ar      1 <0>        -0.1797
      9 C8         -0.0217    0.0431    0.5266 C.ar      1 <0>         0.0502
     10 Cl1        -1.5109   -0.8487    0.5565 Cl        1 <0>        -0.0017
     11 C9         -1.2281    2.1306    0.0193 C.ar      1 <0>         0.5758
     12 N2         -1.1498    3.4331   -0.2118 N.ar      1 <0>        -0.5674
     13 C10         0.0196    4.0665   -0.2224 C.ar      1 <0>         0.6914
     14 N3          0.0344    5.4262   -0.4752 N.pl3     1 <0>        -0.7819
     15 N4         -2.4461    1.4853    0.0220 N.pl3     1 <0>        -0.8019
     16 C11         2.2150   -3.1697   -0.9346 C.ar      1 <0>         0.2790
     17 C12         3.4662   -2.8280   -0.4395 C.ar      1 <0>        -0.3134
     18 C13         4.6096   -3.1906   -1.1344 C.ar      1 <0>         0.1939
     19 C14         4.5028   -3.8874   -2.3319 C.ar      1 <0>        -0.0182
     20 C15         3.2498   -4.2245   -2.8296 C.ar      1 <0>         0.1969
     21 C16         2.1075   -3.8654   -2.1311 C.ar      1 <0>        -0.3024
     22 O1          3.1443   -4.9060   -4.0016 O.3       1 <0>        -0.2971
     23 C17         1.8253   -5.2188   -4.4537 C.3       1 <0>         0.0246
     24 O2          5.6255   -4.2402   -3.0173 O.3       1 <0>        -0.3081
     25 C18         6.1172   -3.3070   -3.9813 C.3       1 <0>         0.0342
     26 O3          5.8353   -2.8603   -0.6466 O.3       1 <0>        -0.2961
     27 C19         5.8702   -2.1441    0.5894 C.3       1 <0>         0.0249
     28 H1         -0.6214   -2.3615   -1.3996 H         1 <0>         0.0506
     29 H2         -0.1853   -4.0859   -1.3303 H         1 <0>         0.0757
     30 H3         -0.9532   -3.3049    0.0729 H         1 <0>         0.0721
     31 H4          2.1069   -2.3444    1.5281 H         1 <0>         0.1031
     32 H5          0.3332   -2.3275    1.6771 H         1 <0>         0.1034
     33 H6          3.2922   -0.4152    0.9184 H         1 <0>         0.1595
     34 H7          3.3330    1.9820    0.4743 H         1 <0>         0.1660
     35 H8          0.8761    5.9081   -0.4874 H         1 <0>         0.4322
     36 H9         -0.7969    5.8979   -0.6404 H         1 <0>         0.4447
     37 H10        -2.6457    0.8291    0.7079 H         1 <0>         0.4287
     38 H11        -3.1036    1.6875   -0.6619 H         1 <0>         0.4289
     39 H12         3.5489   -2.2828    0.4891 H         1 <0>         0.1302
     40 H13         1.1337   -4.1273   -2.5178 H         1 <0>         0.1375
     41 H14         1.3231   -5.8367   -3.7094 H         1 <0>         0.0592
     42 H15         1.2629   -4.2965   -4.5996 H         1 <0>         0.0557
     43 H16         1.8838   -5.7617   -5.3971 H         1 <0>         0.1062
     44 H17         5.3541   -3.1318   -4.7396 H         1 <0>         0.0419
     45 H18         6.3598   -2.3668   -3.4860 H         1 <0>         0.0407
     46 H19         7.0129   -3.7105   -4.4536 H         1 <0>         0.0928
     47 H20         6.9059   -1.9443    0.8644 H         1 <0>         0.1064
     48 H21         5.3355   -1.2008    0.4780 H         1 <0>         0.0487
     49 H22         5.3960   -2.7407    1.3686 H         1 <0>         0.0595
     50 N5          1.2270    3.4895   -0.0028 N.ar      1 <0>        -0.5998
     51 H23         2.1013    3.9746   -0.0128 H         1 <0>         0.4609
@<TRIPOS>BOND
     1    1    2 1
     2    1   28 1
     3    1   29 1
     4    1   30 1
     5    2    3 1
     6    2   16 1
     7    3    4 1
     8    3   31 1
     9    3   32 1
    10    4    9 ar
    11    4    5 ar
    12    5    6 ar
    13    5   33 1
    14    6    7 ar
    15    6   34 1
    16    7    8 ar
    17    7   50 ar
    18    8    9 ar
    19    8   11 ar
    20    9   10 1
    21   11   12 ar
    22   11   15 1
    23   12   13 ar
    24   13   14 1
    25   13   50 ar
    26   14   35 1
    27   14   36 1
    28   15   37 1
    29   15   38 1
    30   16   21 ar
    31   16   17 ar
    32   17   18 ar
    33   17   39 1
    34   18   19 ar
    35   18   26 1
    36   19   20 ar
    37   19   24 1
    38   20   21 ar
    39   20   22 1
    40   21   40 1
    41   22   23 1
    42   23   41 1
    43   23   42 1
    44   23   43 1
    45   24   25 1
    46   25   44 1
    47   25   45 1
    48   25   46 1
    49   26   27 1
    50   27   47 1
    51   27   48 1
    52   27   49 1
    53   50   51 1
@<TRIPOS>MOLECULE
ZINC03814851
   43    45     0     0     0
SMALL
USER_CHARGES

@<TRIPOS>ATOM
      1 C1          5.3045    3.4999    0.8013 C.3       1 <0>         0.0269
      2 O1          3.9865    4.0512    0.7688 O.3       1 <0>        -0.3161
      3 C2          2.9568    3.1796    0.5980 C.ar      1 <0>         0.0908
      4 C3          3.2117    1.8226    0.4646 C.ar      1 <0>        -0.1581
      5 C4          2.1659    0.9373    0.2911 C.ar      1 <0>        -0.1707
      6 C5          0.8606    1.4052    0.2502 C.ar      1 <0>         0.1115
      7 C6          0.6059    2.7619    0.3831 C.ar      1 <0>        -0.1044
      8 C7          1.6520    3.6474    0.5566 C.ar      1 <0>        -0.0924
      9 C8         -0.8116    3.2710    0.3320 C.3       1 <0>         0.1757
     10 N1         -1.4533    3.0604    1.6320 N.pl3     1 <0>        -0.7325
     11 C9         -2.7816    3.4557    1.8291 C.ar      1 <0>         0.2085
     12 C10        -3.4878    4.0557    0.7837 C.ar      1 <0>        -0.1139
     13 C11        -4.7836    4.4451    0.9458 C.ar      1 <0>        -0.0717
     14 C12        -5.4202    4.2549    2.1794 C.ar      1 <0>         0.1933
     15 C13        -4.7093    3.6527    3.2459 C.ar      1 <0>        -0.1726
     16 C14        -3.3807    3.2544    3.0573 C.ar      1 <0>        -0.0774
     17 Cl1        -2.4949    2.5142    4.3539 Cl        1 <0>        -0.0576
     18 C15        -5.3775    3.4721    4.4821 C.ar      1 <0>         0.5013
     19 N2         -6.6356    3.8751    4.5817 N.ar      1 <0>        -0.6058
     20 C16        -7.2671    4.4366    3.5545 C.ar      1 <0>         0.5900
     21 N3         -6.6936    4.6286    2.3825 N.ar      1 <0>        -0.5869
     22 N4         -8.5813    4.8367    3.7227 N.pl3     1 <0>        -0.8231
     23 N5         -4.7343    2.8913    5.5550 N.pl3     1 <0>        -0.8487
     24 O2         -0.1691    0.5336    0.0794 O.3       1 <0>        -0.3082
     25 C17         0.1664   -0.8494   -0.0506 C.3       1 <0>         0.0264
     26 H1          5.3814    2.7906    1.6253 H         1 <0>         0.0550
     27 H2          5.5074    2.9877   -0.1392 H         1 <0>         0.0553
     28 H3          6.0300    4.3010    0.9425 H         1 <0>         0.1019
     29 H4          4.2279    1.4583    0.4961 H         1 <0>         0.1329
     30 H5          2.3643   -0.1192    0.1870 H         1 <0>         0.1338
     31 H6          1.4536    4.7040    0.6597 H         1 <0>         0.1413
     32 H7         -0.8072    4.3353    0.0971 H         1 <0>         0.0732
     33 H8         -1.3639    2.7314   -0.4374 H         1 <0>         0.0778
     34 H9         -0.9577    2.6470    2.3562 H         1 <0>         0.4038
     35 H10        -3.0012    4.2089   -0.1682 H         1 <0>         0.1415
     36 H11        -5.3173    4.9034    0.1264 H         1 <0>         0.1454
     37 H12        -9.0609    5.2486    2.9871 H         1 <0>         0.4144
     38 H13        -9.0228    4.7051    4.5764 H         1 <0>         0.4121
     39 H14        -3.8193    3.1371    5.7629 H         1 <0>         0.4114
     40 H15        -5.1969    2.2369    6.1015 H         1 <0>         0.4039
     41 H16         0.6866   -1.1830    0.8473 H         1 <0>         0.0549
     42 H17        -0.7446   -1.4335   -0.1809 H         1 <0>         0.1016
     43 H18         0.8130   -0.9865   -0.9173 H         1 <0>         0.0554
@<TRIPOS>BOND
     1    1    2 1
     2    1   26 1
     3    1   27 1
     4    1   28 1
     5    2    3 1
     6    3    8 ar
     7    3    4 ar
     8    4    5 ar
     9    4   29 1
    10    5    6 ar
    11    5   30 1
    12    6    7 ar
    13    6   24 1
    14    7    8 ar
    15    7    9 1
    16    8   31 1
    17    9   10 1
    18    9   32 1
    19    9   33 1
    20   10   11 1
    21   10   34 1
    22   11   16 ar
    23   11   12 ar
    24   12   13 ar
    25   12   35 1
    26   13   14 ar
    27   13   36 1
    28   14   21 ar
    29   14   15 ar
    30   15   16 ar
    31   15   18 ar
    32   16   17 1
    33   18   19 ar
    34   18   23 1
    35   19   20 ar
    36   20   21 ar
    37   20   22 1
    38   22   37 1
    39   22   38 1
    40   23   39 1
    41   23   40 1
    42   24   25 1
    43   25   41 1
    44   25   42 1
    45   25   43 1
@<TRIPOS>MOLECULE
ZINC03814851
   44    46     0     0     0
SMALL
USER_CHARGES

@<TRIPOS>ATOM
      1 C1          5.3045    3.4999    0.8013 C.3       1 <0>         0.0251
      2 O1          3.9865    4.0512    0.7688 O.3       1 <0>        -0.3149
      3 C2          2.9568    3.1796    0.5980 C.ar      1 <0>         0.0952
      4 C3          3.2117    1.8226    0.4646 C.ar      1 <0>        -0.1512
      5 C4          2.1659    0.9373    0.2911 C.ar      1 <0>        -0.1672
      6 C5          0.8606    1.4052    0.2502 C.ar      1 <0>         0.1113
      7 C6          0.6059    2.7619    0.3831 C.ar      1 <0>        -0.1174
      8 C7          1.6520    3.6474    0.5566 C.ar      1 <0>        -0.0925
      9 C8         -0.8116    3.2710    0.3320 C.3       1 <0>         0.1680
     10 N1         -1.4533    3.0604    1.6320 N.pl3     1 <0>        -0.7107
     11 C9         -2.7816    3.4557    1.8291 C.ar      1 <0>         0.2413
     12 C10        -3.4878    4.0557    0.7837 C.ar      1 <0>        -0.0850
     13 C11        -4.7836    4.4451    0.9458 C.ar      1 <0>        -0.0900
     14 C12        -5.4202    4.2549    2.1794 C.ar      1 <0>         0.1397
     15 C13        -4.7093    3.6527    3.2459 C.ar      1 <0>        -0.1188
     16 C14        -3.3807    3.2544    3.0573 C.ar      1 <0>        -0.0743
     17 Cl1        -2.4949    2.5142    4.3539 Cl        1 <0>        -0.0146
     18 C15        -5.3775    3.4721    4.4821 C.ar      1 <0>         0.5678
     19 N2         -6.6356    3.8751    4.5817 N.ar      1 <0>        -0.5665
     20 C16        -7.2671    4.4366    3.5545 C.ar      1 <0>         0.6822
     21 N3         -8.5813    4.8367    3.7227 N.pl3     1 <0>        -0.7906
     22 N4         -4.7343    2.8913    5.5550 N.pl3     1 <0>        -0.8043
     23 O2         -0.1691    0.5336    0.0794 O.3       1 <0>        -0.3140
     24 C17         0.1664   -0.8494   -0.0506 C.3       1 <0>         0.0250
     25 H1          5.3814    2.7906    1.6253 H         1 <0>         0.0569
     26 H2          5.5074    2.9877   -0.1392 H         1 <0>         0.0577
     27 H3          6.0300    4.3010    0.9425 H         1 <0>         0.1053
     28 H4          4.2279    1.4583    0.4961 H         1 <0>         0.1368
     29 H5          2.3643   -0.1192    0.1870 H         1 <0>         0.1368
     30 H6          1.4536    4.7040    0.6597 H         1 <0>         0.1419
     31 H7         -0.8072    4.3353    0.0971 H         1 <0>         0.0835
     32 H8         -1.3639    2.7314   -0.4374 H         1 <0>         0.0877
     33 H9         -0.9577    2.6470    2.3562 H         1 <0>         0.4127
     34 H10        -3.0012    4.2089   -0.1682 H         1 <0>         0.1624
     35 H11        -5.3173    4.9034    0.1264 H         1 <0>         0.1627
     36 H12        -9.0609    5.2486    2.9871 H         1 <0>         0.4297
     37 H13        -9.0228    4.7051    4.5764 H         1 <0>         0.4419
     38 H14        -3.8193    3.1371    5.7629 H         1 <0>         0.4281
     39 H15        -5.1969    2.2369    6.1015 H         1 <0>         0.4259
     40 H16         0.6866   -1.1830    0.8473 H         1 <0>         0.0571
     41 H17        -0.7446   -1.4335   -0.1809 H         1 <0>         0.1030
     42 H18         0.8130   -0.9865   -0.9173 H         1 <0>         0.0588
     43 N5         -6.7308    4.6591    2.3297 N.ar      1 <0>        -0.5900
     44 H19        -7.2145    5.0823    1.5635 H         1 <0>         0.4575
@<TRIPOS>BOND
     1    1    2 1
     2    1   25 1
     3    1   26 1
     4    1   27 1
     5    2    3 1
     6    3    8 ar
     7    3    4 ar
     8    4    5 ar
     9    4   28 1
    10    5    6 ar
    11    5   29 1
    12    6    7 ar
    13    6   23 1
    14    7    8 ar
    15    7    9 1
    16    8   30 1
    17    9   10 1
    18    9   31 1
    19    9   32 1
    20   10   11 1
    21   10   33 1
    22   11   16 ar
    23   11   12 ar
    24   12   13 ar
    25   12   34 1
    26   13   14 ar
    27   13   35 1
    28   14   15 ar
    29   14   43 ar
    30   15   16 ar
    31   15   18 ar
    32   16   17 1
    33   18   19 ar
    34   18   22 1
    35   19   20 ar
    36   20   21 1
    37   20   43 ar
    38   21   36 1
    39   21   37 1
    40   22   38 1
    41   22   39 1
    42   23   24 1
    43   24   40 1
    44   24   41 1
    45   24   42 1
    46   43   44 1
@<TRIPOS>MOLECULE
ZINC03814852
   47    49     0     0     0
SMALL
USER_CHARGES

@<TRIPOS>ATOM
      1 C1          6.0071   -2.0174    1.5537 C.3       1 <0>         0.0237
      2 O1          6.5849   -2.0460    0.2471 O.3       1 <0>        -0.3008
      3 C2          5.8065   -1.6159   -0.7818 C.ar      1 <0>         0.1490
      4 C3          4.5143   -1.1759   -0.5380 C.ar      1 <0>        -0.2137
      5 C4          3.7223   -0.7385   -1.5830 C.ar      1 <0>        -0.0353
      6 C5          4.2123   -0.7435   -2.8756 C.ar      1 <0>        -0.2138
      7 C6          5.5052   -1.1770   -3.1272 C.ar      1 <0>         0.1490
      8 C7          6.3049   -1.6171   -2.0792 C.ar      1 <0>         0.0365
      9 O2          7.5728   -2.0477   -2.3226 O.3       1 <0>        -0.3129
     10 C8          7.7427   -3.4383   -2.6044 C.3       1 <0>         0.0356
     11 O3          5.9885   -1.1759   -4.3984 O.3       1 <0>        -0.3008
     12 C9          5.1110   -0.7101   -5.4256 C.3       1 <0>         0.0237
     13 C10         2.3187   -0.2608   -1.3134 C.3       1 <0>         0.1651
     14 N1          2.3361    1.1795   -1.0458 N.pl3     1 <0>        -0.7385
     15 C11         1.1417    1.8538   -0.7661 C.ar      1 <0>         0.2022
     16 C12        -0.0633    1.1475   -0.7438 C.ar      1 <0>        -0.1146
     17 C13        -1.2415    1.7792   -0.4795 C.ar      1 <0>        -0.0716
     18 C14        -1.2514    3.1552   -0.2151 C.ar      1 <0>         0.1961
     19 C15        -0.0340    3.8783   -0.2355 C.ar      1 <0>        -0.1749
     20 C16         1.1650    3.2117   -0.5143 C.ar      1 <0>        -0.0731
     21 Cl1         2.6663    4.0830   -0.5427 Cl        1 <0>        -0.0546
     22 C17        -0.0734    5.2692    0.0311 C.ar      1 <0>         0.5028
     23 N2         -1.2475    5.8275    0.2863 N.ar      1 <0>        -0.6054
     24 C18        -2.3683    5.1113    0.2960 C.ar      1 <0>         0.5924
     25 N3         -2.3890    3.8149    0.0550 N.ar      1 <0>        -0.5877
     26 N4         -3.5631    5.7537    0.5703 N.pl3     1 <0>        -0.8220
     27 N5          1.0814    6.0232    0.0250 N.pl3     1 <0>        -0.8482
     28 H1          5.1202   -2.6509    1.5727 H         1 <0>         0.0582
     29 H2          6.7320   -2.3854    2.2797 H         1 <0>         0.1047
     30 H3          5.7282   -0.9942    1.8053 H         1 <0>         0.0589
     31 H4          4.1262   -1.1746    0.4699 H         1 <0>         0.1382
     32 H5          3.5888   -0.4054   -3.6900 H         1 <0>         0.1382
     33 H6          7.1683   -3.7019   -3.4925 H         1 <0>         0.0450
     34 H7          8.7981   -3.6473   -2.7791 H         1 <0>         0.0941
     35 H8          7.3914   -4.0265   -1.7566 H         1 <0>         0.0450
     36 H9          4.8259    0.3216   -5.2198 H         1 <0>         0.0588
     37 H10         5.6193   -0.7614   -6.3885 H         1 <0>         0.1047
     38 H11         4.2186   -1.3353   -5.4521 H         1 <0>         0.0582
     39 H12         1.9161   -0.7864   -0.4475 H         1 <0>         0.0755
     40 H13         1.6933   -0.4612   -2.1832 H         1 <0>         0.0756
     41 H14         3.1752    1.6658   -1.0624 H         1 <0>         0.4055
     42 H15        -0.0618    0.0861   -0.9432 H         1 <0>         0.1413
     43 H16        -2.1652    1.2198   -0.4703 H         1 <0>         0.1461
     44 H17        -4.3925    5.2509    0.5822 H         1 <0>         0.4149
     45 H18        -3.5711    6.7068    0.7505 H         1 <0>         0.4127
     46 H19         1.7447    5.8888   -0.6699 H         1 <0>         0.4117
     47 H20         1.2303    6.6878    0.7156 H         1 <0>         0.4047
@<TRIPOS>BOND
     1    1    2 1
     2    1   28 1
     3    1   29 1
     4    1   30 1
     5    2    3 1
     6    3    8 ar
     7    3    4 ar
     8    4    5 ar
     9    4   31 1
    10    5    6 ar
    11    5   13 1
    12    6    7 ar
    13    6   32 1
    14    7    8 ar
    15    7   11 1
    16    8    9 1
    17    9   10 1
    18   10   33 1
    19   10   34 1
    20   10   35 1
    21   11   12 1
    22   12   36 1
    23   12   37 1
    24   12   38 1
    25   13   14 1
    26   13   39 1
    27   13   40 1
    28   14   15 1
    29   14   41 1
    30   15   20 ar
    31   15   16 ar
    32   16   17 ar
    33   16   42 1
    34   17   18 ar
    35   17   43 1
    36   18   25 ar
    37   18   19 ar
    38   19   20 ar
    39   19   22 ar
    40   20   21 1
    41   22   23 ar
    42   22   27 1
    43   23   24 ar
    44   24   25 ar
    45   24   26 1
    46   26   44 1
    47   26   45 1
    48   27   46 1
    49   27   47 1
@<TRIPOS>MOLECULE
ZINC03814852
   48    50     0     0     0
SMALL
USER_CHARGES

@<TRIPOS>ATOM
      1 C1          6.0071   -2.0174    1.5537 C.3       1 <0>         0.0237
      2 O1          6.5849   -2.0460    0.2471 O.3       1 <0>        -0.2977
      3 C2          5.8065   -1.6159   -0.7818 C.ar      1 <0>         0.1507
      4 C3          4.5143   -1.1759   -0.5380 C.ar      1 <0>        -0.2132
      5 C4          3.7223   -0.7385   -1.5830 C.ar      1 <0>        -0.0496
      6 C5          4.2123   -0.7435   -2.8756 C.ar      1 <0>        -0.2133
      7 C6          5.5052   -1.1770   -3.1272 C.ar      1 <0>         0.1507
      8 C7          6.3049   -1.6171   -2.0792 C.ar      1 <0>         0.0448
      9 O2          7.5728   -2.0477   -2.3226 O.3       1 <0>        -0.3128
     10 C8          7.7427   -3.4383   -2.6044 C.3       1 <0>         0.0354
     11 O3          5.9885   -1.1759   -4.3984 O.3       1 <0>        -0.2977
     12 C9          5.1110   -0.7101   -5.4256 C.3       1 <0>         0.0237
     13 C10         2.3187   -0.2608   -1.3134 C.3       1 <0>         0.1576
     14 N1          2.3361    1.1795   -1.0458 N.pl3     1 <0>        -0.7179
     15 C11         1.1417    1.8538   -0.7661 C.ar      1 <0>         0.2366
     16 C12        -0.0633    1.1475   -0.7438 C.ar      1 <0>        -0.0857
     17 C13        -1.2415    1.7792   -0.4795 C.ar      1 <0>        -0.0899
     18 C14        -1.2514    3.1552   -0.2151 C.ar      1 <0>         0.1434
     19 C15        -0.0340    3.8783   -0.2355 C.ar      1 <0>        -0.1203
     20 C16         1.1650    3.2117   -0.5143 C.ar      1 <0>        -0.0710
     21 Cl1         2.6663    4.0830   -0.5427 Cl        1 <0>        -0.0115
     22 C17        -0.0734    5.2692    0.0311 C.ar      1 <0>         0.5682
     23 N2         -1.2475    5.8275    0.2863 N.ar      1 <0>        -0.5657
     24 C18        -2.3683    5.1113    0.2960 C.ar      1 <0>         0.6833
     25 N3         -3.5631    5.7537    0.5703 N.pl3     1 <0>        -0.7891
     26 N4          1.0814    6.0232    0.0250 N.pl3     1 <0>        -0.8035
     27 H1          5.1202   -2.6509    1.5727 H         1 <0>         0.0585
     28 H2          6.7320   -2.3854    2.2797 H         1 <0>         0.1077
     29 H3          5.7282   -0.9942    1.8053 H         1 <0>         0.0577
     30 H4          4.1262   -1.1746    0.4699 H         1 <0>         0.1381
     31 H5          3.5888   -0.4054   -3.6900 H         1 <0>         0.1382
     32 H6          7.1683   -3.7019   -3.4925 H         1 <0>         0.0467
     33 H7          8.7981   -3.6473   -2.7791 H         1 <0>         0.0978
     34 H8          7.3914   -4.0265   -1.7566 H         1 <0>         0.0467
     35 H9          4.8259    0.3216   -5.2198 H         1 <0>         0.0577
     36 H10         5.6193   -0.7614   -6.3885 H         1 <0>         0.1076
     37 H11         4.2186   -1.3353   -5.4521 H         1 <0>         0.0585
     38 H12         1.9161   -0.7864   -0.4475 H         1 <0>         0.0855
     39 H13         1.6933   -0.4612   -2.1832 H         1 <0>         0.0856
     40 H14         3.1752    1.6658   -1.0624 H         1 <0>         0.4144
     41 H15        -0.0618    0.0861   -0.9432 H         1 <0>         0.1624
     42 H16        -2.1652    1.2198   -0.4703 H         1 <0>         0.1634
     43 H17        -4.3925    5.2509    0.5822 H         1 <0>         0.4302
     44 H18        -3.5711    6.7068    0.7505 H         1 <0>         0.4425
     45 H19         1.7447    5.8888   -0.6699 H         1 <0>         0.4284
     46 H20         1.2303    6.6878    0.7156 H         1 <0>         0.4267
     47 N5         -2.4513    3.7798    0.0564 N.ar      1 <0>        -0.5910
     48 H21        -3.2996    3.2504    0.0659 H         1 <0>         0.4579
@<TRIPOS>BOND
     1    1    2 1
     2    1   27 1
     3    1   28 1
     4    1   29 1
     5    2    3 1
     6    3    8 ar
     7    3    4 ar
     8    4    5 ar
     9    4   30 1
    10    5    6 ar
    11    5   13 1
    12    6    7 ar
    13    6   31 1
    14    7    8 ar
    15    7   11 1
    16    8    9 1
    17    9   10 1
    18   10   32 1
    19   10   33 1
    20   10   34 1
    21   11   12 1
    22   12   35 1
    23   12   36 1
    24   12   37 1
    25   13   14 1
    26   13   38 1
    27   13   39 1
    28   14   15 1
    29   14   40 1
    30   15   20 ar
    31   15   16 ar
    32   16   17 ar
    33   16   41 1
    34   17   18 ar
    35   17   42 1
    36   18   19 ar
    37   18   47 ar
    38   19   20 ar
    39   19   22 ar
    40   20   21 1
    41   22   23 ar
    42   22   26 1
    43   23   24 ar
    44   24   25 1
    45   24   47 ar
    46   25   43 1
    47   25   44 1
    48   26   45 1
    49   26   46 1
    50   47   48 1
@<TRIPOS>MOLECULE
ZINC03814853
   50    52     0     0     0
SMALL
USER_CHARGES

@<TRIPOS>ATOM
      1 C1          1.9131   -2.6983   -0.0515 C.3       1 <0>         0.0217
      2 N1          1.1970   -1.9738    1.0069 N.pl3     1 <0>        -0.4886
      3 C2          1.7796   -2.2568    2.3254 C.3       1 <0>         0.0968
      4 C3          1.5591   -3.7069    2.6713 C.ar      1 <0>        -0.0040
      5 C4          0.4195   -4.0868    3.3552 C.ar      1 <0>        -0.2079
      6 C5          0.2101   -5.4209    3.6703 C.ar      1 <0>         0.1499
      7 C6          1.1532   -6.3750    3.3071 C.ar      1 <0>         0.0292
      8 C7          2.3003   -5.9881    2.6245 C.ar      1 <0>         0.1496
      9 C8          2.4997   -4.6527    2.3086 C.ar      1 <0>        -0.2269
     10 O1          3.2263   -6.9179    2.2673 O.3       1 <0>        -0.3022
     11 C9          4.3809   -6.4484    1.5684 C.3       1 <0>         0.0250
     12 O2          0.9536   -7.6847    3.6186 O.3       1 <0>        -0.3130
     13 C10         1.4602   -8.1370    4.8759 C.3       1 <0>         0.0357
     14 O3         -0.9142   -5.7945    4.3379 O.3       1 <0>        -0.3023
     15 C11        -1.8398   -4.7606    4.6792 C.3       1 <0>         0.0247
     16 C12         1.1811   -0.5978    0.7505 C.ar      1 <0>         0.0546
     17 C13         2.3815    0.1164    0.7284 C.ar      1 <0>        -0.0823
     18 C14         2.3956    1.4564    0.4813 C.ar      1 <0>        -0.1102
     19 C15         1.1926    2.1352    0.2460 C.ar      1 <0>         0.2413
     20 C16        -0.0286    1.4184    0.2667 C.ar      1 <0>        -0.2239
     21 C17        -0.0215    0.0421    0.5219 C.ar      1 <0>         0.0557
     22 Cl1        -1.5095   -0.8516    0.5515 Cl        1 <0>        -0.0300
     23 C18        -1.2293    2.1287    0.0194 C.ar      1 <0>         0.5189
     24 N2         -1.1535    3.4316   -0.2087 N.ar      1 <0>        -0.6115
     25 C19         0.0151    4.0670   -0.2193 C.ar      1 <0>         0.6086
     26 N3          1.1624    3.4545   -0.0009 N.ar      1 <0>        -0.5971
     27 N4          0.0274    5.4281   -0.4696 N.pl3     1 <0>        -0.8161
     28 N5         -2.4469    1.4811    0.0215 N.pl3     1 <0>        -0.8458
     29 H1          2.9414   -2.3407   -0.1048 H         1 <0>         0.0333
     30 H2          1.9105   -3.7650    0.1726 H         1 <0>         0.0812
     31 H3          1.4188   -2.5267   -1.0077 H         1 <0>         0.0732
     32 H4          2.8490   -2.0473    2.3027 H         1 <0>         0.0540
     33 H5          1.3019   -1.6275    3.0764 H         1 <0>         0.0895
     34 H6         -0.3107   -3.3442    3.6409 H         1 <0>         0.1363
     35 H7          3.3908   -4.3513    1.7782 H         1 <0>         0.1333
     36 H8          4.0731   -5.9695    0.6389 H         1 <0>         0.0575
     37 H9          4.9135   -5.7281    2.1893 H         1 <0>         0.0564
     38 H10         5.0367   -7.2896    1.3439 H         1 <0>         0.1033
     39 H11         2.5398   -7.9898    4.9068 H         1 <0>         0.0438
     40 H12         0.9930   -7.5699    5.6811 H         1 <0>         0.0440
     41 H13         1.2342   -9.1962    4.9989 H         1 <0>         0.0926
     42 H14        -1.3476   -4.0296    5.3207 H         1 <0>         0.0568
     43 H15        -2.1882   -4.2703    3.7703 H         1 <0>         0.0594
     44 H16        -2.6895   -5.1935    5.2072 H         1 <0>         0.1027
     45 H17         3.3120   -0.4011    0.9094 H         1 <0>         0.1367
     46 H18         3.3320    1.9943    0.4677 H         1 <0>         0.1442
     47 H19         0.8683    5.9114   -0.4817 H         1 <0>         0.4169
     48 H20        -0.8049    5.8988   -0.6328 H         1 <0>         0.4149
     49 H21        -2.6456    0.8243    0.7070 H         1 <0>         0.4128
     50 H22        -3.1045    1.6825   -0.6625 H         1 <0>         0.4074
@<TRIPOS>BOND
     1    1    2 1
     2    1   29 1
     3    1   30 1
     4    1   31 1
     5    2    3 1
     6    2   16 1
     7    3    4 1
     8    3   32 1
     9    3   33 1
    10    4    9 ar
    11    4    5 ar
    12    5    6 ar
    13    5   34 1
    14    6    7 ar
    15    6   14 1
    16    7    8 ar
    17    7   12 1
    18    8    9 ar
    19    8   10 1
    20    9   35 1
    21   10   11 1
    22   11   36 1
    23   11   37 1
    24   11   38 1
    25   12   13 1
    26   13   39 1
    27   13   40 1
    28   13   41 1
    29   14   15 1
    30   15   42 1
    31   15   43 1
    32   15   44 1
    33   16   21 ar
    34   16   17 ar
    35   17   18 ar
    36   17   45 1
    37   18   19 ar
    38   18   46 1
    39   19   26 ar
    40   19   20 ar
    41   20   21 ar
    42   20   23 ar
    43   21   22 1
    44   23   24 ar
    45   23   28 1
    46   24   25 ar
    47   25   26 ar
    48   25   27 1
    49   27   47 1
    50   27   48 1
    51   28   49 1
    52   28   50 1
@<TRIPOS>MOLECULE
ZINC03814853
   51    53     0     0     0
SMALL
USER_CHARGES

@<TRIPOS>ATOM
      1 C1          1.9131   -2.6983   -0.0515 C.3       1 <0>         0.0166
      2 N1          1.1970   -1.9738    1.0069 N.pl3     1 <0>        -0.4975
      3 C2          1.7796   -2.2568    2.3254 C.3       1 <0>         0.0979
      4 C3          1.5591   -3.7069    2.6713 C.ar      1 <0>        -0.0162
      5 C4          0.4195   -4.0868    3.3552 C.ar      1 <0>        -0.2082
      6 C5          0.2101   -5.4209    3.6703 C.ar      1 <0>         0.1514
      7 C6          1.1532   -6.3750    3.3071 C.ar      1 <0>         0.0368
      8 C7          2.3003   -5.9881    2.6245 C.ar      1 <0>         0.1522
      9 C8          2.4997   -4.6527    2.3086 C.ar      1 <0>        -0.2271
     10 O1          3.2263   -6.9179    2.2673 O.3       1 <0>        -0.2991
     11 C9          4.3809   -6.4484    1.5684 C.3       1 <0>         0.0248
     12 O2          0.9536   -7.6847    3.6186 O.3       1 <0>        -0.3128
     13 C10         1.4602   -8.1370    4.8759 C.3       1 <0>         0.0355
     14 O3         -0.9142   -5.7945    4.3379 O.3       1 <0>        -0.2992
     15 C11        -1.8398   -4.7606    4.6792 C.3       1 <0>         0.0251
     16 C12         1.1811   -0.5978    0.7505 C.ar      1 <0>         0.0988
     17 C13         2.3815    0.1164    0.7284 C.ar      1 <0>        -0.0433
     18 C14         2.3956    1.4564    0.4813 C.ar      1 <0>        -0.1327
     19 C15         1.1926    2.1352    0.2460 C.ar      1 <0>         0.2039
     20 C16        -0.0286    1.4184    0.2667 C.ar      1 <0>        -0.1746
     21 C17        -0.0215    0.0421    0.5219 C.ar      1 <0>         0.0558
     22 Cl1        -1.5095   -0.8516    0.5515 Cl        1 <0>         0.0170
     23 C18        -1.2293    2.1287    0.0194 C.ar      1 <0>         0.5768
     24 N2         -1.1535    3.4316   -0.2087 N.ar      1 <0>        -0.5675
     25 C19         0.0151    4.0670   -0.2193 C.ar      1 <0>         0.6914
     26 N3          0.0274    5.4281   -0.4696 N.pl3     1 <0>        -0.7833
     27 N4         -2.4469    1.4811    0.0215 N.pl3     1 <0>        -0.8008
     28 H1          2.9414   -2.3407   -0.1048 H         1 <0>         0.0396
     29 H2          1.9105   -3.7650    0.1726 H         1 <0>         0.0938
     30 H3          1.4188   -2.5267   -1.0077 H         1 <0>         0.0785
     31 H4          2.8490   -2.0473    2.3027 H         1 <0>         0.0596
     32 H5          1.3019   -1.6275    3.0764 H         1 <0>         0.0926
     33 H6         -0.3107   -3.3442    3.6409 H         1 <0>         0.1354
     34 H7          3.3908   -4.3513    1.7782 H         1 <0>         0.1335
     35 H8          4.0731   -5.9695    0.6389 H         1 <0>         0.0568
     36 H9          4.9135   -5.7281    2.1893 H         1 <0>         0.0567
     37 H10         5.0367   -7.2896    1.3439 H         1 <0>         0.1062
     38 H11         2.5398   -7.9898    4.9068 H         1 <0>         0.0454
     39 H12         0.9930   -7.5699    5.6811 H         1 <0>         0.0454
     40 H13         1.2342   -9.1962    4.9989 H         1 <0>         0.0961
     41 H14        -1.3476   -4.0296    5.3207 H         1 <0>         0.0567
     42 H15        -2.1882   -4.2703    3.7703 H         1 <0>         0.0577
     43 H16        -2.6895   -5.1935    5.2072 H         1 <0>         0.1053
     44 H17         3.3120   -0.4011    0.9094 H         1 <0>         0.1606
     45 H18         3.3320    1.9943    0.4677 H         1 <0>         0.1640
     46 H19         0.8683    5.9114   -0.4817 H         1 <0>         0.4317
     47 H20        -0.8049    5.8988   -0.6328 H         1 <0>         0.4444
     48 H21        -2.6456    0.8243    0.7070 H         1 <0>         0.4291
     49 H22        -3.1045    1.6825   -0.6625 H         1 <0>         0.4289
     50 N5          1.2232    3.4920   -0.0023 N.ar      1 <0>        -0.6000
     51 H23         2.0966    3.9789   -0.0124 H         1 <0>         0.4603
@<TRIPOS>BOND
     1    1    2 1
     2    1   28 1
     3    1   29 1
     4    1   30 1
     5    2    3 1
     6    2   16 1
     7    3    4 1
     8    3   31 1
     9    3   32 1
    10    4    9 ar
    11    4    5 ar
    12    5    6 ar
    13    5   33 1
    14    6    7 ar
    15    6   14 1
    16    7    8 ar
    17    7   12 1
    18    8    9 ar
    19    8   10 1
    20    9   34 1
    21   10   11 1
    22   11   35 1
    23   11   36 1
    24   11   37 1
    25   12   13 1
    26   13   38 1
    27   13   39 1
    28   13   40 1
    29   14   15 1
    30   15   41 1
    31   15   42 1
    32   15   43 1
    33   16   21 ar
    34   16   17 ar
    35   17   18 ar
    36   17   44 1
    37   18   19 ar
    38   18   45 1
    39   19   20 ar
    40   19   50 ar
    41   20   21 ar
    42   20   23 ar
    43   21   22 1
    44   23   24 ar
    45   23   27 1
    46   24   25 ar
    47   25   26 1
    48   25   50 ar
    49   26   46 1
    50   26   47 1
    51   27   48 1
    52   27   49 1
    53   50   51 1
@<TRIPOS>MOLECULE
ZINC03814854
   37    39     0     0     0
SMALL
USER_CHARGES

@<TRIPOS>ATOM
      1 C1         -0.0001   -0.7297   -1.2707 C.3       1 <0>         0.0868
      2 N1          0.0021   -0.0041    0.0020 N.pl3     1 <0>        -0.6183
      3 C2         -0.0178    1.4608    0.0101 C.3       1 <0>         0.1775
      4 C3          1.3960    1.9824   -0.0006 C.ar      1 <0>         0.0788
      5 C4          1.9869    2.3181   -1.2168 C.ar      1 <0>        -0.1048
      6 C5          3.2669    2.7970   -1.2456 C.ar      1 <0>        -0.0840
      7 C6          3.9521    2.9251   -0.0254 C.ar      1 <0>         0.1954
      8 C7          3.2904    2.5596    1.1711 C.ar      1 <0>        -0.0460
      9 N2          2.0418    2.1040    1.1356 N.ar      1 <0>        -0.4128
     10 C8          4.0294    2.7039    2.4264 C.ar      1 <0>         0.5340
     11 N3          5.2696    3.1671    2.3623 N.ar      1 <0>        -0.6297
     12 C9          5.8286    3.4912    1.2006 C.ar      1 <0>         0.6223
     13 N4          5.2089    3.3814    0.0427 N.ar      1 <0>        -0.6138
     14 N5          7.1268    3.9686    1.2075 N.pl3     1 <0>        -0.8147
     15 N6          3.4550    2.3690    3.6342 N.pl3     1 <0>        -0.7962
     16 C10         0.0231   -0.7092    1.2083 C.ar      1 <0>         0.2340
     17 C11         0.0309   -0.0222    2.4157 C.ar      1 <0>        -0.1668
     18 C12         0.0454   -0.7211    3.6068 C.ar      1 <0>        -0.0547
     19 C13         0.0642   -2.1047    3.5987 C.ar      1 <0>        -0.0882
     20 C14         0.0627   -2.7925    2.3969 C.ar      1 <0>         0.0164
     21 C15         0.0419   -2.0976    1.2020 C.ar      1 <0>        -0.1808
     22 Cl1         0.0863   -4.5283    2.3907 Cl        1 <0>        -0.0510
     23 Cl2         0.0891   -2.9797    5.0979 Cl        1 <0>        -0.0599
     24 H1          1.0269   -0.8956   -1.5960 H         1 <0>         0.0515
     25 H2         -0.4997   -1.6897   -1.1407 H         1 <0>         0.0725
     26 H3         -0.5291   -0.1436   -2.0222 H         1 <0>         0.0741
     27 H4         -0.5450    1.8219   -0.8730 H         1 <0>         0.0989
     28 H5         -0.5280    1.8123    0.9069 H         1 <0>         0.0958
     29 H6          1.4323    2.2035   -2.1365 H         1 <0>         0.1414
     30 H7          3.7391    3.0654   -2.1791 H         1 <0>         0.1482
     31 H8          7.6057    4.0595    2.0461 H         1 <0>         0.4147
     32 H9          7.5584    4.2124    0.3737 H         1 <0>         0.4171
     33 H10         2.5462    2.0311    3.6620 H         1 <0>         0.4240
     34 H11         3.9598    2.4711    4.4562 H         1 <0>         0.4141
     35 H12         0.0208    1.0577    2.4230 H         1 <0>         0.1437
     36 H13         0.0467   -0.1871    4.5455 H         1 <0>         0.1401
     37 H14         0.0408   -2.6341    0.2646 H         1 <0>         0.1404
@<TRIPOS>BOND
     1    1    2 1
     2    1   24 1
     3    1   25 1
     4    1   26 1
     5    2    3 1
     6    2   16 1
     7    3    4 1
     8    3   27 1
     9    3   28 1
    10    4    9 ar
    11    4    5 ar
    12    5    6 ar
    13    5   29 1
    14    6    7 ar
    15    6   30 1
    16    7   13 ar
    17    7    8 ar
    18    8    9 ar
    19    8   10 ar
    20   10   11 ar
    21   10   15 1
    22   11   12 ar
    23   12   13 ar
    24   12   14 1
    25   14   31 1
    26   14   32 1
    27   15   33 1
    28   15   34 1
    29   16   21 ar
    30   16   17 ar
    31   17   18 ar
    32   17   35 1
    33   18   19 ar
    34   18   36 1
    35   19   20 ar
    36   19   23 1
    37   20   21 ar
    38   20   22 1
    39   21   37 1
@<TRIPOS>MOLECULE
ZINC03814854
   38    40     0     0     0
SMALL
USER_CHARGES

@<TRIPOS>ATOM
      1 C1         -0.0001   -0.7297   -1.2707 C.3       1 <0>         0.0834
      2 N1          0.0021   -0.0041    0.0020 N.pl3     1 <0>        -0.6215
      3 C2         -0.0178    1.4608    0.0101 C.3       1 <0>         0.1665
      4 C3          1.3960    1.9824   -0.0006 C.ar      1 <0>         0.1248
      5 C4          1.9869    2.3181   -1.2168 C.ar      1 <0>        -0.0700
      6 C5          3.2669    2.7970   -1.2456 C.ar      1 <0>        -0.0947
      7 C6          3.9521    2.9251   -0.0254 C.ar      1 <0>         0.1420
      8 C7          3.2904    2.5596    1.1711 C.ar      1 <0>         0.0302
      9 N2          2.0418    2.1040    1.1356 N.ar      1 <0>        -0.4009
     10 C8          4.0294    2.7039    2.4264 C.ar      1 <0>         0.5756
     11 N3          5.2696    3.1671    2.3623 N.ar      1 <0>        -0.5793
     12 C9          5.8286    3.4912    1.2006 C.ar      1 <0>         0.7012
     13 N4          7.1268    3.9686    1.2075 N.pl3     1 <0>        -0.7841
     14 N5          3.4550    2.3690    3.6342 N.pl3     1 <0>        -0.7353
     15 C10         0.0231   -0.7092    1.2083 C.ar      1 <0>         0.2234
     16 C11         0.0309   -0.0222    2.4157 C.ar      1 <0>        -0.1736
     17 C12         0.0454   -0.7211    3.6068 C.ar      1 <0>        -0.0564
     18 C13         0.0642   -2.1047    3.5987 C.ar      1 <0>        -0.0825
     19 C14         0.0627   -2.7925    2.3969 C.ar      1 <0>         0.0156
     20 C15         0.0419   -2.0976    1.2020 C.ar      1 <0>        -0.1730
     21 Cl1         0.0863   -4.5283    2.3907 Cl        1 <0>        -0.0393
     22 Cl2         0.0891   -2.9797    5.0979 Cl        1 <0>        -0.0488
     23 H1          1.0269   -0.8956   -1.5960 H         1 <0>         0.0518
     24 H2         -0.4997   -1.6897   -1.1407 H         1 <0>         0.0789
     25 H3         -0.5291   -0.1436   -2.0222 H         1 <0>         0.0776
     26 H4         -0.5450    1.8219   -0.8730 H         1 <0>         0.1123
     27 H5         -0.5280    1.8123    0.9069 H         1 <0>         0.1077
     28 H6          1.4323    2.2035   -2.1365 H         1 <0>         0.1675
     29 H7          3.7391    3.0654   -2.1791 H         1 <0>         0.1701
     30 H8          7.6057    4.0595    2.0461 H         1 <0>         0.4440
     31 H9          7.5584    4.2124    0.3737 H         1 <0>         0.4318
     32 H10         2.5462    2.0311    3.6620 H         1 <0>         0.4423
     33 H11         3.9598    2.4711    4.4562 H         1 <0>         0.4350
     34 H12         0.0208    1.0577    2.4230 H         1 <0>         0.1405
     35 H13         0.0467   -0.1871    4.5455 H         1 <0>         0.1425
     36 H14         0.0408   -2.6341    0.2646 H         1 <0>         0.1433
     37 N6          5.2448    3.4011   -0.0201 N.ar      1 <0>        -0.6057
     38 H15         5.6885    3.6527   -0.8802 H         1 <0>         0.4573
@<TRIPOS>BOND
     1    1    2 1
     2    1   23 1
     3    1   24 1
     4    1   25 1
     5    2    3 1
     6    2   15 1
     7    3    4 1
     8    3   26 1
     9    3   27 1
    10    4    9 ar
    11    4    5 ar
    12    5    6 ar
    13    5   28 1
    14    6    7 ar
    15    6   29 1
    16    7    8 ar
    17    7   37 ar
    18    8    9 ar
    19    8   10 ar
    20   10   11 ar
    21   10   14 1
    22   11   12 ar
    23   12   13 1
    24   12   37 ar
    25   13   30 1
    26   13   31 1
    27   14   32 1
    28   14   33 1
    29   15   20 ar
    30   15   16 ar
    31   16   17 ar
    32   16   34 1
    33   17   18 ar
    34   17   35 1
    35   18   19 ar
    36   18   22 1
    37   19   20 ar
    38   19   21 1
    39   20   36 1
    40   37   38 1
@<TRIPOS>MOLECULE
ZINC03814855
   40    42     0     0     0
SMALL
USER_CHARGES

@<TRIPOS>ATOM
      1 C1         -0.0832   -0.0034    0.6168 C.3       1 <0>        -0.1573
      2 C2         -0.1002    1.5034    0.6000 C.ar      1 <0>         0.0556
      3 C3         -1.2579    2.1985    0.8340 C.ar      1 <0>        -0.2190
      4 C4         -1.2465    3.5877    0.8159 C.ar      1 <0>         0.2051
      5 N1         -0.1486    4.2678    0.5711 N.ar      1 <0>        -0.4869
      6 C5          1.0082    3.6498    0.3318 C.ar      1 <0>         0.4140
      7 C6          1.0646    2.2341    0.3393 C.ar      1 <0>        -0.2792
      8 C7          2.3073    1.6044    0.0812 C.ar      1 <0>         0.5227
      9 N2          3.3621    2.3712   -0.1559 N.ar      1 <0>        -0.6165
     10 C8          3.2663    3.6977   -0.1537 C.ar      1 <0>         0.6239
     11 N3          2.1337    4.3335    0.0802 N.ar      1 <0>        -0.5904
     12 N4          4.4020    4.4427   -0.4078 N.pl3     1 <0>        -0.8107
     13 N5          2.4164    0.2312    0.0763 N.pl3     1 <0>        -0.8457
     14 C9         -2.5400    1.4576    1.1135 C.3       1 <0>         0.1713
     15 N6         -2.5597    1.0266    2.5135 N.pl3     1 <0>        -0.6189
     16 C10        -2.0107   -0.2797    2.8856 C.3       1 <0>         0.0835
     17 C11        -3.1023    1.8615    3.4940 C.ar      1 <0>         0.2352
     18 C12        -3.6180    3.1028    3.1432 C.ar      1 <0>        -0.1836
     19 C13        -4.1594    3.9238    4.1128 C.ar      1 <0>        -0.0463
     20 C14        -4.1778    3.5163    5.4351 C.ar      1 <0>        -0.0893
     21 C15        -3.6589    2.2822    5.7891 C.ar      1 <0>         0.0203
     22 C16        -3.1215    1.4542    4.8213 C.ar      1 <0>        -0.1816
     23 Cl1        -3.6838    1.7745    7.4490 Cl        1 <0>        -0.0490
     24 Cl2        -4.8531    4.5538    6.6522 Cl        1 <0>        -0.0569
     25 H1          0.2620   -0.3521    1.5902 H         1 <0>         0.0875
     26 H2         -1.0891   -0.3802    0.4317 H         1 <0>         0.0833
     27 H3          0.5898   -0.3679   -0.1593 H         1 <0>         0.0997
     28 H4         -2.1652    4.1232    1.0049 H         1 <0>         0.1626
     29 H5          5.2454    3.9968   -0.5827 H         1 <0>         0.4161
     30 H6          4.3557    5.4116   -0.4113 H         1 <0>         0.4190
     31 H7          2.9557   -0.2101   -0.5984 H         1 <0>         0.4106
     32 H8          1.9539   -0.2945    0.7476 H         1 <0>         0.4174
     33 H9         -3.3884    2.1151    0.9237 H         1 <0>         0.0917
     34 H10        -2.6043    0.5848    0.4637 H         1 <0>         0.0931
     35 H11        -0.9521   -0.1746    3.1230 H         1 <0>         0.0514
     36 H12        -2.5422   -0.6623    3.7570 H         1 <0>         0.0721
     37 H13        -2.1294   -0.9740    2.0538 H         1 <0>         0.0742
     38 H14        -3.6001    3.4236    2.1121 H         1 <0>         0.1366
     39 H15        -4.5647    4.8868    3.8395 H         1 <0>         0.1433
     40 H16        -2.7169    0.4917    5.0974 H         1 <0>         0.1411
@<TRIPOS>BOND
     1    1    2 1
     2    1   25 1
     3    1   26 1
     4    1   27 1
     5    2    7 ar
     6    2    3 ar
     7    3    4 ar
     8    3   14 1
     9    4    5 ar
    10    4   28 1
    11    5    6 ar
    12    6   11 ar
    13    6    7 ar
    14    7    8 ar
    15    8    9 ar
    16    8   13 1
    17    9   10 ar
    18   10   11 ar
    19   10   12 1
    20   12   29 1
    21   12   30 1
    22   13   31 1
    23   13   32 1
    24   14   15 1
    25   14   33 1
    26   14   34 1
    27   15   16 1
    28   15   17 1
    29   16   35 1
    30   16   36 1
    31   16   37 1
    32   17   22 ar
    33   17   18 ar
    34   18   19 ar
    35   18   38 1
    36   19   20 ar
    37   19   39 1
    38   20   21 ar
    39   20   24 1
    40   21   22 ar
    41   21   23 1
    42   22   40 1
@<TRIPOS>MOLECULE
ZINC03814855
   41    43     0     0     0
SMALL
USER_CHARGES

@<TRIPOS>ATOM
      1 C1         -0.0832   -0.0034    0.6168 C.3       1 <0>        -0.1714
      2 C2         -0.1002    1.5034    0.6000 C.ar      1 <0>         0.0736
      3 C3         -1.2579    2.1985    0.8340 C.ar      1 <0>        -0.1773
      4 C4         -1.2465    3.5877    0.8159 C.ar      1 <0>         0.2307
      5 N1         -0.1486    4.2678    0.5711 N.ar      1 <0>        -0.4974
      6 C5          1.0082    3.6498    0.3318 C.ar      1 <0>         0.4030
      7 C6          1.0646    2.2341    0.3393 C.ar      1 <0>        -0.2316
      8 C7          2.3073    1.6044    0.0812 C.ar      1 <0>         0.5801
      9 N2          3.3621    2.3712   -0.1559 N.ar      1 <0>        -0.5715
     10 C8          3.2663    3.6977   -0.1537 C.ar      1 <0>         0.6935
     11 N3          4.4020    4.4427   -0.4078 N.pl3     1 <0>        -0.7779
     12 N4          2.4164    0.2312    0.0763 N.pl3     1 <0>        -0.8023
     13 C9         -2.5400    1.4576    1.1135 C.3       1 <0>         0.1616
     14 N5         -2.5597    1.0266    2.5135 N.pl3     1 <0>        -0.6231
     15 C10        -2.0107   -0.2797    2.8856 C.3       1 <0>         0.0799
     16 C11        -3.1023    1.8615    3.4940 C.ar      1 <0>         0.2241
     17 C12        -3.6180    3.1028    3.1432 C.ar      1 <0>        -0.1873
     18 C13        -4.1594    3.9238    4.1128 C.ar      1 <0>        -0.0469
     19 C14        -4.1778    3.5163    5.4351 C.ar      1 <0>        -0.0828
     20 C15        -3.6589    2.2822    5.7891 C.ar      1 <0>         0.0190
     21 C16        -3.1215    1.4542    4.8213 C.ar      1 <0>        -0.1743
     22 Cl1        -3.6838    1.7745    7.4490 Cl        1 <0>        -0.0379
     23 Cl2        -4.8531    4.5538    6.6522 Cl        1 <0>        -0.0459
     24 H1          0.2620   -0.3521    1.5902 H         1 <0>         0.1069
     25 H2         -1.0891   -0.3802    0.4317 H         1 <0>         0.1045
     26 H3          0.5898   -0.3679   -0.1593 H         1 <0>         0.1065
     27 H4         -2.1652    4.1232    1.0049 H         1 <0>         0.1877
     28 H5          5.2454    3.9968   -0.5827 H         1 <0>         0.4460
     29 H6          4.3557    5.4116   -0.4113 H         1 <0>         0.4335
     30 H7          2.9557   -0.2101   -0.5984 H         1 <0>         0.4312
     31 H8          1.9539   -0.2945    0.7476 H         1 <0>         0.4356
     32 H9         -3.3884    2.1151    0.9237 H         1 <0>         0.1032
     33 H10        -2.6043    0.5848    0.4637 H         1 <0>         0.1055
     34 H11        -0.9521   -0.1746    3.1230 H         1 <0>         0.0508
     35 H12        -2.5422   -0.6623    3.7570 H         1 <0>         0.0791
     36 H13        -2.1294   -0.9740    2.0538 H         1 <0>         0.0772
     37 H14        -3.6001    3.4236    2.1121 H         1 <0>         0.1328
     38 H15        -4.5647    4.8868    3.8395 H         1 <0>         0.1458
     39 H16        -2.7169    0.4917    5.0974 H         1 <0>         0.1437
     40 N6          2.1326    4.4056    0.0794 N.ar      1 <0>        -0.5891
     41 H17         2.1545    5.4052    0.0601 H         1 <0>         0.4614
@<TRIPOS>BOND
     1    1    2 1
     2    1   24 1
     3    1   25 1
     4    1   26 1
     5    2    7 ar
     6    2    3 ar
     7    3    4 ar
     8    3   13 1
     9    4    5 ar
    10    4   27 1
    11    5    6 ar
    12    6    7 ar
    13    6   40 ar
    14    7    8 ar
    15    8    9 ar
    16    8   12 1
    17    9   10 ar
    18   10   11 1
    19   10   40 ar
    20   11   28 1
    21   11   29 1
    22   12   30 1
    23   12   31 1
    24   13   14 1
    25   13   32 1
    26   13   33 1
    27   14   15 1
    28   14   16 1
    29   15   34 1
    30   15   35 1
    31   15   36 1
    32   16   21 ar
    33   16   17 ar
    34   17   18 ar
    35   17   37 1
    36   18   19 ar
    37   18   38 1
    38   19   20 ar
    39   19   23 1
    40   20   21 ar
    41   20   22 1
    42   21   39 1
    43   40   41 1
@<TRIPOS>MOLECULE
ZINC03814856
   43    45     0     0     0
SMALL
USER_CHARGES

@<TRIPOS>ATOM
      1 C1          0.2340    7.7358   -0.4610 C.3       1 <0>         0.0288
      2 O1          1.3750    6.8756   -0.4489 O.3       1 <0>        -0.3178
      3 C2          1.1417    5.5425   -0.3168 C.ar      1 <0>         0.1429
      4 C3         -0.1590    5.0747   -0.2019 C.ar      1 <0>        -0.2299
      5 C4         -0.4000    3.7192   -0.0727 C.ar      1 <0>        -0.1227
      6 C5          0.6577    2.8258   -0.0470 C.ar      1 <0>         0.0204
      7 C6          1.9651    3.2924   -0.1626 C.ar      1 <0>         0.2374
      8 C7          2.2041    4.6520   -0.2975 C.ar      1 <0>        -0.2024
      9 N1          3.0355    2.3910   -0.1424 N.pl3     1 <0>        -0.7310
     10 C8          4.4099    2.8832   -0.2640 C.3       1 <0>         0.1675
     11 C9          5.3664    1.7197   -0.2138 C.ar      1 <0>        -0.1333
     12 C10         6.0310    1.4282    0.9732 C.ar      1 <0>        -0.0385
     13 C11         6.9028    0.3827    1.0523 C.ar      1 <0>        -0.1207
     14 C12         7.1351   -0.4125   -0.0780 C.ar      1 <0>         0.2484
     15 C13         6.4583   -0.1151   -1.2859 C.ar      1 <0>        -0.2318
     16 C14         5.5652    0.9622   -1.3326 C.ar      1 <0>         0.0497
     17 Cl1         4.7216    1.3359   -2.8031 Cl        1 <0>        -0.0386
     18 C15         6.7093   -0.9322   -2.4156 C.ar      1 <0>         0.5193
     19 N2          7.5654   -1.9357   -2.2878 N.ar      1 <0>        -0.6133
     20 C16         8.1800   -2.1802   -1.1339 C.ar      1 <0>         0.6105
     21 N3          7.9831   -1.4514   -0.0518 N.ar      1 <0>        -0.5979
     22 N4          9.0624   -3.2430   -1.0655 N.pl3     1 <0>        -0.8149
     23 N5          6.0794   -0.6895   -3.6174 N.pl3     1 <0>        -0.8451
     24 O2          0.4197    1.4924    0.0854 O.3       1 <0>        -0.3224
     25 C17        -0.9453    1.0852    0.1990 C.3       1 <0>         0.0327
     26 H1         -0.4142    7.4678   -1.2954 H         1 <0>         0.0547
     27 H2         -0.3141    7.6257    0.4747 H         1 <0>         0.0550
     28 H3          0.5598    8.7701   -0.5717 H         1 <0>         0.0989
     29 H4         -0.9852    5.7699   -0.2175 H         1 <0>         0.1263
     30 H5         -1.4139    3.3573    0.0124 H         1 <0>         0.1291
     31 H6          3.2168    5.0165   -0.3876 H         1 <0>         0.1361
     32 H7          2.8673    1.4404   -0.0477 H         1 <0>         0.4081
     33 H8          4.5254    3.4078   -1.2125 H         1 <0>         0.0747
     34 H9          4.6253    3.5663    0.5576 H         1 <0>         0.0760
     35 H10         5.8533    2.0393    1.8458 H         1 <0>         0.1435
     36 H11         7.4115    0.1688    1.9806 H         1 <0>         0.1466
     37 H12         9.2221   -3.7920   -1.8491 H         1 <0>         0.4150
     38 H13         9.5216   -3.4393   -0.2339 H         1 <0>         0.4173
     39 H14         5.9852    0.2203   -3.9405 H         1 <0>         0.4130
     40 H15         5.7303   -1.4283   -4.1399 H         1 <0>         0.4076
     41 H16        -1.4917    1.3931   -0.6925 H         1 <0>         0.0518
     42 H17        -0.9939    0.0009    0.2985 H         1 <0>         0.0967
     43 H18        -1.3916    1.5511    1.0776 H         1 <0>         0.0522
@<TRIPOS>BOND
     1    1    2 1
     2    1   26 1
     3    1   27 1
     4    1   28 1
     5    2    3 1
     6    3    8 ar
     7    3    4 ar
     8    4    5 ar
     9    4   29 1
    10    5    6 ar
    11    5   30 1
    12    6    7 ar
    13    6   24 1
    14    7    8 ar
    15    7    9 1
    16    8   31 1
    17    9   10 1
    18    9   32 1
    19   10   11 1
    20   10   33 1
    21   10   34 1
    22   11   16 ar
    23   11   12 ar
    24   12   13 ar
    25   12   35 1
    26   13   14 ar
    27   13   36 1
    28   14   21 ar
    29   14   15 ar
    30   15   16 ar
    31   15   18 ar
    32   16   17 1
    33   18   19 ar
    34   18   23 1
    35   19   20 ar
    36   20   21 ar
    37   20   22 1
    38   22   37 1
    39   22   38 1
    40   23   39 1
    41   23   40 1
    42   24   25 1
    43   25   41 1
    44   25   42 1
    45   25   43 1
@<TRIPOS>MOLECULE
ZINC03814856
   44    46     0     0     0
SMALL
USER_CHARGES

@<TRIPOS>ATOM
      1 C1          0.2340    7.7358   -0.4610 C.3       1 <0>         0.0270
      2 O1          1.3750    6.8756   -0.4489 O.3       1 <0>        -0.3169
      3 C2          1.1417    5.5425   -0.3168 C.ar      1 <0>         0.1435
      4 C3         -0.1590    5.0747   -0.2019 C.ar      1 <0>        -0.2194
      5 C4         -0.4000    3.7192   -0.0727 C.ar      1 <0>        -0.1209
      6 C5          0.6577    2.8258   -0.0470 C.ar      1 <0>         0.0249
      7 C6          1.9651    3.2924   -0.1626 C.ar      1 <0>         0.2269
      8 C7          2.2041    4.6520   -0.2975 C.ar      1 <0>        -0.1980
      9 N1          3.0355    2.3910   -0.1424 N.pl3     1 <0>        -0.7385
     10 C8          4.4099    2.8832   -0.2640 C.3       1 <0>         0.1573
     11 C9          5.3664    1.7197   -0.2138 C.ar      1 <0>        -0.0965
     12 C10         6.0310    1.4282    0.9732 C.ar      1 <0>         0.0087
     13 C11         6.9028    0.3827    1.0523 C.ar      1 <0>        -0.1446
     14 C12         7.1351   -0.4125   -0.0780 C.ar      1 <0>         0.2147
     15 C13         6.4583   -0.1151   -1.2859 C.ar      1 <0>        -0.1833
     16 C14         5.5652    0.9622   -1.3326 C.ar      1 <0>         0.0515
     17 Cl1         4.7216    1.3359   -2.8031 Cl        1 <0>         0.0087
     18 C15         6.7093   -0.9322   -2.4156 C.ar      1 <0>         0.5762
     19 N2          7.5654   -1.9357   -2.2878 N.ar      1 <0>        -0.5684
     20 C16         8.1800   -2.1802   -1.1339 C.ar      1 <0>         0.6918
     21 N3          9.0624   -3.2430   -1.0655 N.pl3     1 <0>        -0.7823
     22 N4          6.0794   -0.6895   -3.6174 N.pl3     1 <0>        -0.8001
     23 O2          0.4197    1.4924    0.0854 O.3       1 <0>        -0.3259
     24 C17        -0.9453    1.0852    0.1990 C.3       1 <0>         0.0311
     25 H1         -0.4142    7.4678   -1.2954 H         1 <0>         0.0569
     26 H2         -0.3141    7.6257    0.4747 H         1 <0>         0.0572
     27 H3          0.5598    8.7701   -0.5717 H         1 <0>         0.1023
     28 H4         -0.9852    5.7699   -0.2175 H         1 <0>         0.1305
     29 H5         -1.4139    3.3573    0.0124 H         1 <0>         0.1326
     30 H6          3.2168    5.0165   -0.3876 H         1 <0>         0.1359
     31 H7          2.8673    1.4404   -0.0477 H         1 <0>         0.4072
     32 H8          4.5254    3.4078   -1.2125 H         1 <0>         0.0846
     33 H9          4.6253    3.5663    0.5576 H         1 <0>         0.0872
     34 H10         5.8533    2.0393    1.8458 H         1 <0>         0.1681
     35 H11         7.4115    0.1688    1.9806 H         1 <0>         0.1669
     36 H12         9.2221   -3.7920   -1.8491 H         1 <0>         0.4446
     37 H13         9.5216   -3.4393   -0.2339 H         1 <0>         0.4321
     38 H14         5.9852    0.2203   -3.9405 H         1 <0>         0.4293
     39 H15         5.7303   -1.4283   -4.1399 H         1 <0>         0.4291
     40 H16        -1.4917    1.3931   -0.6925 H         1 <0>         0.0544
     41 H17        -0.9939    0.0009    0.2985 H         1 <0>         0.0982
     42 H18        -1.3916    1.5511    1.0776 H         1 <0>         0.0549
     43 N5          8.0179   -1.4676    0.0083 N.ar      1 <0>        -0.6006
     44 H19         8.4849   -1.6594    0.8715 H         1 <0>         0.4610
@<TRIPOS>BOND
     1    1    2 1
     2    1   25 1
     3    1   26 1
     4    1   27 1
     5    2    3 1
     6    3    8 ar
     7    3    4 ar
     8    4    5 ar
     9    4   28 1
    10    5    6 ar
    11    5   29 1
    12    6    7 ar
    13    6   23 1
    14    7    8 ar
    15    7    9 1
    16    8   30 1
    17    9   10 1
    18    9   31 1
    19   10   11 1
    20   10   32 1
    21   10   33 1
    22   11   16 ar
    23   11   12 ar
    24   12   13 ar
    25   12   34 1
    26   13   14 ar
    27   13   35 1
    28   14   15 ar
    29   14   43 ar
    30   15   16 ar
    31   15   18 ar
    32   16   17 1
    33   18   19 ar
    34   18   22 1
    35   19   20 ar
    36   20   21 1
    37   20   43 ar
    38   21   36 1
    39   21   37 1
    40   22   38 1
    41   22   39 1
    42   23   24 1
    43   24   40 1
    44   24   41 1
    45   24   42 1
    46   43   44 1
@<TRIPOS>MOLECULE
ZINC03814857
   47    49     0     0     0
SMALL
USER_CHARGES

@<TRIPOS>ATOM
      1 C1          0.6195    7.6037    3.7865 C.3       1 <0>         0.0256
      2 O1          0.6696    8.3823    2.5893 O.3       1 <0>        -0.3010
      3 C2          0.7707    7.7036    1.4152 C.ar      1 <0>         0.1942
      4 C3          0.8206    6.3182    1.4173 C.ar      1 <0>        -0.3068
      5 C4          0.9238    5.6252    0.2188 C.ar      1 <0>         0.2897
      6 C5          0.9830    6.3190   -0.9822 C.ar      1 <0>        -0.3090
      7 C6          0.9284    7.7042   -0.9862 C.ar      1 <0>         0.1941
      8 C7          0.8246    8.3986    0.2131 C.ar      1 <0>        -0.0289
      9 O2          0.7753    9.7596    0.2102 O.3       1 <0>        -0.3097
     10 C8          2.0214   10.4541    0.2924 C.3       1 <0>         0.0334
     11 O3          0.9812    8.3835   -2.1631 O.3       1 <0>        -0.3008
     12 C9          1.0877    7.6055   -3.3570 C.3       1 <0>         0.0254
     13 N1          0.9740    4.2270    0.2218 N.pl3     1 <0>        -0.7335
     14 C10         1.0830    3.4953   -1.0427 C.3       1 <0>         0.1675
     15 C11         1.1182    2.0146   -0.7648 C.ar      1 <0>        -0.1368
     16 C12         2.3376    1.3446   -0.7672 C.ar      1 <0>        -0.0396
     17 C13         2.4042    0.0052   -0.5200 C.ar      1 <0>        -0.1196
     18 C14         1.2279   -0.7103   -0.2591 C.ar      1 <0>         0.2493
     19 C15        -0.0129   -0.0277   -0.2569 C.ar      1 <0>        -0.2323
     20 C16        -0.0472    1.3481   -0.5145 C.ar      1 <0>         0.0499
     21 Cl1        -1.5603    2.1990   -0.5226 Cl        1 <0>        -0.0382
     22 C17        -1.1886   -0.7716    0.0097 C.ar      1 <0>         0.5195
     23 N2         -1.0709   -2.0706    0.2439 N.ar      1 <0>        -0.6123
     24 C18         0.1150   -2.6727    0.2326 C.ar      1 <0>         0.6115
     25 N3          1.2405   -2.0282   -0.0098 N.ar      1 <0>        -0.5977
     26 N4          0.1706   -4.0314    0.4852 N.pl3     1 <0>        -0.8140
     27 N5         -2.4236   -0.1598    0.0253 N.pl3     1 <0>        -0.8453
     28 H1         -0.2470    6.9432    3.7544 H         1 <0>         0.0573
     29 H2          1.5280    7.0073    3.8703 H         1 <0>         0.0565
     30 H3          0.5393    8.2667    4.6480 H         1 <0>         0.1017
     31 H4          0.7787    5.7779    2.3515 H         1 <0>         0.1318
     32 H5          1.0678    5.7794   -1.9138 H         1 <0>         0.1335
     33 H6          2.5290   10.1814    1.2177 H         1 <0>         0.0409
     34 H7          2.6460   10.1819   -0.5584 H         1 <0>         0.0410
     35 H8          1.8399   11.5288    0.2808 H         1 <0>         0.0885
     36 H9          1.9994    7.0091   -3.3219 H         1 <0>         0.0564
     37 H10         0.2244    6.9451   -3.4385 H         1 <0>         0.0572
     38 H11         1.1205    8.2689   -4.2212 H         1 <0>         0.1019
     39 H12         0.9367    3.7421    1.0610 H         1 <0>         0.4026
     40 H13         1.9983    3.7906   -1.5557 H         1 <0>         0.0760
     41 H14         0.2233    3.7266   -1.6716 H         1 <0>         0.0753
     42 H15         3.2455    1.8939   -0.9680 H         1 <0>         0.1432
     43 H16         3.3582   -0.5011   -0.5249 H         1 <0>         0.1470
     44 H17         1.0249   -4.4907    0.4816 H         1 <0>         0.4177
     45 H18        -0.6447   -4.5249    0.6658 H         1 <0>         0.4156
     46 H19        -2.6512    0.4909   -0.6571 H         1 <0>         0.4131
     47 H20        -3.0653   -0.3800    0.7186 H         1 <0>         0.4081
@<TRIPOS>BOND
     1    1    2 1
     2    1   28 1
     3    1   29 1
     4    1   30 1
     5    2    3 1
     6    3    8 ar
     7    3    4 ar
     8    4    5 ar
     9    4   31 1
    10    5    6 ar
    11    5   13 1
    12    6    7 ar
    13    6   32 1
    14    7    8 ar
    15    7   11 1
    16    8    9 1
    17    9   10 1
    18   10   33 1
    19   10   34 1
    20   10   35 1
    21   11   12 1
    22   12   36 1
    23   12   37 1
    24   12   38 1
    25   13   14 1
    26   13   39 1
    27   14   15 1
    28   14   40 1
    29   14   41 1
    30   15   20 ar
    31   15   16 ar
    32   16   17 ar
    33   16   42 1
    34   17   18 ar
    35   17   43 1
    36   18   25 ar
    37   18   19 ar
    38   19   20 ar
    39   19   22 ar
    40   20   21 1
    41   22   23 ar
    42   22   27 1
    43   23   24 ar
    44   24   25 ar
    45   24   26 1
    46   26   44 1
    47   26   45 1
    48   27   46 1
    49   27   47 1
@<TRIPOS>MOLECULE
ZINC03814857
   48    50     0     0     0
SMALL
USER_CHARGES

@<TRIPOS>ATOM
      1 C1          0.6195    7.6037    3.7865 C.3       1 <0>         0.0255
      2 O1          0.6696    8.3823    2.5893 O.3       1 <0>        -0.2978
      3 C2          0.7707    7.7036    1.4152 C.ar      1 <0>         0.1948
      4 C3          0.8206    6.3182    1.4173 C.ar      1 <0>        -0.3021
      5 C4          0.9238    5.6252    0.2188 C.ar      1 <0>         0.2807
      6 C5          0.9830    6.3190   -0.9822 C.ar      1 <0>        -0.3068
      7 C6          0.9284    7.7042   -0.9862 C.ar      1 <0>         0.1942
      8 C7          0.8246    8.3986    0.2131 C.ar      1 <0>        -0.0185
      9 O2          0.7753    9.7596    0.2102 O.3       1 <0>        -0.3096
     10 C8          2.0214   10.4541    0.2924 C.3       1 <0>         0.0335
     11 O3          0.9812    8.3835   -2.1631 O.3       1 <0>        -0.2976
     12 C9          1.0877    7.6055   -3.3570 C.3       1 <0>         0.0255
     13 N1          0.9740    4.2270    0.2218 N.pl3     1 <0>        -0.7411
     14 C10         1.0830    3.4953   -1.0427 C.3       1 <0>         0.1572
     15 C11         1.1182    2.0146   -0.7648 C.ar      1 <0>        -0.0997
     16 C12         2.3376    1.3446   -0.7672 C.ar      1 <0>         0.0079
     17 C13         2.4042    0.0052   -0.5200 C.ar      1 <0>        -0.1440
     18 C14         1.2279   -0.7103   -0.2591 C.ar      1 <0>         0.2163
     19 C15        -0.0129   -0.0277   -0.2569 C.ar      1 <0>        -0.1833
     20 C16        -0.0472    1.3481   -0.5145 C.ar      1 <0>         0.0511
     21 Cl1        -1.5603    2.1990   -0.5226 Cl        1 <0>         0.0092
     22 C17        -1.1886   -0.7716    0.0097 C.ar      1 <0>         0.5762
     23 N2         -1.0709   -2.0706    0.2439 N.ar      1 <0>        -0.5673
     24 C18         0.1150   -2.6727    0.2326 C.ar      1 <0>         0.6920
     25 N3          0.1706   -4.0314    0.4852 N.pl3     1 <0>        -0.7810
     26 N4         -2.4236   -0.1598    0.0253 N.pl3     1 <0>        -0.8004
     27 H1         -0.2470    6.9432    3.7544 H         1 <0>         0.0571
     28 H2          1.5280    7.0073    3.8703 H         1 <0>         0.0564
     29 H3          0.5393    8.2667    4.6480 H         1 <0>         0.1048
     30 H4          0.7787    5.7779    2.3515 H         1 <0>         0.1325
     31 H5          1.0678    5.7794   -1.9138 H         1 <0>         0.1330
     32 H6          2.5290   10.1814    1.2177 H         1 <0>         0.0425
     33 H7          2.6460   10.1819   -0.5584 H         1 <0>         0.0425
     34 H8          1.8399   11.5288    0.2808 H         1 <0>         0.0924
     35 H9          1.9994    7.0091   -3.3219 H         1 <0>         0.0559
     36 H10         0.2244    6.9451   -3.4385 H         1 <0>         0.0566
     37 H11         1.1205    8.2689   -4.2212 H         1 <0>         0.1049
     38 H12         0.9367    3.7421    1.0610 H         1 <0>         0.4017
     39 H13         1.9983    3.7906   -1.5557 H         1 <0>         0.0874
     40 H14         0.2233    3.7266   -1.6716 H         1 <0>         0.0853
     41 H15         3.2455    1.8939   -0.9680 H         1 <0>         0.1678
     42 H16         3.3582   -0.5011   -0.5249 H         1 <0>         0.1675
     43 H17         1.0249   -4.4907    0.4816 H         1 <0>         0.4324
     44 H18        -0.6447   -4.5249    0.6658 H         1 <0>         0.4451
     45 H19        -2.6512    0.4909   -0.6571 H         1 <0>         0.4293
     46 H20        -3.0653   -0.3800    0.7186 H         1 <0>         0.4296
     47 N5          1.3022   -2.0639   -0.0096 N.ar      1 <0>        -0.6008
     48 H21         2.1892   -2.5256   -0.0162 H         1 <0>         0.4614
@<TRIPOS>BOND
     1    1    2 1
     2    1   27 1
     3    1   28 1
     4    1   29 1
     5    2    3 1
     6    3    8 ar
     7    3    4 ar
     8    4    5 ar
     9    4   30 1
    10    5    6 ar
    11    5   13 1
    12    6    7 ar
    13    6   31 1
    14    7    8 ar
    15    7   11 1
    16    8    9 1
    17    9   10 1
    18   10   32 1
    19   10   33 1
    20   10   34 1
    21   11   12 1
    22   12   35 1
    23   12   36 1
    24   12   37 1
    25   13   14 1
    26   13   38 1
    27   14   15 1
    28   14   39 1
    29   14   40 1
    30   15   20 ar
    31   15   16 ar
    32   16   17 ar
    33   16   41 1
    34   17   18 ar
    35   17   42 1
    36   18   19 ar
    37   18   47 ar
    38   19   20 ar
    39   19   22 ar
    40   20   21 1
    41   22   23 ar
    42   22   26 1
    43   23   24 ar
    44   24   25 1
    45   24   47 ar
    46   25   43 1
    47   25   44 1
    48   26   45 1
    49   26   46 1
    50   47   48 1
@<TRIPOS>MOLECULE
ZINC03814858
   42    44     0     0     0
SMALL
USER_CHARGES

@<TRIPOS>ATOM
      1 C1         -3.5992    1.8199    0.0294 C.3       1 <0>         0.0287
      2 O1         -2.3905    1.0578    0.0196 O.3       1 <0>        -0.3176
      3 C2         -1.2221    1.7534    0.0173 C.ar      1 <0>         0.1432
      4 C3         -1.2412    3.1403    0.0294 C.ar      1 <0>        -0.2295
      5 C4         -0.0550    3.8507    0.0223 C.ar      1 <0>        -0.1223
      6 C5          1.1559    3.1791    0.0076 C.ar      1 <0>         0.0201
      7 C6          1.1786    1.7864    0.0004 C.ar      1 <0>         0.2368
      8 C7         -0.0126    1.0758    0.0080 C.ar      1 <0>        -0.2022
      9 N1          2.4011    1.1052   -0.0140 N.pl3     1 <0>        -0.7315
     10 C8          2.4234   -0.3596   -0.0211 C.3       1 <0>         0.1832
     11 C9          3.8517   -0.8401   -0.0364 C.ar      1 <0>         0.0864
     12 C10         4.4745   -1.1574    1.1688 C.ar      1 <0>        -0.0999
     13 C11         5.7681   -1.5991    1.1740 C.ar      1 <0>        -0.0845
     14 C12         6.4340   -1.7085   -0.0587 C.ar      1 <0>         0.1982
     15 C13         5.7399   -1.3635   -1.2428 C.ar      1 <0>        -0.0490
     16 N2          4.4795   -0.9441   -1.1843 N.ar      1 <0>        -0.4115
     17 C14         6.4594   -1.4875   -2.5115 C.ar      1 <0>         0.5345
     18 N3          7.7134   -1.9146   -2.4703 N.ar      1 <0>        -0.6299
     19 C15         8.3030   -2.2213   -1.3190 C.ar      1 <0>         0.6229
     20 N4          7.7020   -2.1284   -0.1498 N.ar      1 <0>        -0.6130
     21 N5          9.6142   -2.6609   -1.3498 N.pl3     1 <0>        -0.8143
     22 N6          5.8533   -1.1704   -3.7086 N.pl3     1 <0>        -0.7962
     23 O2          2.3228    3.8793   -0.0002 O.3       1 <0>        -0.3231
     24 C16         2.2242    5.3048    0.0079 C.3       1 <0>         0.0326
     25 H1         -4.4547    1.1444    0.0301 H         1 <0>         0.0989
     26 H2         -3.6281    2.4438    0.9227 H         1 <0>         0.0550
     27 H3         -3.6369    2.4529   -0.8572 H         1 <0>         0.0548
     28 H4         -2.1844    3.6662    0.0404 H         1 <0>         0.1266
     29 H5         -0.0729    4.9305    0.0279 H         1 <0>         0.1294
     30 H6          0.0021   -0.0041    0.0020 H         1 <0>         0.1371
     31 H7          3.2336    1.6030   -0.0193 H         1 <0>         0.4080
     32 H8          1.9234   -0.7349    0.8718 H         1 <0>         0.0799
     33 H9          1.9071   -0.7265   -0.9081 H         1 <0>         0.0791
     34 H10         3.9340   -1.0581    2.0985 H         1 <0>         0.1459
     35 H11         6.2651   -1.8529    2.0987 H         1 <0>         0.1506
     36 H12        10.0798   -2.7388   -2.1971 H         1 <0>         0.4147
     37 H13        10.0680   -2.8914   -0.5240 H         1 <0>         0.4174
     38 H14         4.9347   -0.8591   -3.7197 H         1 <0>         0.4255
     39 H15         6.3455   -1.2588   -4.5398 H         1 <0>         0.4140
     40 H16         1.6951    5.6273    0.9047 H         1 <0>         0.0525
     41 H17         3.2242    5.7383    0.0003 H         1 <0>         0.0966
     42 H18         1.6778    5.6363   -0.8752 H         1 <0>         0.0521
@<TRIPOS>BOND
     1    1    2 1
     2    1   25 1
     3    1   26 1
     4    1   27 1
     5    2    3 1
     6    3    8 ar
     7    3    4 ar
     8    4    5 ar
     9    4   28 1
    10    5    6 ar
    11    5   29 1
    12    6    7 ar
    13    6   23 1
    14    7    8 ar
    15    7    9 1
    16    8   30 1
    17    9   10 1
    18    9   31 1
    19   10   11 1
    20   10   32 1
    21   10   33 1
    22   11   16 ar
    23   11   12 ar
    24   12   13 ar
    25   12   34 1
    26   13   14 ar
    27   13   35 1
    28   14   20 ar
    29   14   15 ar
    30   15   16 ar
    31   15   17 ar
    32   17   18 ar
    33   17   22 1
    34   18   19 ar
    35   19   20 ar
    36   19   21 1
    37   21   36 1
    38   21   37 1
    39   22   38 1
    40   22   39 1
    41   23   24 1
    42   24   40 1
    43   24   41 1
    44   24   42 1
@<TRIPOS>MOLECULE
ZINC03814858
   43    45     0     0     0
SMALL
USER_CHARGES

@<TRIPOS>ATOM
      1 C1         -3.5992    1.8199    0.0294 C.3       1 <0>         0.0268
      2 O1         -2.3905    1.0578    0.0196 O.3       1 <0>        -0.3168
      3 C2         -1.2221    1.7534    0.0173 C.ar      1 <0>         0.1437
      4 C3         -1.2412    3.1403    0.0294 C.ar      1 <0>        -0.2189
      5 C4         -0.0550    3.8507    0.0223 C.ar      1 <0>        -0.1206
      6 C5          1.1559    3.1791    0.0076 C.ar      1 <0>         0.0249
      7 C6          1.1786    1.7864    0.0004 C.ar      1 <0>         0.2262
      8 C7         -0.0126    1.0758    0.0080 C.ar      1 <0>        -0.1977
      9 N1          2.4011    1.1052   -0.0140 N.pl3     1 <0>        -0.7387
     10 C8          2.4234   -0.3596   -0.0211 C.3       1 <0>         0.1724
     11 C9          3.8517   -0.8401   -0.0364 C.ar      1 <0>         0.1337
     12 C10         4.4745   -1.1574    1.1688 C.ar      1 <0>        -0.0642
     13 C11         5.7681   -1.5991    1.1740 C.ar      1 <0>        -0.0951
     14 C12         6.4340   -1.7085   -0.0587 C.ar      1 <0>         0.1454
     15 C13         5.7399   -1.3635   -1.2428 C.ar      1 <0>         0.0273
     16 N2          4.4795   -0.9441   -1.1843 N.ar      1 <0>        -0.3986
     17 C14         6.4594   -1.4875   -2.5115 C.ar      1 <0>         0.5760
     18 N3          7.7134   -1.9146   -2.4703 N.ar      1 <0>        -0.5796
     19 C15         8.3030   -2.2213   -1.3190 C.ar      1 <0>         0.7017
     20 N4          9.6142   -2.6609   -1.3498 N.pl3     1 <0>        -0.7838
     21 N5          5.8533   -1.1704   -3.7086 N.pl3     1 <0>        -0.7348
     22 O2          2.3228    3.8793   -0.0002 O.3       1 <0>        -0.3266
     23 C16         2.2242    5.3048    0.0079 C.3       1 <0>         0.0310
     24 H1         -4.4547    1.1444    0.0301 H         1 <0>         0.1024
     25 H2         -3.6281    2.4438    0.9227 H         1 <0>         0.0573
     26 H3         -3.6369    2.4529   -0.8572 H         1 <0>         0.0571
     27 H4         -2.1844    3.6662    0.0404 H         1 <0>         0.1309
     28 H5         -0.0729    4.9305    0.0279 H         1 <0>         0.1330
     29 H6          0.0021   -0.0041    0.0020 H         1 <0>         0.1368
     30 H7          3.2336    1.6030   -0.0193 H         1 <0>         0.4072
     31 H8          1.9234   -0.7349    0.8718 H         1 <0>         0.0920
     32 H9          1.9071   -0.7265   -0.9081 H         1 <0>         0.0904
     33 H10         3.9340   -1.0581    2.0985 H         1 <0>         0.1720
     34 H11         6.2651   -1.8529    2.0987 H         1 <0>         0.1724
     35 H12        10.0798   -2.7388   -2.1971 H         1 <0>         0.4440
     36 H13        10.0680   -2.8914   -0.5240 H         1 <0>         0.4319
     37 H14         4.9347   -0.8591   -3.7197 H         1 <0>         0.4438
     38 H15         6.3455   -1.2588   -4.5398 H         1 <0>         0.4348
     39 H16         1.6951    5.6273    0.9047 H         1 <0>         0.0552
     40 H17         3.2242    5.7383    0.0003 H         1 <0>         0.0981
     41 H18         1.6778    5.6363   -0.8752 H         1 <0>         0.0547
     42 N6          7.7396   -2.1469   -0.0877 N.ar      1 <0>        -0.6054
     43 H19         8.2061   -2.3849    0.7642 H         1 <0>         0.4578
@<TRIPOS>BOND
     1    1    2 1
     2    1   24 1
     3    1   25 1
     4    1   26 1
     5    2    3 1
     6    3    8 ar
     7    3    4 ar
     8    4    5 ar
     9    4   27 1
    10    5    6 ar
    11    5   28 1
    12    6    7 ar
    13    6   22 1
    14    7    8 ar
    15    7    9 1
    16    8   29 1
    17    9   10 1
    18    9   30 1
    19   10   11 1
    20   10   31 1
    21   10   32 1
    22   11   16 ar
    23   11   12 ar
    24   12   13 ar
    25   12   33 1
    26   13   14 ar
    27   13   34 1
    28   14   15 ar
    29   14   42 ar
    30   15   16 ar
    31   15   17 ar
    32   17   18 ar
    33   17   21 1
    34   18   19 ar
    35   19   20 1
    36   19   42 ar
    37   20   35 1
    38   20   36 1
    39   21   37 1
    40   21   38 1
    41   22   23 1
    42   23   39 1
    43   23   40 1
    44   23   41 1
    45   42   43 1
@<TRIPOS>MOLECULE
ZINC03814859
   37    39     0     0     0
SMALL
USER_CHARGES

@<TRIPOS>ATOM
      1 C1         -0.0001   -0.7297   -1.2707 C.3       1 <0>         0.0896
      2 N1          0.0021   -0.0041    0.0020 N.pl3     1 <0>        -0.6223
      3 C2         -0.0178    1.4608    0.0101 C.3       1 <0>         0.1777
      4 C3          1.3960    1.9824   -0.0006 C.ar      1 <0>         0.0804
      5 C4          1.9869    2.3181   -1.2168 C.ar      1 <0>        -0.1052
      6 C5          3.2669    2.7970   -1.2456 C.ar      1 <0>        -0.0845
      7 C6          3.9521    2.9251   -0.0254 C.ar      1 <0>         0.1943
      8 C7          3.2904    2.5596    1.1711 C.ar      1 <0>        -0.0459
      9 N2          2.0418    2.1040    1.1356 N.ar      1 <0>        -0.4123
     10 C8          4.0294    2.7039    2.4264 C.ar      1 <0>         0.5338
     11 N3          5.2696    3.1671    2.3623 N.ar      1 <0>        -0.6300
     12 C9          5.8286    3.4912    1.2006 C.ar      1 <0>         0.6217
     13 N4          5.2089    3.3814    0.0427 N.ar      1 <0>        -0.6140
     14 N5          7.1268    3.9686    1.2075 N.pl3     1 <0>        -0.8151
     15 N6          3.4550    2.3690    3.6342 N.pl3     1 <0>        -0.7961
     16 C10         0.0231   -0.7092    1.2083 C.ar      1 <0>         0.2207
     17 C11         0.0309   -0.0225    2.4156 C.ar      1 <0>        -0.1700
     18 C12         0.0454   -0.7220    3.6064 C.ar      1 <0>        -0.0669
     19 C13         0.0647   -2.1057    3.5972 C.ar      1 <0>        -0.0906
     20 C14         0.0627   -2.7924    2.3958 C.ar      1 <0>        -0.0653
     21 C15         0.0420   -2.0980    1.2022 C.ar      1 <0>        -0.1852
     22 Cl1         0.0907   -2.9816    5.0958 Cl        1 <0>        -0.0822
     23 H1          1.0269   -0.8956   -1.5960 H         1 <0>         0.0486
     24 H2         -0.4997   -1.6897   -1.1407 H         1 <0>         0.0717
     25 H3         -0.5291   -0.1436   -2.0222 H         1 <0>         0.0711
     26 H4         -0.5450    1.8219   -0.8730 H         1 <0>         0.0963
     27 H5         -0.5280    1.8123    0.9069 H         1 <0>         0.0944
     28 H6          1.4323    2.2035   -2.1365 H         1 <0>         0.1410
     29 H7          3.7391    3.0654   -2.1791 H         1 <0>         0.1479
     30 H8          7.6057    4.0595    2.0461 H         1 <0>         0.4145
     31 H9          7.5584    4.2124    0.3737 H         1 <0>         0.4169
     32 H10         2.5462    2.0311    3.6620 H         1 <0>         0.4243
     33 H11         3.9598    2.4711    4.4562 H         1 <0>         0.4138
     34 H12         0.0212    1.0575    2.4232 H         1 <0>         0.1373
     35 H13         0.0463   -0.1886    4.5454 H         1 <0>         0.1298
     36 H14         0.0770   -3.8723    2.3916 H         1 <0>         0.1299
     37 H15         0.0401   -2.6345    0.2648 H         1 <0>         0.1297
@<TRIPOS>BOND
     1    1    2 1
     2    1   23 1
     3    1   24 1
     4    1   25 1
     5    2    3 1
     6    2   16 1
     7    3    4 1
     8    3   26 1
     9    3   27 1
    10    4    9 ar
    11    4    5 ar
    12    5    6 ar
    13    5   28 1
    14    6    7 ar
    15    6   29 1
    16    7   13 ar
    17    7    8 ar
    18    8    9 ar
    19    8   10 ar
    20   10   11 ar
    21   10   15 1
    22   11   12 ar
    23   12   13 ar
    24   12   14 1
    25   14   30 1
    26   14   31 1
    27   15   32 1
    28   15   33 1
    29   16   21 ar
    30   16   17 ar
    31   17   18 ar
    32   17   34 1
    33   18   19 ar
    34   18   35 1
    35   19   20 ar
    36   19   22 1
    37   20   21 ar
    38   20   36 1
    39   21   37 1
@<TRIPOS>MOLECULE
ZINC03814859
   38    40     0     0     0
SMALL
USER_CHARGES

@<TRIPOS>ATOM
      1 C1         -0.0001   -0.7297   -1.2707 C.3       1 <0>         0.0860
      2 N1          0.0021   -0.0041    0.0020 N.pl3     1 <0>        -0.6248
      3 C2         -0.0178    1.4608    0.0101 C.3       1 <0>         0.1665
      4 C3          1.3960    1.9824   -0.0006 C.ar      1 <0>         0.1263
      5 C4          1.9869    2.3181   -1.2168 C.ar      1 <0>        -0.0707
      6 C5          3.2669    2.7970   -1.2456 C.ar      1 <0>        -0.0951
      7 C6          3.9521    2.9251   -0.0254 C.ar      1 <0>         0.1408
      8 C7          3.2904    2.5596    1.1711 C.ar      1 <0>         0.0302
      9 N2          2.0418    2.1040    1.1356 N.ar      1 <0>        -0.4003
     10 C8          4.0294    2.7039    2.4264 C.ar      1 <0>         0.5755
     11 N3          5.2696    3.1671    2.3623 N.ar      1 <0>        -0.5797
     12 C9          5.8286    3.4912    1.2006 C.ar      1 <0>         0.7011
     13 N4          7.1268    3.9686    1.2075 N.pl3     1 <0>        -0.7845
     14 N5          3.4550    2.3690    3.6342 N.pl3     1 <0>        -0.7351
     15 C10         0.0231   -0.7092    1.2083 C.ar      1 <0>         0.2097
     16 C11         0.0309   -0.0225    2.4156 C.ar      1 <0>        -0.1760
     17 C12         0.0454   -0.7220    3.6064 C.ar      1 <0>        -0.0691
     18 C13         0.0647   -2.1057    3.5972 C.ar      1 <0>        -0.0840
     19 C14         0.0627   -2.7924    2.3958 C.ar      1 <0>        -0.0628
     20 C15         0.0420   -2.0980    1.2022 C.ar      1 <0>        -0.1767
     21 Cl1         0.0907   -2.9816    5.0958 Cl        1 <0>        -0.0706
     22 H1          1.0269   -0.8956   -1.5960 H         1 <0>         0.0491
     23 H2         -0.4997   -1.6897   -1.1407 H         1 <0>         0.0782
     24 H3         -0.5291   -0.1436   -2.0222 H         1 <0>         0.0748
     25 H4         -0.5450    1.8219   -0.8730 H         1 <0>         0.1098
     26 H5         -0.5280    1.8123    0.9069 H         1 <0>         0.1063
     27 H6          1.4323    2.2035   -2.1365 H         1 <0>         0.1671
     28 H7          3.7391    3.0654   -2.1791 H         1 <0>         0.1698
     29 H8          7.6057    4.0595    2.0461 H         1 <0>         0.4439
     30 H9          7.5584    4.2124    0.3737 H         1 <0>         0.4316
     31 H10         2.5462    2.0311    3.6620 H         1 <0>         0.4426
     32 H11         3.9598    2.4711    4.4562 H         1 <0>         0.4347
     33 H12         0.0212    1.0575    2.4232 H         1 <0>         0.1341
     34 H13         0.0463   -0.1886    4.5454 H         1 <0>         0.1325
     35 H14         0.0770   -3.8723    2.3916 H         1 <0>         0.1349
     36 H15         0.0401   -2.6345    0.2648 H         1 <0>         0.1329
     37 N6          5.2448    3.4011   -0.0201 N.ar      1 <0>        -0.6057
     38 H16         5.6885    3.6527   -0.8802 H         1 <0>         0.4570
@<TRIPOS>BOND
     1    1    2 1
     2    1   22 1
     3    1   23 1
     4    1   24 1
     5    2    3 1
     6    2   15 1
     7    3    4 1
     8    3   25 1
     9    3   26 1
    10    4    9 ar
    11    4    5 ar
    12    5    6 ar
    13    5   27 1
    14    6    7 ar
    15    6   28 1
    16    7    8 ar
    17    7   37 ar
    18    8    9 ar
    19    8   10 ar
    20   10   11 ar
    21   10   14 1
    22   11   12 ar
    23   12   13 1
    24   12   37 ar
    25   13   29 1
    26   13   30 1
    27   14   31 1
    28   14   32 1
    29   15   20 ar
    30   15   16 ar
    31   16   17 ar
    32   16   33 1
    33   17   18 ar
    34   17   34 1
    35   18   19 ar
    36   18   21 1
    37   19   20 ar
    38   19   35 1
    39   20   36 1
    40   37   38 1
@<TRIPOS>MOLECULE
ZINC03814860
   37    39     0     0     0
SMALL
USER_CHARGES

@<TRIPOS>ATOM
      1 C1          1.1912    5.9888    0.0205 C.3       1 <0>         0.0907
      2 N1         -0.0679    5.2400    0.0295 N.pl3     1 <0>        -0.6222
      3 C2         -1.3459    5.9560    0.0455 C.3       1 <0>         0.1768
      4 C3         -1.7700    6.1948    1.4717 C.ar      1 <0>         0.0798
      5 C4         -1.4514    7.4064    2.0812 C.ar      1 <0>        -0.1059
      6 C5         -1.8318    7.6426    3.3728 C.ar      1 <0>        -0.0843
      7 C6         -2.5338    6.6311    4.0503 C.ar      1 <0>         0.1945
      8 C7         -2.8180    5.4233    3.3695 C.ar      1 <0>        -0.0456
      9 N2         -2.4256    5.2540    2.1104 N.ar      1 <0>        -0.4117
     10 C8         -3.5504    4.3884    4.1009 C.ar      1 <0>         0.5341
     11 N3         -3.9004    4.6482    5.3526 N.ar      1 <0>        -0.6302
     12 C9         -3.5992    5.8074    5.9294 C.ar      1 <0>         0.6218
     13 N4         -2.9427    6.7724    5.3174 N.ar      1 <0>        -0.6142
     14 N5         -3.9954    6.0114    7.2389 N.pl3     1 <0>        -0.8152
     15 N6         -3.8653    3.1841    3.5081 N.pl3     1 <0>        -0.7953
     16 C10        -0.0499    3.8434    0.0227 C.ar      1 <0>         0.2274
     17 C11         1.1613    3.1629    0.0075 C.ar      1 <0>        -0.1923
     18 C12         1.1763    1.7821    0.0004 C.ar      1 <0>        -0.0633
     19 C13        -0.0126    1.0758    0.0080 C.ar      1 <0>        -0.1691
     20 C14        -1.2211    1.7499    0.0174 C.ar      1 <0>         0.0095
     21 C15        -1.2426    3.1321    0.0307 C.ar      1 <0>        -0.1753
     22 Cl1        -2.7111    0.8592    0.0190 Cl        1 <0>        -0.0752
     23 H1          1.4933    6.1793   -1.0093 H         1 <0>         0.0544
     24 H2          1.0537    6.9370    0.5402 H         1 <0>         0.0685
     25 H3          1.9634    5.4072    0.5240 H         1 <0>         0.0692
     26 H4         -1.2330    6.9124   -0.4650 H         1 <0>         0.0971
     27 H5         -2.1030    5.3595   -0.4636 H         1 <0>         0.0941
     28 H6         -0.9074    8.1606    1.5320 H         1 <0>         0.1410
     29 H7         -1.5963    8.5775    3.8595 H         1 <0>         0.1481
     30 H8         -4.4803    5.3175    7.7126 H         1 <0>         0.4144
     31 H9         -3.7885    6.8483    7.6836 H         1 <0>         0.4168
     32 H10        -3.6008    3.0111    2.5910 H         1 <0>         0.4247
     33 H11        -4.3512    2.5097    4.0081 H         1 <0>         0.4136
     34 H12         2.0905    3.7134    0.0009 H         1 <0>         0.1270
     35 H13         2.1178    1.2530   -0.0114 H         1 <0>         0.1295
     36 H14         0.0021   -0.0041    0.0020 H         1 <0>         0.1277
     37 H15        -2.1858    3.6581    0.0430 H         1 <0>         0.1391
@<TRIPOS>BOND
     1    1    2 1
     2    1   23 1
     3    1   24 1
     4    1   25 1
     5    2    3 1
     6    2   16 1
     7    3    4 1
     8    3   26 1
     9    3   27 1
    10    4    9 ar
    11    4    5 ar
    12    5    6 ar
    13    5   28 1
    14    6    7 ar
    15    6   29 1
    16    7   13 ar
    17    7    8 ar
    18    8    9 ar
    19    8   10 ar
    20   10   11 ar
    21   10   15 1
    22   11   12 ar
    23   12   13 ar
    24   12   14 1
    25   14   30 1
    26   14   31 1
    27   15   32 1
    28   15   33 1
    29   16   21 ar
    30   16   17 ar
    31   17   18 ar
    32   17   34 1
    33   18   19 ar
    34   18   35 1
    35   19   20 ar
    36   19   36 1
    37   20   21 ar
    38   20   22 1
    39   21   37 1
@<TRIPOS>MOLECULE
ZINC03814860
   38    40     0     0     0
SMALL
USER_CHARGES

@<TRIPOS>ATOM
      1 C1          1.1912    5.9888    0.0205 C.3       1 <0>         0.0873
      2 N1         -0.0679    5.2400    0.0295 N.pl3     1 <0>        -0.6249
      3 C2         -1.3459    5.9560    0.0455 C.3       1 <0>         0.1656
      4 C3         -1.7700    6.1948    1.4717 C.ar      1 <0>         0.1259
      5 C4         -1.4514    7.4064    2.0812 C.ar      1 <0>        -0.0715
      6 C5         -1.8318    7.6426    3.3728 C.ar      1 <0>        -0.0947
      7 C6         -2.5338    6.6311    4.0503 C.ar      1 <0>         0.1411
      8 C7         -2.8180    5.4233    3.3695 C.ar      1 <0>         0.0305
      9 N2         -2.4256    5.2540    2.1104 N.ar      1 <0>        -0.4000
     10 C8         -3.5504    4.3884    4.1009 C.ar      1 <0>         0.5752
     11 N3         -3.9004    4.6482    5.3526 N.ar      1 <0>        -0.5795
     12 C9         -3.5992    5.8074    5.9294 C.ar      1 <0>         0.7011
     13 N4         -3.9954    6.0114    7.2389 N.pl3     1 <0>        -0.7847
     14 N5         -3.8653    3.1841    3.5081 N.pl3     1 <0>        -0.7343
     15 C10        -0.0499    3.8434    0.0227 C.ar      1 <0>         0.2175
     16 C11         1.1613    3.1629    0.0075 C.ar      1 <0>        -0.1842
     17 C12         1.1763    1.7821    0.0004 C.ar      1 <0>        -0.0596
     18 C13        -0.0126    1.0758    0.0080 C.ar      1 <0>        -0.1593
     19 C14        -1.2211    1.7499    0.0174 C.ar      1 <0>         0.0060
     20 C15        -1.2426    3.1321    0.0307 C.ar      1 <0>        -0.1817
     21 Cl1        -2.7111    0.8592    0.0190 Cl        1 <0>        -0.0702
     22 H1          1.4933    6.1793   -1.0093 H         1 <0>         0.0614
     23 H2          1.0537    6.9370    0.5402 H         1 <0>         0.0676
     24 H3          1.9634    5.4072    0.5240 H         1 <0>         0.0739
     25 H4         -1.2330    6.9124   -0.4650 H         1 <0>         0.1107
     26 H5         -2.1030    5.3595   -0.4636 H         1 <0>         0.1062
     27 H6         -0.9074    8.1606    1.5320 H         1 <0>         0.1672
     28 H7         -1.5963    8.5775    3.8595 H         1 <0>         0.1700
     29 H8         -4.4803    5.3175    7.7126 H         1 <0>         0.4438
     30 H9         -3.7885    6.8483    7.6836 H         1 <0>         0.4315
     31 H10        -3.6008    3.0111    2.5910 H         1 <0>         0.4425
     32 H11        -4.3512    2.5097    4.0081 H         1 <0>         0.4347
     33 H12         2.0905    3.7134    0.0009 H         1 <0>         0.1304
     34 H13         2.1178    1.2530   -0.0114 H         1 <0>         0.1347
     35 H14         0.0021   -0.0041    0.0020 H         1 <0>         0.1326
     36 H15        -2.1858    3.6581    0.0430 H         1 <0>         0.1359
     37 N6         -2.9282    6.8360    5.3543 N.ar      1 <0>        -0.6058
     38 H16        -2.7148    7.6994    5.8114 H         1 <0>         0.4570
@<TRIPOS>BOND
     1    1    2 1
     2    1   22 1
     3    1   23 1
     4    1   24 1
     5    2    3 1
     6    2   15 1
     7    3    4 1
     8    3   25 1
     9    3   26 1
    10    4    9 ar
    11    4    5 ar
    12    5    6 ar
    13    5   27 1
    14    6    7 ar
    15    6   28 1
    16    7    8 ar
    17    7   37 ar
    18    8    9 ar
    19    8   10 ar
    20   10   11 ar
    21   10   14 1
    22   11   12 ar
    23   12   13 1
    24   12   37 ar
    25   13   29 1
    26   13   30 1
    27   14   31 1
    28   14   32 1
    29   15   20 ar
    30   15   16 ar
    31   16   17 ar
    32   16   33 1
    33   17   18 ar
    34   17   34 1
    35   18   19 ar
    36   18   35 1
    37   19   20 ar
    38   19   21 1
    39   20   36 1
    40   37   38 1
@<TRIPOS>MOLECULE
ZINC03814861
   41    44     0     0     0
SMALL
USER_CHARGES

@<TRIPOS>ATOM
      1 C1          2.2865    5.2702    0.0076 C.ar      1 <0>        -0.1157
      2 C2          1.0643    5.9401    0.0230 C.ar      1 <0>        -0.1119
      3 C3         -0.1108    5.2538    0.0306 C.ar      1 <0>        -0.1079
      4 C4         -0.0954    3.8484    0.0237 C.ar      1 <0>        -0.0369
      5 C5          1.1475    3.1672    0.0081 C.ar      1 <0>        -0.0552
      6 C6          2.3404    3.9104    0.0001 C.ar      1 <0>        -0.1052
      7 C7          1.1629    1.7623    0.0004 C.ar      1 <0>        -0.0959
      8 C8         -0.0126    1.0758    0.0080 C.ar      1 <0>        -0.1201
      9 C9         -1.2344    1.7455    0.0174 C.ar      1 <0>        -0.0914
     10 C10        -1.2880    3.1056    0.0315 C.ar      1 <0>        -0.0977
     11 C11        -2.6196    3.8110    0.0475 C.3       1 <0>         0.1672
     12 N1         -2.9518    4.2579   -1.3075 N.pl3     1 <0>        -0.7446
     13 C12        -4.1485    4.9420   -1.5446 C.ar      1 <0>         0.1853
     14 C13        -5.0258    5.1910   -0.4851 C.ar      1 <0>        -0.1200
     15 C14        -6.1951    5.8599   -0.6864 C.ar      1 <0>        -0.0815
     16 C15        -6.5355    6.2978   -1.9736 C.ar      1 <0>         0.1895
     17 C16        -5.6543    6.0439   -3.0524 C.ar      1 <0>        -0.1856
     18 C17        -4.4554    5.3603   -2.8234 C.ar      1 <0>        -0.1514
     19 C18        -6.0237    6.4973   -4.3435 C.ar      1 <0>         0.5000
     20 N2         -7.1758    7.1370   -4.4792 N.ar      1 <0>        -0.6297
     21 C19        -7.9748    7.3548   -3.4383 C.ar      1 <0>         0.5980
     22 N3         -7.6802    6.9554   -2.2165 N.ar      1 <0>        -0.6023
     23 N4         -9.1653    8.0294   -3.6462 N.pl3     1 <0>        -0.8249
     24 N5         -5.2043    6.2784   -5.4309 N.pl3     1 <0>        -0.8225
     25 H1          3.2046    5.8389    0.0011 H         1 <0>         0.1239
     26 H2          1.0496    7.0200    0.0286 H         1 <0>         0.1235
     27 H3         -1.0504    5.7863    0.0418 H         1 <0>         0.1289
     28 H4          3.2947    3.4051   -0.0122 H         1 <0>         0.1278
     29 H5          2.1024    1.2298   -0.0118 H         1 <0>         0.1286
     30 H6          0.0021   -0.0041    0.0020 H         1 <0>         0.1262
     31 H7         -2.1526    1.1769    0.0184 H         1 <0>         0.1257
     32 H8         -3.3894    3.1261    0.4031 H         1 <0>         0.0701
     33 H9         -2.5659    4.6736    0.7117 H         1 <0>         0.0699
     34 H10        -2.3418    4.0795   -2.0403 H         1 <0>         0.4006
     35 H11        -4.7708    4.8517    0.5080 H         1 <0>         0.1299
     36 H12        -6.8605    6.0486    0.1431 H         1 <0>         0.1380
     37 H13        -3.7766    5.1614   -3.6396 H         1 <0>         0.1198
     38 H14        -9.4019    8.3324   -4.5368 H         1 <0>         0.4107
     39 H15        -9.7631    8.1990   -2.9014 H         1 <0>         0.4138
     40 H16        -4.3631    5.8089   -5.3176 H         1 <0>         0.4127
     41 H17        -5.4691    6.5940   -6.3091 H         1 <0>         0.4103
@<TRIPOS>BOND
     1    1    6 ar
     2    1    2 ar
     3    1   25 1
     4    2    3 ar
     5    2   26 1
     6    3    4 ar
     7    3   27 1
     8    4   10 ar
     9    4    5 ar
    10    5    6 ar
    11    5    7 ar
    12    6   28 1
    13    7    8 ar
    14    7   29 1
    15    8    9 ar
    16    8   30 1
    17    9   10 ar
    18    9   31 1
    19   10   11 1
    20   11   12 1
    21   11   32 1
    22   11   33 1
    23   12   13 1
    24   12   34 1
    25   13   18 ar
    26   13   14 ar
    27   14   15 ar
    28   14   35 1
    29   15   16 ar
    30   15   36 1
    31   16   22 ar
    32   16   17 ar
    33   17   18 ar
    34   17   19 ar
    35   18   37 1
    36   19   20 ar
    37   19   24 1
    38   20   21 ar
    39   21   22 ar
    40   21   23 1
    41   23   38 1
    42   23   39 1
    43   24   40 1
    44   24   41 1
@<TRIPOS>MOLECULE
ZINC03814861
   42    45     0     0     0
SMALL
USER_CHARGES

@<TRIPOS>ATOM
      1 C1          2.2865    5.2702    0.0076 C.ar      1 <0>        -0.1166
      2 C2          1.0643    5.9401    0.0230 C.ar      1 <0>        -0.1038
      3 C3         -0.1108    5.2538    0.0306 C.ar      1 <0>        -0.1189
      4 C4         -0.0954    3.8484    0.0237 C.ar      1 <0>        -0.0348
      5 C5          1.1475    3.1672    0.0081 C.ar      1 <0>        -0.0566
      6 C6          2.3404    3.9104    0.0001 C.ar      1 <0>        -0.0981
      7 C7          1.1629    1.7623    0.0004 C.ar      1 <0>        -0.0842
      8 C8         -0.0126    1.0758    0.0080 C.ar      1 <0>        -0.1245
      9 C9         -1.2344    1.7455    0.0174 C.ar      1 <0>        -0.0814
     10 C10        -1.2880    3.1056    0.0315 C.ar      1 <0>        -0.1146
     11 C11        -2.6196    3.8110    0.0475 C.3       1 <0>         0.1601
     12 N1         -2.9518    4.2579   -1.3075 N.pl3     1 <0>        -0.7251
     13 C12        -4.1485    4.9420   -1.5446 C.ar      1 <0>         0.2251
     14 C13        -5.0258    5.1910   -0.4851 C.ar      1 <0>        -0.0979
     15 C14        -6.1951    5.8599   -0.6864 C.ar      1 <0>        -0.0939
     16 C15        -6.5355    6.2978   -1.9736 C.ar      1 <0>         0.1291
     17 C16        -5.6543    6.0439   -3.0524 C.ar      1 <0>        -0.1277
     18 C17        -4.4554    5.3603   -2.8234 C.ar      1 <0>        -0.1395
     19 C18        -6.0237    6.4973   -4.3435 C.ar      1 <0>         0.5588
     20 N2         -7.1758    7.1370   -4.4792 N.ar      1 <0>        -0.5877
     21 C19        -7.9748    7.3548   -3.4383 C.ar      1 <0>         0.6899
     22 N3         -9.1653    8.0294   -3.6462 N.pl3     1 <0>        -0.7946
     23 N4         -5.2043    6.2784   -5.4309 N.pl3     1 <0>        -0.7678
     24 H1          3.2046    5.8389    0.0011 H         1 <0>         0.1273
     25 H2          1.0496    7.0200    0.0286 H         1 <0>         0.1245
     26 H3         -1.0504    5.7863    0.0418 H         1 <0>         0.1241
     27 H4          3.2947    3.4051   -0.0122 H         1 <0>         0.1314
     28 H5          2.1024    1.2298   -0.0118 H         1 <0>         0.1325
     29 H6          0.0021   -0.0041    0.0020 H         1 <0>         0.1296
     30 H7         -2.1526    1.1769    0.0184 H         1 <0>         0.1262
     31 H8         -3.3894    3.1261    0.4031 H         1 <0>         0.0795
     32 H9         -2.5659    4.6736    0.7117 H         1 <0>         0.0794
     33 H10        -2.3418    4.0795   -2.0403 H         1 <0>         0.4108
     34 H11        -4.7708    4.8517    0.5080 H         1 <0>         0.1512
     35 H12        -6.8605    6.0486    0.1431 H         1 <0>         0.1552
     36 H13        -3.7766    5.1614   -3.6396 H         1 <0>         0.1452
     37 H14        -9.4019    8.3324   -4.5368 H         1 <0>         0.4405
     38 H15        -9.7631    8.1990   -2.9014 H         1 <0>         0.4290
     39 H16        -4.3631    5.8089   -5.3176 H         1 <0>         0.4311
     40 H17        -5.4691    6.5940   -6.3091 H         1 <0>         0.4311
     41 N5         -7.7257    6.9690   -2.1630 N.ar      1 <0>        -0.5985
     42 H18        -8.3332    7.1384   -1.3870 H         1 <0>         0.4545
@<TRIPOS>BOND
     1    1    6 ar
     2    1    2 ar
     3    1   24 1
     4    2    3 ar
     5    2   25 1
     6    3    4 ar
     7    3   26 1
     8    4   10 ar
     9    4    5 ar
    10    5    6 ar
    11    5    7 ar
    12    6   27 1
    13    7    8 ar
    14    7   28 1
    15    8    9 ar
    16    8   29 1
    17    9   10 ar
    18    9   30 1
    19   10   11 1
    20   11   12 1
    21   11   31 1
    22   11   32 1
    23   12   13 1
    24   12   33 1
    25   13   18 ar
    26   13   14 ar
    27   14   15 ar
    28   14   34 1
    29   15   16 ar
    30   15   35 1
    31   16   17 ar
    32   16   41 ar
    33   17   18 ar
    34   17   19 ar
    35   18   36 1
    36   19   20 ar
    37   19   23 1
    38   20   21 ar
    39   21   22 1
    40   21   41 ar
    41   22   37 1
    42   22   38 1
    43   23   39 1
    44   23   40 1
    45   41   42 1
@<TRIPOS>MOLECULE
ZINC03814862
   46    48     0     0     0
SMALL
USER_CHARGES

@<TRIPOS>ATOM
      1 C1         -0.3229    2.8403    1.8148 C.3       1 <0>         0.1028
      2 N1         -0.6984    1.5583    1.2133 N.pl3     1 <0>        -0.6223
      3 C2         -0.0127    1.0858    0.0080 C.3       1 <0>         0.1738
      4 C3         -0.7416    1.5850   -1.2129 C.ar      1 <0>        -0.1012
      5 C4         -1.6041    0.7473   -1.8931 C.ar      1 <0>        -0.1003
      6 C5         -2.2752    1.2068   -3.0164 C.ar      1 <0>         0.0943
      7 C6         -2.0804    2.5077   -3.4568 C.ar      1 <0>        -0.1660
      8 C7         -1.2178    3.3451   -2.7771 C.ar      1 <0>        -0.1693
      9 C8         -0.5509    2.8871   -1.6502 C.ar      1 <0>         0.1072
     10 O1          0.2939    3.7135   -0.9774 O.3       1 <0>        -0.3124
     11 C9          0.4425    5.0415   -1.4837 C.3       1 <0>         0.0271
     12 O2         -3.1246    0.3823   -3.6857 O.3       1 <0>        -0.3160
     13 C10        -3.7821    0.9219   -4.8340 C.3       1 <0>         0.0276
     14 C11        -1.7116    0.7854    1.7899 C.ar      1 <0>         0.1881
     15 C12        -2.0688   -0.4342    1.2077 C.ar      1 <0>        -0.1185
     16 C13        -3.0478   -1.2098    1.7513 C.ar      1 <0>        -0.0818
     17 C14        -3.7186   -0.7796    2.9044 C.ar      1 <0>         0.1894
     18 C15        -3.3659    0.4574    3.4960 C.ar      1 <0>        -0.1852
     19 C16        -2.3535    1.2362    2.9252 C.ar      1 <0>        -0.1557
     20 C17        -4.0609    0.8681    4.6609 C.ar      1 <0>         0.4991
     21 N2         -5.0073    0.0751    5.1407 N.ar      1 <0>        -0.6298
     22 C18        -5.3075   -1.0801    4.5535 C.ar      1 <0>         0.5964
     23 N3         -4.6928   -1.5104    3.4690 N.ar      1 <0>        -0.6014
     24 N4         -6.3067   -1.8637    5.1041 N.pl3     1 <0>        -0.8257
     25 N5         -3.7592    2.0632    5.2797 N.pl3     1 <0>        -0.8234
     26 H1         -0.9270    3.6365    1.3798 H         1 <0>         0.0455
     27 H2         -0.4939    2.8009    2.8905 H         1 <0>         0.0611
     28 H3          0.7315    3.0373    1.6214 H         1 <0>         0.0694
     29 H4          0.0021   -0.0041    0.0020 H         1 <0>         0.0848
     30 H5          1.0099    1.4631    0.0003 H         1 <0>         0.0905
     31 H6         -1.7561   -0.2654   -1.5500 H         1 <0>         0.1375
     32 H7         -2.6030    2.8656   -4.3316 H         1 <0>         0.1303
     33 H8         -1.0658    4.3577   -3.1202 H         1 <0>         0.1305
     34 H9          0.8236    5.0008   -2.5041 H         1 <0>         0.0540
     35 H10        -0.5252    5.5433   -1.4770 H         1 <0>         0.0532
     36 H11         1.1423    5.5934   -0.8562 H         1 <0>         0.1002
     37 H12        -3.0372    1.2325   -5.5667 H         1 <0>         0.0545
     38 H13        -4.4287    0.1621   -5.2729 H         1 <0>         0.1013
     39 H14        -4.3818    1.7827   -4.5382 H         1 <0>         0.0540
     40 H15        -1.5584   -0.7684    0.3165 H         1 <0>         0.1305
     41 H16        -3.3095   -2.1518    1.2925 H         1 <0>         0.1379
     42 H17        -2.0772    2.1814    3.3687 H         1 <0>         0.1222
     43 H18        -6.7718   -1.5667    5.9018 H         1 <0>         0.4102
     44 H19        -6.5420   -2.7098    4.6923 H         1 <0>         0.4134
     45 H20        -3.0636    2.6344    4.9182 H         1 <0>         0.4120
     46 H21        -4.2425    2.3324    6.0764 H         1 <0>         0.4099
@<TRIPOS>BOND
     1    1    2 1
     2    1   26 1
     3    1   27 1
     4    1   28 1
     5    2    3 1
     6    2   14 1
     7    3    4 1
     8    3   29 1
     9    3   30 1
    10    4    9 ar
    11    4    5 ar
    12    5    6 ar
    13    5   31 1
    14    6    7 ar
    15    6   12 1
    16    7    8 ar
    17    7   32 1
    18    8    9 ar
    19    8   33 1
    20    9   10 1
    21   10   11 1
    22   11   34 1
    23   11   35 1
    24   11   36 1
    25   12   13 1
    26   13   37 1
    27   13   38 1
    28   13   39 1
    29   14   19 ar
    30   14   15 ar
    31   15   16 ar
    32   15   40 1
    33   16   17 ar
    34   16   41 1
    35   17   23 ar
    36   17   18 ar
    37   18   19 ar
    38   18   20 ar
    39   19   42 1
    40   20   21 ar
    41   20   25 1
    42   21   22 ar
    43   22   23 ar
    44   22   24 1
    45   24   43 1
    46   24   44 1
    47   25   45 1
    48   25   46 1
@<TRIPOS>MOLECULE
ZINC03814862
   47    49     0     0     0
SMALL
USER_CHARGES

@<TRIPOS>ATOM
      1 C1         -0.3229    2.8403    1.8148 C.3       1 <0>         0.0888
      2 N1         -0.6984    1.5583    1.2133 N.pl3     1 <0>        -0.6041
      3 C2         -0.0127    1.0858    0.0080 C.3       1 <0>         0.1663
      4 C3         -0.7416    1.5850   -1.2129 C.ar      1 <0>        -0.1131
      5 C4         -1.6041    0.7473   -1.8931 C.ar      1 <0>        -0.1047
      6 C5         -2.2752    1.2068   -3.0164 C.ar      1 <0>         0.0959
      7 C6         -2.0804    2.5077   -3.4568 C.ar      1 <0>        -0.1585
      8 C7         -1.2178    3.3451   -2.7771 C.ar      1 <0>        -0.1648
      9 C8         -0.5509    2.8871   -1.6502 C.ar      1 <0>         0.1107
     10 O1          0.2939    3.7135   -0.9774 O.3       1 <0>        -0.3151
     11 C9          0.4425    5.0415   -1.4837 C.3       1 <0>         0.0252
     12 O2         -3.1246    0.3823   -3.6857 O.3       1 <0>        -0.3173
     13 C10        -3.7821    0.9219   -4.8340 C.3       1 <0>         0.0257
     14 C11        -1.7116    0.7854    1.7899 C.ar      1 <0>         0.2273
     15 C12        -2.0688   -0.4342    1.2077 C.ar      1 <0>        -0.0968
     16 C13        -3.0478   -1.2098    1.7513 C.ar      1 <0>        -0.0948
     17 C14        -3.7186   -0.7796    2.9044 C.ar      1 <0>         0.1279
     18 C15        -3.3659    0.4574    3.4960 C.ar      1 <0>        -0.1270
     19 C16        -2.3535    1.2362    2.9252 C.ar      1 <0>        -0.1459
     20 C17        -4.0609    0.8681    4.6609 C.ar      1 <0>         0.5585
     21 N2         -5.0073    0.0751    5.1407 N.ar      1 <0>        -0.5878
     22 C18        -5.3075   -1.0801    4.5535 C.ar      1 <0>         0.6887
     23 N3         -6.3067   -1.8637    5.1041 N.pl3     1 <0>        -0.7956
     24 N4         -3.7592    2.0632    5.2797 N.pl3     1 <0>        -0.7693
     25 H1         -0.9270    3.6365    1.3798 H         1 <0>         0.0597
     26 H2         -0.4939    2.8009    2.8905 H         1 <0>         0.0661
     27 H3          0.7315    3.0373    1.6214 H         1 <0>         0.0837
     28 H4          0.0021   -0.0041    0.0020 H         1 <0>         0.0898
     29 H5          1.0099    1.4631    0.0003 H         1 <0>         0.1027
     30 H6         -1.7561   -0.2654   -1.5500 H         1 <0>         0.1348
     31 H7         -2.6030    2.8656   -4.3316 H         1 <0>         0.1344
     32 H8         -1.0658    4.3577   -3.1202 H         1 <0>         0.1348
     33 H9          0.8236    5.0008   -2.5041 H         1 <0>         0.0579
     34 H10        -0.5252    5.5433   -1.4770 H         1 <0>         0.0554
     35 H11         1.1423    5.5934   -0.8562 H         1 <0>         0.1039
     36 H12        -3.0372    1.2325   -5.5667 H         1 <0>         0.0579
     37 H13        -4.4287    0.1621   -5.2729 H         1 <0>         0.1042
     38 H14        -4.3818    1.7827   -4.5382 H         1 <0>         0.0557
     39 H15        -1.5584   -0.7684    0.3165 H         1 <0>         0.1510
     40 H16        -3.3095   -2.1518    1.2925 H         1 <0>         0.1551
     41 H17        -2.0772    2.1814    3.3687 H         1 <0>         0.1464
     42 H18        -6.7718   -1.5667    5.9018 H         1 <0>         0.4401
     43 H19        -6.5420   -2.7098    4.6923 H         1 <0>         0.4287
     44 H20        -3.0636    2.6344    4.9182 H         1 <0>         0.4303
     45 H21        -4.2425    2.3324    6.0764 H         1 <0>         0.4306
     46 N5         -4.7117   -1.5731    3.4403 N.ar      1 <0>        -0.5973
     47 H22        -4.9446   -2.4437    3.0068 H         1 <0>         0.4542
@<TRIPOS>BOND
     1    1    2 1
     2    1   25 1
     3    1   26 1
     4    1   27 1
     5    2    3 1
     6    2   14 1
     7    3    4 1
     8    3   28 1
     9    3   29 1
    10    4    9 ar
    11    4    5 ar
    12    5    6 ar
    13    5   30 1
    14    6    7 ar
    15    6   12 1
    16    7    8 ar
    17    7   31 1
    18    8    9 ar
    19    8   32 1
    20    9   10 1
    21   10   11 1
    22   11   33 1
    23   11   34 1
    24   11   35 1
    25   12   13 1
    26   13   36 1
    27   13   37 1
    28   13   38 1
    29   14   19 ar
    30   14   15 ar
    31   15   16 ar
    32   15   39 1
    33   16   17 ar
    34   16   40 1
    35   17   18 ar
    36   17   46 ar
    37   18   19 ar
    38   18   20 ar
    39   19   41 1
    40   20   21 ar
    41   20   24 1
    42   21   22 ar
    43   22   23 1
    44   22   46 ar
    45   23   42 1
    46   23   43 1
    47   24   44 1
    48   24   45 1
    49   46   47 1
@<TRIPOS>MOLECULE
ZINC03814863
   46    48     0     0     0
SMALL
USER_CHARGES

@<TRIPOS>ATOM
      1 C1          2.2877    5.3398    0.0457 C.3       1 <0>         0.0930
      2 N1          0.9723    5.9847    0.0550 N.pl3     1 <0>        -0.6257
      3 C2          0.8732    7.4462    0.0698 C.3       1 <0>         0.1637
      4 C3          0.8422    7.9332    1.4956 C.ar      1 <0>        -0.0326
      5 C4         -0.3668    8.0804    2.1481 C.ar      1 <0>        -0.1746
      6 C5         -0.3976    8.5233    3.4629 C.ar      1 <0>         0.1681
      7 C6          0.7853    8.8284    4.1182 C.ar      1 <0>        -0.2958
      8 C7          1.9968    8.6853    3.4595 C.ar      1 <0>         0.1656
      9 C8          2.0226    8.2371    2.1464 C.ar      1 <0>        -0.1753
     10 O1          3.1581    8.9832    4.0994 O.3       1 <0>        -0.3138
     11 C9          3.0562    9.4390    5.4499 C.3       1 <0>         0.0264
     12 O2         -1.5867    8.6621    4.1061 O.3       1 <0>        -0.3116
     13 C10        -1.5433    9.1274    5.4565 C.3       1 <0>         0.0263
     14 C11        -0.1889    5.2050    0.0497 C.ar      1 <0>         0.1862
     15 C12        -1.4408    5.8268    0.0581 C.ar      1 <0>        -0.1187
     16 C13        -2.5878    5.0922    0.0414 C.ar      1 <0>        -0.0818
     17 C14        -2.5193    3.6922    0.0335 C.ar      1 <0>         0.1912
     18 C15        -1.2546    3.0558    0.0305 C.ar      1 <0>        -0.1864
     19 C16        -0.0884    3.8288    0.0357 C.ar      1 <0>        -0.1530
     20 C17        -1.2147    1.6391    0.0167 C.ar      1 <0>         0.4998
     21 N2         -2.3626    0.9779    0.0186 N.ar      1 <0>        -0.6298
     22 C18        -3.5300    1.6154    0.0275 C.ar      1 <0>         0.5974
     23 N3         -3.6248    2.9308    0.0346 N.ar      1 <0>        -0.6016
     24 N4         -4.6941    0.8669    0.0290 N.pl3     1 <0>        -0.8253
     25 N5         -0.0111    0.9658    0.0074 N.pl3     1 <0>        -0.8231
     26 H1          2.6117    5.1901   -0.9842 H         1 <0>         0.0510
     27 H2          3.0069    5.9737    0.5644 H         1 <0>         0.0681
     28 H3          2.2232    4.3756    0.5501 H         1 <0>         0.0657
     29 H4          1.7354    7.8741   -0.4416 H         1 <0>         0.0909
     30 H5         -0.0404    7.7536   -0.4390 H         1 <0>         0.0901
     31 H6         -1.2884    7.8464    1.6358 H         1 <0>         0.1337
     32 H7          0.7632    9.1767    5.1403 H         1 <0>         0.1339
     33 H8          2.9661    8.1254    1.6329 H         1 <0>         0.1305
     34 H9          2.4620   10.3522    5.4813 H         1 <0>         0.0557
     35 H10         2.5758    8.6718    6.0571 H         1 <0>         0.0551
     36 H11         4.0533    9.6407    5.8415 H         1 <0>         0.1031
     37 H12        -0.9624    8.4317    6.0620 H         1 <0>         0.0548
     38 H13        -1.0772   10.1122    5.4868 H         1 <0>         0.0555
     39 H14        -2.5574    9.1930    5.8509 H         1 <0>         0.1035
     40 H15        -1.4995    6.9051    0.0683 H         1 <0>         0.1323
     41 H16        -3.5477    5.5871    0.0479 H         1 <0>         0.1383
     42 H17         0.8811    3.3529    0.0292 H         1 <0>         0.1229
     43 H18        -4.6477   -0.1020    0.0235 H         1 <0>         0.4105
     44 H19        -5.5564    1.3111    0.0354 H         1 <0>         0.4136
     45 H20         0.0021   -0.0041    0.0020 H         1 <0>         0.4102
     46 H21         0.8223    1.4622    0.0021 H         1 <0>         0.4121
@<TRIPOS>BOND
     1    1    2 1
     2    1   26 1
     3    1   27 1
     4    1   28 1
     5    2    3 1
     6    2   14 1
     7    3    4 1
     8    3   29 1
     9    3   30 1
    10    4    9 ar
    11    4    5 ar
    12    5    6 ar
    13    5   31 1
    14    6    7 ar
    15    6   12 1
    16    7    8 ar
    17    7   32 1
    18    8    9 ar
    19    8   10 1
    20    9   33 1
    21   10   11 1
    22   11   34 1
    23   11   35 1
    24   11   36 1
    25   12   13 1
    26   13   37 1
    27   13   38 1
    28   13   39 1
    29   14   19 ar
    30   14   15 ar
    31   15   16 ar
    32   15   40 1
    33   16   17 ar
    34   16   41 1
    35   17   23 ar
    36   17   18 ar
    37   18   19 ar
    38   18   20 ar
    39   19   42 1
    40   20   21 ar
    41   20   25 1
    42   21   22 ar
    43   22   23 ar
    44   22   24 1
    45   24   43 1
    46   24   44 1
    47   25   45 1
    48   25   46 1
@<TRIPOS>MOLECULE
ZINC03814863
   47    49     0     0     0
SMALL
USER_CHARGES

@<TRIPOS>ATOM
      1 C1          2.2877    5.3398    0.0457 C.3       1 <0>         0.0798
      2 N1          0.9723    5.9847    0.0550 N.pl3     1 <0>        -0.6085
      3 C2          0.8732    7.4462    0.0698 C.3       1 <0>         0.1561
      4 C3          0.8422    7.9332    1.4956 C.ar      1 <0>        -0.0419
      5 C4         -0.3668    8.0804    2.1481 C.ar      1 <0>        -0.1816
      6 C5         -0.3976    8.5233    3.4629 C.ar      1 <0>         0.1710
      7 C6          0.7853    8.8284    4.1182 C.ar      1 <0>        -0.2920
      8 C7          1.9968    8.6853    3.4595 C.ar      1 <0>         0.1731
      9 C8          2.0226    8.2371    2.1464 C.ar      1 <0>        -0.1737
     10 O1          3.1581    8.9832    4.0994 O.3       1 <0>        -0.3110
     11 C9          3.0562    9.4390    5.4499 C.3       1 <0>         0.0245
     12 O2         -1.5867    8.6621    4.1061 O.3       1 <0>        -0.3135
     13 C10        -1.5433    9.1274    5.4565 C.3       1 <0>         0.0244
     14 C11        -0.1889    5.2050    0.0497 C.ar      1 <0>         0.2262
     15 C12        -1.4408    5.8268    0.0581 C.ar      1 <0>        -0.0965
     16 C13        -2.5878    5.0922    0.0414 C.ar      1 <0>        -0.0952
     17 C14        -2.5193    3.6922    0.0335 C.ar      1 <0>         0.1307
     18 C15        -1.2546    3.0558    0.0305 C.ar      1 <0>        -0.1281
     19 C16        -0.0884    3.8288    0.0357 C.ar      1 <0>        -0.1435
     20 C17        -1.2147    1.6391    0.0167 C.ar      1 <0>         0.5587
     21 N2         -2.3626    0.9779    0.0186 N.ar      1 <0>        -0.5876
     22 C18        -3.5300    1.6154    0.0275 C.ar      1 <0>         0.6893
     23 N3         -4.6941    0.8669    0.0290 N.pl3     1 <0>        -0.7951
     24 N4         -0.0111    0.9658    0.0074 N.pl3     1 <0>        -0.7688
     25 H1          2.6117    5.1901   -0.9842 H         1 <0>         0.0651
     26 H2          3.0069    5.9737    0.5644 H         1 <0>         0.0822
     27 H3          2.2232    4.3756    0.5501 H         1 <0>         0.0703
     28 H4          1.7354    7.8741   -0.4416 H         1 <0>         0.1034
     29 H5         -0.0404    7.7536   -0.4390 H         1 <0>         0.0948
     30 H6         -1.2884    7.8464    1.6358 H         1 <0>         0.1293
     31 H7          0.7632    9.1767    5.1403 H         1 <0>         0.1376
     32 H8          2.9661    8.1254    1.6329 H         1 <0>         0.1334
     33 H9          2.4620   10.3522    5.4813 H         1 <0>         0.0584
     34 H10         2.5758    8.6718    6.0571 H         1 <0>         0.0567
     35 H11         4.0533    9.6407    5.8415 H         1 <0>         0.1074
     36 H12        -0.9624    8.4317    6.0620 H         1 <0>         0.0567
     37 H13        -1.0772   10.1122    5.4868 H         1 <0>         0.0590
     38 H14        -2.5574    9.1930    5.8509 H         1 <0>         0.1062
     39 H15        -1.4995    6.9051    0.0683 H         1 <0>         0.1529
     40 H16        -3.5477    5.5871    0.0479 H         1 <0>         0.1556
     41 H17         0.8811    3.3529    0.0292 H         1 <0>         0.1472
     42 H18        -4.6477   -0.1020    0.0235 H         1 <0>         0.4403
     43 H19        -5.5564    1.3111    0.0354 H         1 <0>         0.4288
     44 H20         0.0021   -0.0041    0.0020 H         1 <0>         0.4309
     45 H21         0.8223    1.4622    0.0021 H         1 <0>         0.4304
     46 N5         -3.6894    2.9615    0.0350 N.ar      1 <0>        -0.5978
     47 H22        -4.5722    3.4312    0.0414 H         1 <0>         0.4544
@<TRIPOS>BOND
     1    1    2 1
     2    1   25 1
     3    1   26 1
     4    1   27 1
     5    2    3 1
     6    2   14 1
     7    3    4 1
     8    3   28 1
     9    3   29 1
    10    4    9 ar
    11    4    5 ar
    12    5    6 ar
    13    5   30 1
    14    6    7 ar
    15    6   12 1
    16    7    8 ar
    17    7   31 1
    18    8    9 ar
    19    8   10 1
    20    9   32 1
    21   10   11 1
    22   11   33 1
    23   11   34 1
    24   11   35 1
    25   12   13 1
    26   13   36 1
    27   13   37 1
    28   13   38 1
    29   14   19 ar
    30   14   15 ar
    31   15   16 ar
    32   15   39 1
    33   16   17 ar
    34   16   40 1
    35   17   18 ar
    36   17   46 ar
    37   18   19 ar
    38   18   20 ar
    39   19   41 1
    40   20   21 ar
    41   20   24 1
    42   21   22 ar
    43   22   23 1
    44   22   46 ar
    45   23   42 1
    46   23   43 1
    47   24   44 1
    48   24   45 1
    49   46   47 1
@<TRIPOS>MOLECULE
ZINC03814864
   46    48     0     0     0
SMALL
USER_CHARGES

@<TRIPOS>ATOM
      1 C1         -2.4956    1.2961    0.0208 C.3       1 <0>         0.0871
      2 N1         -1.2408    2.0523    0.0190 N.pl3     1 <0>        -0.6221
      3 C2         -1.2682    3.5170    0.0271 C.3       1 <0>         0.1778
      4 C3         -1.2842    4.0269   -1.3909 C.ar      1 <0>        -0.1770
      5 C4         -0.1162    4.4782   -1.9756 C.ar      1 <0>        -0.0283
      6 C5         -0.1277    4.9463   -3.2753 C.ar      1 <0>        -0.2425
      7 C6         -1.3129    4.9640   -3.9973 C.ar      1 <0>         0.1696
      8 C7         -2.4858    4.5119   -3.4131 C.ar      1 <0>        -0.2443
      9 C8         -2.4707    4.0377   -2.1102 C.ar      1 <0>         0.1804
     10 O1         -3.6179    3.5886   -1.5366 O.3       1 <0>        -0.3083
     11 C9         -4.8018    3.6289   -2.3358 C.3       1 <0>         0.0229
     12 O2         -1.3234    5.4237   -5.2761 O.3       1 <0>        -0.3168
     13 C10        -0.0783    5.8735   -5.8141 C.3       1 <0>         0.0264
     14 C11        -0.0166    1.3757    0.0096 C.ar      1 <0>         0.1894
     15 C12         1.1769    2.1034    0.0021 C.ar      1 <0>        -0.1202
     16 C13         2.3830    1.4705   -0.0127 C.ar      1 <0>        -0.0828
     17 C14         2.4356    0.0698   -0.0207 C.ar      1 <0>         0.1878
     18 C15         1.2305   -0.6735   -0.0133 C.ar      1 <0>        -0.1840
     19 C16         0.0021   -0.0041    0.0020 C.ar      1 <0>        -0.1573
     20 C17         1.3131   -2.0883   -0.0222 C.ar      1 <0>         0.4989
     21 N2          2.5137   -2.6478   -0.0370 N.ar      1 <0>        -0.6297
     22 C18         3.6217   -1.9118   -0.0435 C.ar      1 <0>         0.5962
     23 N3          3.6026   -0.5932   -0.0353 N.ar      1 <0>        -0.6019
     24 N4          4.8460   -2.5570   -0.0590 N.pl3     1 <0>        -0.8258
     25 N5          0.1721   -2.8631   -0.0152 N.pl3     1 <0>        -0.8233
     26 H1         -2.8019    1.1030    1.0489 H         1 <0>         0.0454
     27 H2         -3.2685    1.8737   -0.4862 H         1 <0>         0.0840
     28 H3         -2.3499    0.3491   -0.4988 H         1 <0>         0.0595
     29 H4         -2.1623    3.8608    0.5471 H         1 <0>         0.0864
     30 H5         -0.3827    3.8941    0.5389 H         1 <0>         0.0821
     31 H6          0.8072    4.4646   -1.4156 H         1 <0>         0.1320
     32 H7          0.7864    5.2985   -3.7301 H         1 <0>         0.1309
     33 H8         -3.4090    4.5245   -3.9734 H         1 <0>         0.1361
     34 H9         -5.6426    3.2432   -1.7593 H         1 <0>         0.1026
     35 H10        -5.0056    4.6579   -2.6317 H         1 <0>         0.0584
     36 H11        -4.6601    3.0161   -3.2261 H         1 <0>         0.0575
     37 H12         0.6395    5.0532   -5.8037 H         1 <0>         0.0580
     38 H13        -0.2269    6.2132   -6.8391 H         1 <0>         0.1020
     39 H14         0.3023    6.6970   -5.2099 H         1 <0>         0.0584
     40 H15         1.1423    3.1828    0.0078 H         1 <0>         0.1298
     41 H16         3.2965    2.0465   -0.0180 H         1 <0>         0.1370
     42 H17        -0.9227   -0.5619    0.0075 H         1 <0>         0.1220
     43 H18         4.8835   -3.5263   -0.0649 H         1 <0>         0.4103
     44 H19         5.6667   -2.0399   -0.0639 H         1 <0>         0.4133
     45 H20        -0.7010   -2.4406   -0.0041 H         1 <0>         0.4121
     46 H21         0.2428   -3.8305   -0.0215 H         1 <0>         0.4099
@<TRIPOS>BOND
     1    1    2 1
     2    1   26 1
     3    1   27 1
     4    1   28 1
     5    2    3 1
     6    2   14 1
     7    3    4 1
     8    3   29 1
     9    3   30 1
    10    4    9 ar
    11    4    5 ar
    12    5    6 ar
    13    5   31 1
    14    6    7 ar
    15    6   32 1
    16    7    8 ar
    17    7   12 1
    18    8    9 ar
    19    8   33 1
    20    9   10 1
    21   10   11 1
    22   11   34 1
    23   11   35 1
    24   11   36 1
    25   12   13 1
    26   13   37 1
    27   13   38 1
    28   13   39 1
    29   14   19 ar
    30   14   15 ar
    31   15   16 ar
    32   15   40 1
    33   16   17 ar
    34   16   41 1
    35   17   23 ar
    36   17   18 ar
    37   18   19 ar
    38   18   20 ar
    39   19   42 1
    40   20   21 ar
    41   20   25 1
    42   21   22 ar
    43   22   23 ar
    44   22   24 1
    45   24   43 1
    46   24   44 1
    47   25   45 1
    48   25   46 1
@<TRIPOS>MOLECULE
ZINC03814864
   47    49     0     0     0
SMALL
USER_CHARGES

@<TRIPOS>ATOM
      1 C1         -2.4956    1.2961    0.0208 C.3       1 <0>         0.0732
      2 N1         -1.2408    2.0523    0.0190 N.pl3     1 <0>        -0.6029
      3 C2         -1.2682    3.5170    0.0271 C.3       1 <0>         0.1701
      4 C3         -1.2842    4.0269   -1.3909 C.ar      1 <0>        -0.1906
      5 C4         -0.1162    4.4782   -1.9756 C.ar      1 <0>        -0.0300
      6 C5         -0.1277    4.9463   -3.2753 C.ar      1 <0>        -0.2437
      7 C6         -1.3129    4.9640   -3.9973 C.ar      1 <0>         0.1792
      8 C7         -2.4858    4.5119   -3.4131 C.ar      1 <0>        -0.2430
      9 C8         -2.4707    4.0377   -2.1102 C.ar      1 <0>         0.1854
     10 O1         -3.6179    3.5886   -1.5366 O.3       1 <0>        -0.3113
     11 C9         -4.8018    3.6289   -2.3358 C.3       1 <0>         0.0212
     12 O2         -1.3234    5.4237   -5.2761 O.3       1 <0>        -0.3130
     13 C10        -0.0783    5.8735   -5.8141 C.3       1 <0>         0.0254
     14 C11        -0.0166    1.3757    0.0096 C.ar      1 <0>         0.2283
     15 C12         1.1769    2.1034    0.0021 C.ar      1 <0>        -0.0993
     16 C13         2.3830    1.4705   -0.0127 C.ar      1 <0>        -0.0952
     17 C14         2.4356    0.0698   -0.0207 C.ar      1 <0>         0.1254
     18 C15         1.2305   -0.6735   -0.0133 C.ar      1 <0>        -0.1257
     19 C16         0.0021   -0.0041    0.0020 C.ar      1 <0>        -0.1473
     20 C17         1.3131   -2.0883   -0.0222 C.ar      1 <0>         0.5583
     21 N2          2.5137   -2.6478   -0.0370 N.ar      1 <0>        -0.5878
     22 C18         3.6217   -1.9118   -0.0435 C.ar      1 <0>         0.6886
     23 N3          4.8460   -2.5570   -0.0590 N.pl3     1 <0>        -0.7957
     24 N4          0.1721   -2.8631   -0.0152 N.pl3     1 <0>        -0.7690
     25 H1         -2.8019    1.1030    1.0489 H         1 <0>         0.0603
     26 H2         -3.2685    1.8737   -0.4862 H         1 <0>         0.0971
     27 H3         -2.3499    0.3491   -0.4988 H         1 <0>         0.0646
     28 H4         -2.1623    3.8608    0.5471 H         1 <0>         0.0987
     29 H5         -0.3827    3.8941    0.5389 H         1 <0>         0.0872
     30 H6          0.8072    4.4646   -1.4156 H         1 <0>         0.1292
     31 H7          0.7864    5.2985   -3.7301 H         1 <0>         0.1332
     32 H8         -3.4090    4.5245   -3.9734 H         1 <0>         0.1402
     33 H9         -5.6426    3.2432   -1.7593 H         1 <0>         0.1062
     34 H10        -5.0056    4.6579   -2.6317 H         1 <0>         0.0623
     35 H11        -4.6601    3.0161   -3.2261 H         1 <0>         0.0597
     36 H12         0.6395    5.0532   -5.8037 H         1 <0>         0.0579
     37 H13        -0.2269    6.2132   -6.8391 H         1 <0>         0.1060
     38 H14         0.3023    6.6970   -5.2099 H         1 <0>         0.0604
     39 H15         1.1423    3.1828    0.0078 H         1 <0>         0.1502
     40 H16         3.2965    2.0465   -0.0180 H         1 <0>         0.1541
     41 H17        -0.9227   -0.5619    0.0075 H         1 <0>         0.1462
     42 H18         4.8835   -3.5263   -0.0649 H         1 <0>         0.4401
     43 H19         5.6667   -2.0399   -0.0639 H         1 <0>         0.4285
     44 H20        -0.7010   -2.4406   -0.0041 H         1 <0>         0.4304
     45 H21         0.2428   -3.8305   -0.0215 H         1 <0>         0.4306
     46 N5          3.6643   -0.5571   -0.0356 N.ar      1 <0>        -0.5974
     47 H22         4.5032   -0.0128   -0.0399 H         1 <0>         0.4538
@<TRIPOS>BOND
     1    1    2 1
     2    1   25 1
     3    1   26 1
     4    1   27 1
     5    2    3 1
     6    2   14 1
     7    3    4 1
     8    3   28 1
     9    3   29 1
    10    4    9 ar
    11    4    5 ar
    12    5    6 ar
    13    5   30 1
    14    6    7 ar
    15    6   31 1
    16    7    8 ar
    17    7   12 1
    18    8    9 ar
    19    8   32 1
    20    9   10 1
    21   10   11 1
    22   11   33 1
    23   11   34 1
    24   11   35 1
    25   12   13 1
    26   13   36 1
    27   13   37 1
    28   13   38 1
    29   14   19 ar
    30   14   15 ar
    31   15   16 ar
    32   15   39 1
    33   16   17 ar
    34   16   40 1
    35   17   18 ar
    36   17   46 ar
    37   18   19 ar
    38   18   20 ar
    39   19   41 1
    40   20   21 ar
    41   20   24 1
    42   21   22 ar
    43   22   23 1
    44   22   46 ar
    45   23   42 1
    46   23   43 1
    47   24   44 1
    48   24   45 1
    49   46   47 1
@<TRIPOS>MOLECULE
ZINC03814865
   50    52     0     0     0
SMALL
USER_CHARGES

@<TRIPOS>ATOM
      1 C1         -3.7701    2.0495   -1.9166 C.3       1 <0>         0.1034
      2 N1         -2.9863    0.9498   -1.3486 N.pl3     1 <0>        -0.6217
      3 C2         -2.4696    1.0485    0.0187 C.3       1 <0>         0.1754
      4 C3         -1.1390    1.7559    0.0030 C.ar      1 <0>        -0.1522
      5 C4          0.0319    1.0260    0.0895 C.ar      1 <0>        -0.0563
      6 C5          1.2549    1.6696    0.0703 C.ar      1 <0>        -0.2017
      7 C6          1.3117    3.0516   -0.0311 C.ar      1 <0>         0.1241
      8 C7          0.1370    3.7893   -0.1129 C.ar      1 <0>         0.0396
      9 C8         -1.0910    3.1382   -0.0927 C.ar      1 <0>         0.1360
     10 O1         -2.2435    3.8557   -0.1725 O.3       1 <0>        -0.3256
     11 C9         -2.7619    4.3883    1.0479 C.3       1 <0>         0.0367
     12 O2          0.1885    5.1456   -0.2129 O.3       1 <0>        -0.3203
     13 C10         0.3476    5.6939   -1.5229 C.3       1 <0>         0.0396
     14 O3          2.5156    3.6840   -0.0499 O.3       1 <0>        -0.3056
     15 C11         3.6814    2.8624    0.0384 C.3       1 <0>         0.0237
     16 C12        -2.7314   -0.1943   -2.1117 C.ar      1 <0>         0.1874
     17 C13        -1.9780   -1.2375   -1.5656 C.ar      1 <0>        -0.1205
     18 C14        -1.7195   -2.3654   -2.2842 C.ar      1 <0>        -0.0825
     19 C15        -2.2029   -2.4837   -3.5945 C.ar      1 <0>         0.1889
     20 C16        -2.9618   -1.4284   -4.1559 C.ar      1 <0>        -0.1848
     21 C17        -3.2210   -0.2808   -3.3990 C.ar      1 <0>        -0.1535
     22 C18        -3.4376   -1.5744   -5.4830 C.ar      1 <0>         0.4997
     23 N2         -3.1497   -2.6912   -6.1347 N.ar      1 <0>        -0.6296
     24 C19        -2.4332   -3.6588   -5.5694 C.ar      1 <0>         0.5972
     25 N3         -1.9665   -3.5755   -4.3389 N.ar      1 <0>        -0.6022
     26 N4         -2.1666   -4.8015   -6.3035 N.pl3     1 <0>        -0.8255
     27 N5         -4.1819   -0.5789   -6.0806 N.pl3     1 <0>        -0.8228
     28 H1         -3.1121    2.7120   -2.4791 H         1 <0>         0.0476
     29 H2         -4.5339    1.6459   -2.5812 H         1 <0>         0.0589
     30 H3         -4.2473    2.6090   -1.1120 H         1 <0>         0.0712
     31 H4         -2.3443    0.0480    0.4328 H         1 <0>         0.0862
     32 H5         -3.1727    1.6107    0.6332 H         1 <0>         0.0826
     33 H6         -0.0090   -0.0504    0.1678 H         1 <0>         0.1338
     34 H7          2.1674    1.0956    0.1339 H         1 <0>         0.1373
     35 H8         -3.6313    5.0097    0.8329 H         1 <0>         0.0957
     36 H9         -3.0540    3.5702    1.7063 H         1 <0>         0.0460
     37 H10        -1.9960    4.9914    1.5356 H         1 <0>         0.0539
     38 H11         0.4620    6.7756   -1.4525 H         1 <0>         0.0932
     39 H12         1.2333    5.2646   -1.9913 H         1 <0>         0.0452
     40 H13        -0.5310    5.4598   -2.1239 H         1 <0>         0.0466
     41 H14         3.7017    2.1689   -0.8023 H         1 <0>         0.0574
     42 H15         4.5716    3.4909    0.0125 H         1 <0>         0.1035
     43 H16         3.6602    2.3008    0.9723 H         1 <0>         0.0586
     44 H17        -1.5991   -1.1497   -0.5581 H         1 <0>         0.1293
     45 H18        -1.1397   -3.1648   -1.8469 H         1 <0>         0.1374
     46 H19        -3.7986    0.5298   -3.8182 H         1 <0>         0.1224
     47 H20        -2.5003   -4.8841   -7.2106 H         1 <0>         0.4105
     48 H21        -1.6459   -5.5196   -5.9110 H         1 <0>         0.4135
     49 H22        -4.3859    0.2338   -5.5920 H         1 <0>         0.4124
     50 H23        -4.5015   -0.6916   -6.9895 H         1 <0>         0.4102
@<TRIPOS>BOND
     1    1    2 1
     2    1   28 1
     3    1   29 1
     4    1   30 1
     5    2    3 1
     6    2   16 1
     7    3    4 1
     8    3   31 1
     9    3   32 1
    10    4    9 ar
    11    4    5 ar
    12    5    6 ar
    13    5   33 1
    14    6    7 ar
    15    6   34 1
    16    7    8 ar
    17    7   14 1
    18    8    9 ar
    19    8   12 1
    20    9   10 1
    21   10   11 1
    22   11   35 1
    23   11   36 1
    24   11   37 1
    25   12   13 1
    26   13   38 1
    27   13   39 1
    28   13   40 1
    29   14   15 1
    30   15   41 1
    31   15   42 1
    32   15   43 1
    33   16   21 ar
    34   16   17 ar
    35   17   18 ar
    36   17   44 1
    37   18   19 ar
    38   18   45 1
    39   19   25 ar
    40   19   20 ar
    41   20   21 ar
    42   20   22 ar
    43   21   46 1
    44   22   23 ar
    45   22   27 1
    46   23   24 ar
    47   24   25 ar
    48   24   26 1
    49   26   47 1
    50   26   48 1
    51   27   49 1
    52   27   50 1
@<TRIPOS>MOLECULE
ZINC03814865
   51    53     0     0     0
SMALL
USER_CHARGES

@<TRIPOS>ATOM
      1 C1         -3.7701    2.0495   -1.9166 C.3       1 <0>         0.0890
      2 N1         -2.9863    0.9498   -1.3486 N.pl3     1 <0>        -0.6032
      3 C2         -2.4696    1.0485    0.0187 C.3       1 <0>         0.1678
      4 C3         -1.1390    1.7559    0.0030 C.ar      1 <0>        -0.1654
      5 C4          0.0319    1.0260    0.0895 C.ar      1 <0>        -0.0583
      6 C5          1.2549    1.6696    0.0703 C.ar      1 <0>        -0.2029
      7 C6          1.3117    3.0516   -0.0311 C.ar      1 <0>         0.1321
      8 C7          0.1370    3.7893   -0.1129 C.ar      1 <0>         0.0436
      9 C8         -1.0910    3.1382   -0.0927 C.ar      1 <0>         0.1392
     10 O1         -2.2435    3.8557   -0.1725 O.3       1 <0>        -0.3289
     11 C9         -2.7619    4.3883    1.0479 C.3       1 <0>         0.0352
     12 O2          0.1885    5.1456   -0.2129 O.3       1 <0>        -0.3187
     13 C10         0.3476    5.6939   -1.5229 C.3       1 <0>         0.0398
     14 O3          2.5156    3.6840   -0.0499 O.3       1 <0>        -0.3020
     15 C11         3.6814    2.8624    0.0384 C.3       1 <0>         0.0227
     16 C12        -2.7314   -0.1943   -2.1117 C.ar      1 <0>         0.2272
     17 C13        -1.9780   -1.2375   -1.5656 C.ar      1 <0>        -0.0997
     18 C14        -1.7195   -2.3654   -2.2842 C.ar      1 <0>        -0.0949
     19 C15        -2.2029   -2.4837   -3.5945 C.ar      1 <0>         0.1269
     20 C16        -2.9618   -1.4284   -4.1559 C.ar      1 <0>        -0.1261
     21 C17        -3.2210   -0.2808   -3.3990 C.ar      1 <0>        -0.1441
     22 C18        -3.4376   -1.5744   -5.4830 C.ar      1 <0>         0.5586
     23 N2         -3.1497   -2.6912   -6.1347 N.ar      1 <0>        -0.5876
     24 C19        -2.4332   -3.6588   -5.5694 C.ar      1 <0>         0.6891
     25 N3         -2.1666   -4.8015   -6.3035 N.pl3     1 <0>        -0.7954
     26 N4         -4.1819   -0.5789   -6.0806 N.pl3     1 <0>        -0.7683
     27 H1         -3.1121    2.7120   -2.4791 H         1 <0>         0.0615
     28 H2         -4.5339    1.6459   -2.5812 H         1 <0>         0.0647
     29 H3         -4.2473    2.6090   -1.1120 H         1 <0>         0.0852
     30 H4         -2.3443    0.0480    0.4328 H         1 <0>         0.0907
     31 H5         -3.1727    1.6107    0.6332 H         1 <0>         0.0948
     32 H6         -0.0090   -0.0504    0.1678 H         1 <0>         0.1311
     33 H7          2.1674    1.0956    0.1339 H         1 <0>         0.1393
     34 H8         -3.6313    5.0097    0.8329 H         1 <0>         0.0994
     35 H9         -3.0540    3.5702    1.7063 H         1 <0>         0.0472
     36 H10        -1.9960    4.9914    1.5356 H         1 <0>         0.0575
     37 H11         0.4620    6.7756   -1.4525 H         1 <0>         0.0971
     38 H12         1.2333    5.2646   -1.9913 H         1 <0>         0.0461
     39 H13        -0.5310    5.4598   -2.1239 H         1 <0>         0.0464
     40 H14         3.7017    2.1689   -0.8023 H         1 <0>         0.0573
     41 H15         4.5716    3.4909    0.0125 H         1 <0>         0.1074
     42 H16         3.6602    2.3008    0.9723 H         1 <0>         0.0606
     43 H17        -1.5991   -1.1497   -0.5581 H         1 <0>         0.1500
     44 H18        -1.1397   -3.1648   -1.8469 H         1 <0>         0.1545
     45 H19        -3.7986    0.5298   -3.8182 H         1 <0>         0.1466
     46 H20        -2.5003   -4.8841   -7.2106 H         1 <0>         0.4403
     47 H21        -1.6459   -5.5196   -5.9110 H         1 <0>         0.4287
     48 H22        -4.3859    0.2338   -5.5920 H         1 <0>         0.4307
     49 H23        -4.5015   -0.6916   -6.9895 H         1 <0>         0.4309
     50 N5         -1.9284   -3.6296   -4.3119 N.ar      1 <0>        -0.5980
     51 H24        -1.3911   -4.3633   -3.8959 H         1 <0>         0.4540
@<TRIPOS>BOND
     1    1    2 1
     2    1   27 1
     3    1   28 1
     4    1   29 1
     5    2    3 1
     6    2   16 1
     7    3    4 1
     8    3   30 1
     9    3   31 1
    10    4    9 ar
    11    4    5 ar
    12    5    6 ar
    13    5   32 1
    14    6    7 ar
    15    6   33 1
    16    7    8 ar
    17    7   14 1
    18    8    9 ar
    19    8   12 1
    20    9   10 1
    21   10   11 1
    22   11   34 1
    23   11   35 1
    24   11   36 1
    25   12   13 1
    26   13   37 1
    27   13   38 1
    28   13   39 1
    29   14   15 1
    30   15   40 1
    31   15   41 1
    32   15   42 1
    33   16   21 ar
    34   16   17 ar
    35   17   18 ar
    36   17   43 1
    37   18   19 ar
    38   18   44 1
    39   19   20 ar
    40   19   50 ar
    41   20   21 ar
    42   20   22 ar
    43   21   45 1
    44   22   23 ar
    45   22   26 1
    46   23   24 ar
    47   24   25 1
    48   24   50 ar
    49   25   46 1
    50   25   47 1
    51   26   48 1
    52   26   49 1
    53   50   51 1
@<TRIPOS>MOLECULE
ZINC03814866
   44    47     0     0     0
SMALL
USER_CHARGES

@<TRIPOS>ATOM
      1 C1         -2.5309    5.5845   -1.7651 C.3       1 <0>         0.0909
      2 N1         -2.9518    4.2579   -1.3075 N.pl3     1 <0>        -0.6249
      3 C2         -2.6196    3.8110    0.0475 C.3       1 <0>         0.1623
      4 C3         -1.2880    3.1056    0.0315 C.ar      1 <0>        -0.0979
      5 C4         -1.2344    1.7455    0.0174 C.ar      1 <0>        -0.0993
      6 C5         -0.0126    1.0758    0.0080 C.ar      1 <0>        -0.1151
      7 C6          1.1629    1.7623    0.0004 C.ar      1 <0>        -0.1030
      8 C7          1.1475    3.1672    0.0081 C.ar      1 <0>        -0.0538
      9 C8         -0.0954    3.8484    0.0237 C.ar      1 <0>        -0.0352
     10 C9         -0.1108    5.2538    0.0306 C.ar      1 <0>        -0.1151
     11 C10         1.0643    5.9401    0.0230 C.ar      1 <0>        -0.1143
     12 C11         2.2865    5.2702    0.0076 C.ar      1 <0>        -0.1182
     13 C12         2.3404    3.9104    0.0001 C.ar      1 <0>        -0.1042
     14 C13        -3.6708    3.4182   -2.1644 C.ar      1 <0>         0.1866
     15 C14        -4.0644    2.1514   -1.7233 C.ar      1 <0>        -0.1186
     16 C15        -4.7703    1.3154   -2.5346 C.ar      1 <0>        -0.0824
     17 C16        -5.1003    1.7200   -3.8354 C.ar      1 <0>         0.1911
     18 C17        -4.6998    2.9995   -4.2906 C.ar      1 <0>        -0.1863
     19 C18        -3.9804    3.8453   -3.4395 C.ar      1 <0>        -0.1525
     20 C19        -5.0464    3.3825   -5.6104 C.ar      1 <0>         0.5001
     21 N2         -5.7286    2.5253   -6.3551 N.ar      1 <0>        -0.6294
     22 C20        -6.0855    1.3321   -5.8880 C.ar      1 <0>         0.5980
     23 N3         -5.7898    0.9252   -4.6689 N.ar      1 <0>        -0.6020
     24 N4         -6.7974    0.4819   -6.7161 N.pl3     1 <0>        -0.8250
     25 N5         -4.6830    4.6169   -6.1067 N.pl3     1 <0>        -0.8228
     26 H1         -1.5458    5.5141   -2.2262 H         1 <0>         0.0504
     27 H2         -3.2476    5.9614   -2.4948 H         1 <0>         0.0675
     28 H3         -2.4863    6.2649   -0.9147 H         1 <0>         0.0682
     29 H4         -3.3894    3.1261    0.4031 H         1 <0>         0.0872
     30 H5         -2.5659    4.6736    0.7117 H         1 <0>         0.0862
     31 H6         -2.1526    1.1769    0.0184 H         1 <0>         0.1229
     32 H7          0.0021   -0.0041    0.0020 H         1 <0>         0.1246
     33 H8          2.1024    1.2298   -0.0118 H         1 <0>         0.1267
     34 H9         -1.0504    5.7863    0.0418 H         1 <0>         0.1279
     35 H10         1.0496    7.0200    0.0286 H         1 <0>         0.1224
     36 H11         3.2046    5.8389    0.0011 H         1 <0>         0.1228
     37 H12         3.2947    3.4051   -0.0122 H         1 <0>         0.1265
     38 H13        -3.8087    1.8327   -0.7236 H         1 <0>         0.1304
     39 H14        -5.0712    0.3414   -2.1779 H         1 <0>         0.1380
     40 H15        -3.6700    4.8230   -3.7773 H         1 <0>         0.1224
     41 H16        -7.0260    0.7608   -7.6166 H         1 <0>         0.4107
     42 H17        -7.0679   -0.3930   -6.3961 H         1 <0>         0.4137
     43 H18        -4.1838    5.2354   -5.5507 H         1 <0>         0.4121
     44 H19        -4.9266    4.8666   -7.0119 H         1 <0>         0.4104
@<TRIPOS>BOND
     1    1    2 1
     2    1   26 1
     3    1   27 1
     4    1   28 1
     5    2    3 1
     6    2   14 1
     7    3    4 1
     8    3   29 1
     9    3   30 1
    10    4    9 ar
    11    4    5 ar
    12    5    6 ar
    13    5   31 1
    14    6    7 ar
    15    6   32 1
    16    7    8 ar
    17    7   33 1
    18    8   13 ar
    19    8    9 ar
    20    9   10 ar
    21   10   11 ar
    22   10   34 1
    23   11   12 ar
    24   11   35 1
    25   12   13 ar
    26   12   36 1
    27   13   37 1
    28   14   19 ar
    29   14   15 ar
    30   15   16 ar
    31   15   38 1
    32   16   17 ar
    33   16   39 1
    34   17   23 ar
    35   17   18 ar
    36   18   19 ar
    37   18   20 ar
    38   19   40 1
    39   20   21 ar
    40   20   25 1
    41   21   22 ar
    42   22   23 ar
    43   22   24 1
    44   24   41 1
    45   24   42 1
    46   25   43 1
    47   25   44 1
@<TRIPOS>MOLECULE
ZINC03814866
   45    48     0     0     0
SMALL
USER_CHARGES

@<TRIPOS>ATOM
      1 C1         -2.5309    5.5845   -1.7651 C.3       1 <0>         0.0772
      2 N1         -2.9518    4.2579   -1.3075 N.pl3     1 <0>        -0.6074
      3 C2         -2.6196    3.8110    0.0475 C.3       1 <0>         0.1546
      4 C3         -1.2880    3.1056    0.0315 C.ar      1 <0>        -0.1095
      5 C4         -1.2344    1.7455    0.0174 C.ar      1 <0>        -0.0969
      6 C5         -0.0126    1.0758    0.0080 C.ar      1 <0>        -0.1221
      7 C6          1.1629    1.7623    0.0004 C.ar      1 <0>        -0.0906
      8 C7          1.1475    3.1672    0.0081 C.ar      1 <0>        -0.0542
      9 C8         -0.0954    3.8484    0.0237 C.ar      1 <0>        -0.0338
     10 C9         -0.1108    5.2538    0.0306 C.ar      1 <0>        -0.1248
     11 C10         1.0643    5.9401    0.0230 C.ar      1 <0>        -0.1045
     12 C11         2.2865    5.2702    0.0076 C.ar      1 <0>        -0.1154
     13 C12         2.3404    3.9104    0.0001 C.ar      1 <0>        -0.1002
     14 C13        -3.6708    3.4182   -2.1644 C.ar      1 <0>         0.2270
     15 C14        -4.0644    2.1514   -1.7233 C.ar      1 <0>        -0.0971
     16 C15        -4.7703    1.3154   -2.5346 C.ar      1 <0>        -0.0953
     17 C16        -5.1003    1.7200   -3.8354 C.ar      1 <0>         0.1301
     18 C17        -4.6998    2.9995   -4.2906 C.ar      1 <0>        -0.1273
     19 C18        -3.9804    3.8453   -3.4395 C.ar      1 <0>        -0.1436
     20 C19        -5.0464    3.3825   -5.6104 C.ar      1 <0>         0.5588
     21 N2         -5.7286    2.5253   -6.3551 N.ar      1 <0>        -0.5872
     22 C20        -6.0855    1.3321   -5.8880 C.ar      1 <0>         0.6895
     23 N3         -6.7974    0.4819   -6.7161 N.pl3     1 <0>        -0.7947
     24 N4         -4.6830    4.6169   -6.1067 N.pl3     1 <0>        -0.7685
     25 H1         -1.5458    5.5141   -2.2262 H         1 <0>         0.0645
     26 H2         -3.2476    5.9614   -2.4948 H         1 <0>         0.0721
     27 H3         -2.4863    6.2649   -0.9147 H         1 <0>         0.0824
     28 H4         -3.3894    3.1261    0.4031 H         1 <0>         0.0919
     29 H5         -2.5659    4.6736    0.7117 H         1 <0>         0.0985
     30 H6         -2.1526    1.1769    0.0184 H         1 <0>         0.1197
     31 H7          0.0021   -0.0041    0.0020 H         1 <0>         0.1265
     32 H8          2.1024    1.2298   -0.0118 H         1 <0>         0.1305
     33 H9         -1.0504    5.7863    0.0418 H         1 <0>         0.1265
     34 H10         1.0496    7.0200    0.0286 H         1 <0>         0.1258
     35 H11         3.2046    5.8389    0.0011 H         1 <0>         0.1271
     36 H12         3.2947    3.4051   -0.0122 H         1 <0>         0.1303
     37 H13        -3.8087    1.8327   -0.7236 H         1 <0>         0.1510
     38 H14        -5.0712    0.3414   -2.1779 H         1 <0>         0.1553
     39 H15        -3.6700    4.8230   -3.7773 H         1 <0>         0.1468
     40 H16        -7.0260    0.7608   -7.6166 H         1 <0>         0.4404
     41 H17        -7.0679   -0.3930   -6.3961 H         1 <0>         0.4289
     42 H18        -4.1838    5.2354   -5.5507 H         1 <0>         0.4303
     43 H19        -4.9266    4.8666   -7.0119 H         1 <0>         0.4311
     44 N5         -5.8108    0.8603   -4.6473 N.ar      1 <0>        -0.5981
     45 H20        -6.0844   -0.0387   -4.3055 H         1 <0>         0.4544
@<TRIPOS>BOND
     1    1    2 1
     2    1   25 1
     3    1   26 1
     4    1   27 1
     5    2    3 1
     6    2   14 1
     7    3    4 1
     8    3   28 1
     9    3   29 1
    10    4    9 ar
    11    4    5 ar
    12    5    6 ar
    13    5   30 1
    14    6    7 ar
    15    6   31 1
    16    7    8 ar
    17    7   32 1
    18    8   13 ar
    19    8    9 ar
    20    9   10 ar
    21   10   11 ar
    22   10   33 1
    23   11   12 ar
    24   11   34 1
    25   12   13 ar
    26   12   35 1
    27   13   36 1
    28   14   19 ar
    29   14   15 ar
    30   15   16 ar
    31   15   37 1
    32   16   17 ar
    33   16   38 1
    34   17   18 ar
    35   17   44 ar
    36   18   19 ar
    37   18   20 ar
    38   19   39 1
    39   20   21 ar
    40   20   24 1
    41   21   22 ar
    42   22   23 1
    43   22   44 ar
    44   23   40 1
    45   23   41 1
    46   24   42 1
    47   24   43 1
    48   44   45 1
@<TRIPOS>MOLECULE
ZINC03814867
   43    45     0     0     0
SMALL
USER_CHARGES

@<TRIPOS>ATOM
      1 C1          6.0923    9.7227   -2.2238 C.3       1 <0>         0.0257
      2 O1          4.7818    9.1581   -2.2994 O.3       1 <0>        -0.3120
      3 C2          4.1617    8.8786   -1.1230 C.ar      1 <0>         0.1656
      4 C3          2.8874    8.3289   -1.1231 C.ar      1 <0>        -0.1696
      5 C4          2.2568    8.0436    0.0728 C.ar      1 <0>        -0.0303
      6 C5          2.8903    8.3102    1.2714 C.ar      1 <0>        -0.1696
      7 C6          4.1666    8.8550    1.2768 C.ar      1 <0>         0.1656
      8 C7          4.8017    9.1418    0.0783 C.ar      1 <0>        -0.2912
      9 O2          4.7916    9.1115    2.4560 O.3       1 <0>        -0.3121
     10 C8          6.1021    9.6770    2.3861 C.3       1 <0>         0.0257
     11 C9          0.8732    7.4462    0.0698 C.3       1 <0>         0.1683
     12 N1          0.9723    5.9847    0.0550 N.pl3     1 <0>        -0.7449
     13 C10        -0.1889    5.2050    0.0497 C.ar      1 <0>         0.1861
     14 C11        -1.4408    5.8268    0.0581 C.ar      1 <0>        -0.1194
     15 C12        -2.5878    5.0922    0.0414 C.ar      1 <0>        -0.0817
     16 C13        -2.5193    3.6922    0.0335 C.ar      1 <0>         0.1895
     17 C14        -1.2546    3.0558    0.0305 C.ar      1 <0>        -0.1858
     18 C15        -0.0884    3.8288    0.0357 C.ar      1 <0>        -0.1515
     19 C16        -1.2147    1.6391    0.0167 C.ar      1 <0>         0.5000
     20 N2         -2.3626    0.9779    0.0186 N.ar      1 <0>        -0.6298
     21 C17        -3.5300    1.6154    0.0275 C.ar      1 <0>         0.5977
     22 N3         -3.6248    2.9308    0.0346 N.ar      1 <0>        -0.6023
     23 N4         -4.6941    0.8669    0.0290 N.pl3     1 <0>        -0.8251
     24 N5         -0.0111    0.9658    0.0074 N.pl3     1 <0>        -0.8227
     25 H1          6.7550    9.0339   -1.6999 H         1 <0>         0.0558
     26 H2          6.4716    9.8967   -3.2308 H         1 <0>         0.1041
     27 H3          6.0500   10.6682   -1.6831 H         1 <0>         0.0562
     28 H4          2.3884    8.1237   -2.0586 H         1 <0>         0.1351
     29 H5          2.3935    8.0904    2.2049 H         1 <0>         0.1352
     30 H6          5.7935    9.5692    0.0804 H         1 <0>         0.1358
     31 H7          6.7624    8.9983    1.8462 H         1 <0>         0.0558
     32 H8          6.0579   10.6329    1.8640 H         1 <0>         0.0562
     33 H9          6.4855    9.8313    3.3947 H         1 <0>         0.1041
     34 H10         0.3340    7.7828   -0.8157 H         1 <0>         0.0738
     35 H11         0.3379    7.7650    0.9641 H         1 <0>         0.0737
     36 H12         1.8433    5.5577    0.0488 H         1 <0>         0.4013
     37 H13        -1.4995    6.9051    0.0683 H         1 <0>         0.1310
     38 H14        -3.5477    5.5871    0.0479 H         1 <0>         0.1382
     39 H15         0.8811    3.3529    0.0285 H         1 <0>         0.1202
     40 H16        -4.6477   -0.1020    0.0235 H         1 <0>         0.4106
     41 H17        -5.5564    1.3111    0.0354 H         1 <0>         0.4137
     42 H18         0.0021   -0.0041    0.0020 H         1 <0>         0.4102
     43 H19         0.8223    1.4622    0.0021 H         1 <0>         0.4128
@<TRIPOS>BOND
     1    1    2 1
     2    1   25 1
     3    1   26 1
     4    1   27 1
     5    2    3 1
     6    3    8 ar
     7    3    4 ar
     8    4    5 ar
     9    4   28 1
    10    5    6 ar
    11    5   11 1
    12    6    7 ar
    13    6   29 1
    14    7    8 ar
    15    7    9 1
    16    8   30 1
    17    9   10 1
    18   10   31 1
    19   10   32 1
    20   10   33 1
    21   11   12 1
    22   11   34 1
    23   11   35 1
    24   12   13 1
    25   12   36 1
    26   13   18 ar
    27   13   14 ar
    28   14   15 ar
    29   14   37 1
    30   15   16 ar
    31   15   38 1
    32   16   22 ar
    33   16   17 ar
    34   17   18 ar
    35   17   19 ar
    36   18   39 1
    37   19   20 ar
    38   19   24 1
    39   20   21 ar
    40   21   22 ar
    41   21   23 1
    42   23   40 1
    43   23   41 1
    44   24   42 1
    45   24   43 1
@<TRIPOS>MOLECULE
ZINC03814867
   44    46     0     0     0
SMALL
USER_CHARGES

@<TRIPOS>ATOM
      1 C1          6.0923    9.7227   -2.2238 C.3       1 <0>         0.0240
      2 O1          4.7818    9.1581   -2.2994 O.3       1 <0>        -0.3111
      3 C2          4.1617    8.8786   -1.1230 C.ar      1 <0>         0.1699
      4 C3          2.8874    8.3289   -1.1231 C.ar      1 <0>        -0.1706
      5 C4          2.2568    8.0436    0.0728 C.ar      1 <0>        -0.0428
      6 C5          2.8903    8.3102    1.2714 C.ar      1 <0>        -0.1706
      7 C6          4.1666    8.8550    1.2768 C.ar      1 <0>         0.1699
      8 C7          4.8017    9.1418    0.0783 C.ar      1 <0>        -0.2868
      9 O2          4.7916    9.1115    2.4560 O.3       1 <0>        -0.3111
     10 C8          6.1021    9.6770    2.3861 C.3       1 <0>         0.0240
     11 C9          0.8732    7.4462    0.0698 C.3       1 <0>         0.1610
     12 N1          0.9723    5.9847    0.0550 N.pl3     1 <0>        -0.7255
     13 C10        -0.1889    5.2050    0.0497 C.ar      1 <0>         0.2258
     14 C11        -1.4408    5.8268    0.0581 C.ar      1 <0>        -0.0970
     15 C12        -2.5878    5.0922    0.0414 C.ar      1 <0>        -0.0941
     16 C13        -2.5193    3.6922    0.0335 C.ar      1 <0>         0.1292
     17 C14        -1.2546    3.0558    0.0305 C.ar      1 <0>        -0.1281
     18 C15        -0.0884    3.8288    0.0357 C.ar      1 <0>        -0.1392
     19 C16        -1.2147    1.6391    0.0167 C.ar      1 <0>         0.5589
     20 N2         -2.3626    0.9779    0.0186 N.ar      1 <0>        -0.5880
     21 C17        -3.5300    1.6154    0.0275 C.ar      1 <0>         0.6899
     22 N3         -4.6941    0.8669    0.0290 N.pl3     1 <0>        -0.7948
     23 N4         -0.0111    0.9658    0.0074 N.pl3     1 <0>        -0.7680
     24 H1          6.7550    9.0339   -1.6999 H         1 <0>         0.0577
     25 H2          6.4716    9.8967   -3.2308 H         1 <0>         0.1073
     26 H3          6.0500   10.6682   -1.6831 H         1 <0>         0.0586
     27 H4          2.3884    8.1237   -2.0586 H         1 <0>         0.1350
     28 H5          2.3935    8.0904    2.2049 H         1 <0>         0.1350
     29 H6          5.7935    9.5692    0.0804 H         1 <0>         0.1391
     30 H7          6.7624    8.9983    1.8462 H         1 <0>         0.0577
     31 H8          6.0579   10.6329    1.8640 H         1 <0>         0.0586
     32 H9          6.4855    9.8313    3.3947 H         1 <0>         0.1073
     33 H10         0.3340    7.7828   -0.8157 H         1 <0>         0.0833
     34 H11         0.3379    7.7650    0.9641 H         1 <0>         0.0833
     35 H12         1.8433    5.5577    0.0488 H         1 <0>         0.4115
     36 H13        -1.4995    6.9051    0.0683 H         1 <0>         0.1522
     37 H14        -3.5477    5.5871    0.0479 H         1 <0>         0.1554
     38 H15         0.8811    3.3529    0.0285 H         1 <0>         0.1456
     39 H16        -4.6477   -0.1020    0.0235 H         1 <0>         0.4404
     40 H17        -5.5564    1.3111    0.0354 H         1 <0>         0.4290
     41 H18         0.0021   -0.0041    0.0020 H         1 <0>         0.4309
     42 H19         0.8223    1.4622    0.0021 H         1 <0>         0.4311
     43 N5         -3.6894    2.9615    0.0350 N.ar      1 <0>        -0.5985
     44 H20        -4.5722    3.4312    0.0414 H         1 <0>         0.4545
@<TRIPOS>BOND
     1    1    2 1
     2    1   24 1
     3    1   25 1
     4    1   26 1
     5    2    3 1
     6    3    8 ar
     7    3    4 ar
     8    4    5 ar
     9    4   27 1
    10    5    6 ar
    11    5   11 1
    12    6    7 ar
    13    6   28 1
    14    7    8 ar
    15    7    9 1
    16    8   29 1
    17    9   10 1
    18   10   30 1
    19   10   31 1
    20   10   32 1
    21   11   12 1
    22   11   33 1
    23   11   34 1
    24   12   13 1
    25   12   35 1
    26   13   18 ar
    27   13   14 ar
    28   14   15 ar
    29   14   36 1
    30   15   16 ar
    31   15   37 1
    32   16   17 ar
    33   16   43 ar
    34   17   18 ar
    35   17   19 ar
    36   18   38 1
    37   19   20 ar
    38   19   23 1
    39   20   21 ar
    40   21   22 1
    41   21   43 ar
    42   22   39 1
    43   22   40 1
    44   23   41 1
    45   23   42 1
    46   43   44 1
@<TRIPOS>MOLECULE
ZINC03814868
   47    49     0     0     0
SMALL
USER_CHARGES

@<TRIPOS>ATOM
      1 C1         -0.0127    1.0858    0.0080 C.3       1 <0>         0.0240
      2 O1         -0.6816    1.5467    1.1837 O.3       1 <0>        -0.3013
      3 C2         -0.7875    2.8927    1.3463 C.ar      1 <0>         0.1488
      4 C3         -0.2586    3.7508    0.3940 C.ar      1 <0>        -0.2147
      5 C4         -0.3657    5.1191    0.5583 C.ar      1 <0>        -0.0330
      6 C5         -0.9998    5.6377    1.6717 C.ar      1 <0>        -0.2147
      7 C6         -1.5314    4.7865    2.6286 C.ar      1 <0>         0.1487
      8 C7         -1.4309    3.4101    2.4642 C.ar      1 <0>         0.0353
      9 O2         -1.9566    2.5712    3.3981 O.3       1 <0>        -0.3130
     10 C8         -1.1017    2.1816    4.4748 C.3       1 <0>         0.0354
     11 O3         -2.1556    5.2977    3.7234 O.3       1 <0>        -0.3013
     12 C9         -2.2275    6.7214    3.8234 C.3       1 <0>         0.0240
     13 C10         0.2110    6.0479   -0.4789 C.3       1 <0>         0.1673
     14 N1         -0.8045    6.3364   -1.4946 N.pl3     1 <0>        -0.7456
     15 C11        -0.5007    7.1817   -2.5668 C.ar      1 <0>         0.1841
     16 C12         0.7720    7.7524   -2.6601 C.ar      1 <0>        -0.1198
     17 C13         1.0967    8.5744   -3.6965 C.ar      1 <0>        -0.0817
     18 C14         0.1425    8.8658   -4.6810 C.ar      1 <0>         0.1903
     19 C15        -1.1504    8.2958   -4.5896 C.ar      1 <0>        -0.1863
     20 C16        -1.4619    7.4493   -3.5202 C.ar      1 <0>        -0.1501
     21 C17        -2.0957    8.6079   -5.5985 C.ar      1 <0>         0.5004
     22 N2         -1.7245    9.4179   -6.5788 N.ar      1 <0>        -0.6296
     23 C18        -0.4987    9.9321   -6.6268 C.ar      1 <0>         0.5987
     24 N3          0.4194    9.6749   -5.7156 N.ar      1 <0>        -0.6026
     25 N4         -0.1728   10.7719   -7.6775 N.pl3     1 <0>        -0.8246
     26 N5         -3.3697    8.0813   -5.5607 N.pl3     1 <0>        -0.8223
     27 H1          0.0021   -0.0041    0.0020 H         1 <0>         0.1046
     28 H2          1.0099    1.4631    0.0003 H         1 <0>         0.0581
     29 H3         -0.5399    1.4469   -0.8751 H         1 <0>         0.0586
     30 H4          0.2374    3.3495   -0.4774 H         1 <0>         0.1377
     31 H5         -1.0811    6.7074    1.7966 H         1 <0>         0.1377
     32 H6         -0.7819    3.0674    5.0237 H         1 <0>         0.0450
     33 H7         -1.6431    1.5144    5.1455 H         1 <0>         0.0940
     34 H8         -0.2279    1.6658    4.0766 H         1 <0>         0.0449
     35 H9         -1.2195    7.1358    3.8408 H         1 <0>         0.0581
     36 H10        -2.7691    7.1191    2.9651 H         1 <0>         0.0587
     37 H11        -2.7488    6.9953    4.7407 H         1 <0>         0.1046
     38 H12         0.5219    6.9773   -0.0016 H         1 <0>         0.0716
     39 H13         1.0728    5.5757   -0.9505 H         1 <0>         0.0716
     40 H14        -1.6875    5.9413   -1.4236 H         1 <0>         0.4013
     41 H15         1.5096    7.5350   -1.9018 H         1 <0>         0.1300
     42 H16         2.0857    9.0041   -3.7572 H         1 <0>         0.1382
     43 H17        -2.4452    7.0099   -3.4413 H         1 <0>         0.1204
     44 H18        -0.8326   10.9745   -8.3591 H         1 <0>         0.4109
     45 H19         0.7154   11.1580   -7.7323 H         1 <0>         0.4139
     46 H20        -3.6285    7.4891   -4.8374 H         1 <0>         0.4129
     47 H21        -4.0070    8.3030   -6.2576 H         1 <0>         0.4106
@<TRIPOS>BOND
     1    1    2 1
     2    1   27 1
     3    1   28 1
     4    1   29 1
     5    2    3 1
     6    3    8 ar
     7    3    4 ar
     8    4    5 ar
     9    4   30 1
    10    5    6 ar
    11    5   13 1
    12    6    7 ar
    13    6   31 1
    14    7    8 ar
    15    7   11 1
    16    8    9 1
    17    9   10 1
    18   10   32 1
    19   10   33 1
    20   10   34 1
    21   11   12 1
    22   12   35 1
    23   12   36 1
    24   12   37 1
    25   13   14 1
    26   13   38 1
    27   13   39 1
    28   14   15 1
    29   14   40 1
    30   15   20 ar
    31   15   16 ar
    32   16   17 ar
    33   16   41 1
    34   17   18 ar
    35   17   42 1
    36   18   24 ar
    37   18   19 ar
    38   19   20 ar
    39   19   21 ar
    40   20   43 1
    41   21   22 ar
    42   21   26 1
    43   22   23 ar
    44   23   24 ar
    45   23   25 1
    46   25   44 1
    47   25   45 1
    48   26   46 1
    49   26   47 1
@<TRIPOS>MOLECULE
ZINC03814868
   48    50     0     0     0
SMALL
USER_CHARGES

@<TRIPOS>ATOM
      1 C1         -0.0127    1.0858    0.0080 C.3       1 <0>         0.0240
      2 O1         -0.6816    1.5467    1.1837 O.3       1 <0>        -0.2982
      3 C2         -0.7875    2.8927    1.3463 C.ar      1 <0>         0.1506
      4 C3         -0.2586    3.7508    0.3940 C.ar      1 <0>        -0.2142
      5 C4         -0.3657    5.1191    0.5583 C.ar      1 <0>        -0.0470
      6 C5         -0.9998    5.6377    1.6717 C.ar      1 <0>        -0.2142
      7 C6         -1.5314    4.7865    2.6286 C.ar      1 <0>         0.1504
      8 C7         -1.4309    3.4101    2.4642 C.ar      1 <0>         0.0434
      9 O2         -1.9566    2.5712    3.3981 O.3       1 <0>        -0.3130
     10 C8         -1.1017    2.1816    4.4748 C.3       1 <0>         0.0352
     11 O3         -2.1556    5.2977    3.7234 O.3       1 <0>        -0.2982
     12 C9         -2.2275    6.7214    3.8234 C.3       1 <0>         0.0240
     13 C10         0.2110    6.0479   -0.4789 C.3       1 <0>         0.1601
     14 N1         -0.8045    6.3364   -1.4946 N.pl3     1 <0>        -0.7265
     15 C11        -0.5007    7.1817   -2.5668 C.ar      1 <0>         0.2243
     16 C12         0.7720    7.7524   -2.6601 C.ar      1 <0>        -0.0976
     17 C13         1.0967    8.5744   -3.6965 C.ar      1 <0>        -0.0941
     18 C14         0.1425    8.8658   -4.6810 C.ar      1 <0>         0.1303
     19 C15        -1.1504    8.2958   -4.5896 C.ar      1 <0>        -0.1282
     20 C16        -1.4619    7.4493   -3.5202 C.ar      1 <0>        -0.1383
     21 C17        -2.0957    8.6079   -5.5985 C.ar      1 <0>         0.5589
     22 N2         -1.7245    9.4179   -6.5788 N.ar      1 <0>        -0.5875
     23 C18        -0.4987    9.9321   -6.6268 C.ar      1 <0>         0.6903
     24 N3         -0.1728   10.7719   -7.6775 N.pl3     1 <0>        -0.7941
     25 N4         -3.3697    8.0813   -5.5607 N.pl3     1 <0>        -0.7674
     26 H1          0.0021   -0.0041    0.0020 H         1 <0>         0.1075
     27 H2          1.0099    1.4631    0.0003 H         1 <0>         0.0584
     28 H3         -0.5399    1.4469   -0.8751 H         1 <0>         0.0575
     29 H4          0.2374    3.3495   -0.4774 H         1 <0>         0.1376
     30 H5         -1.0811    6.7074    1.7966 H         1 <0>         0.1376
     31 H6         -0.7819    3.0674    5.0237 H         1 <0>         0.0466
     32 H7         -1.6431    1.5144    5.1455 H         1 <0>         0.0977
     33 H8         -0.2279    1.6658    4.0766 H         1 <0>         0.0466
     34 H9         -1.2195    7.1358    3.8408 H         1 <0>         0.0584
     35 H10        -2.7691    7.1191    2.9651 H         1 <0>         0.0575
     36 H11        -2.7488    6.9953    4.7407 H         1 <0>         0.1075
     37 H12         0.5219    6.9773   -0.0016 H         1 <0>         0.0811
     38 H13         1.0728    5.5757   -0.9505 H         1 <0>         0.0812
     39 H14        -1.6875    5.9413   -1.4236 H         1 <0>         0.4115
     40 H15         1.5096    7.5350   -1.9018 H         1 <0>         0.1514
     41 H16         2.0857    9.0041   -3.7572 H         1 <0>         0.1555
     42 H17        -2.4452    7.0099   -3.4413 H         1 <0>         0.1458
     43 H18        -0.8326   10.9745   -8.3591 H         1 <0>         0.4407
     44 H19         0.7154   11.1580   -7.7323 H         1 <0>         0.4291
     45 H20        -3.6285    7.4891   -4.8374 H         1 <0>         0.4312
     46 H21        -4.0070    8.3030   -6.2576 H         1 <0>         0.4313
     47 N5          0.4842    9.7044   -5.7216 N.ar      1 <0>        -0.5989
     48 H22         1.4034   10.0956   -5.7673 H         1 <0>         0.4547
@<TRIPOS>BOND
     1    1    2 1
     2    1   26 1
     3    1   27 1
     4    1   28 1
     5    2    3 1
     6    3    8 ar
     7    3    4 ar
     8    4    5 ar
     9    4   29 1
    10    5    6 ar
    11    5   13 1
    12    6    7 ar
    13    6   30 1
    14    7    8 ar
    15    7   11 1
    16    8    9 1
    17    9   10 1
    18   10   31 1
    19   10   32 1
    20   10   33 1
    21   11   12 1
    22   12   34 1
    23   12   35 1
    24   12   36 1
    25   13   14 1
    26   13   37 1
    27   13   38 1
    28   14   15 1
    29   14   39 1
    30   15   20 ar
    31   15   16 ar
    32   16   17 ar
    33   16   40 1
    34   17   18 ar
    35   17   41 1
    36   18   19 ar
    37   18   47 ar
    38   19   20 ar
    39   19   21 ar
    40   20   42 1
    41   21   22 ar
    42   21   25 1
    43   22   23 ar
    44   23   24 1
    45   23   47 ar
    46   24   43 1
    47   24   44 1
    48   25   45 1
    49   25   46 1
    50   47   48 1
@<TRIPOS>MOLECULE
ZINC03814869
   47    49     0     0     0
SMALL
USER_CHARGES

@<TRIPOS>ATOM
      1 C1         -5.1684    4.2666   -1.4251 C.3       1 <0>         0.0224
      2 O1         -5.5734    4.6282   -0.1033 O.3       1 <0>        -0.2977
      3 C2         -4.8469    4.1172    0.9267 C.ar      1 <0>         0.1880
      4 C3         -3.7641    3.2908    0.6683 C.ar      1 <0>        -0.2812
      5 C4         -3.0255    2.7649    1.7192 C.ar      1 <0>         0.2920
      6 C5         -3.3637    3.0752    3.0302 C.ar      1 <0>        -0.2169
      7 C6         -4.4428    3.9061    3.2897 C.ar      1 <0>         0.1947
      8 C7         -5.1860    4.4282    2.2377 C.ar      1 <0>        -0.0122
      9 O2         -6.2459    5.2448    2.4917 O.3       1 <0>        -0.3126
     10 C8         -7.5224    4.6216    2.6473 C.3       1 <0>         0.0346
     11 O3         -4.7744    4.2097    4.5733 O.3       1 <0>        -0.3226
     12 C9         -4.2422    5.4218    5.1115 C.3       1 <0>         0.0404
     13 Br1        -2.3526    2.3640    4.4611 Br        1 <0>        -0.0335
     14 N1         -1.9361    1.9261    1.4577 N.pl3     1 <0>        -0.7303
     15 C10        -1.5791    1.5986    0.0751 C.3       1 <0>         0.1675
     16 C11        -0.3795    0.6864    0.0687 C.ar      1 <0>        -0.1513
     17 C12         0.8992    1.2342    0.0208 C.ar      1 <0>        -0.0457
     18 C13         2.0049    0.4367    0.0081 C.ar      1 <0>        -0.1266
     19 C14         1.8540   -0.9563    0.0437 C.ar      1 <0>         0.2456
     20 C15         0.5522   -1.5114    0.0923 C.ar      1 <0>        -0.2439
     21 C16        -0.5617   -0.6651    0.1042 C.ar      1 <0>        -0.0251
     22 C17         0.4242   -2.9224    0.1280 C.ar      1 <0>         0.5162
     23 N2          1.5288   -3.6540    0.1143 N.ar      1 <0>        -0.6359
     24 C18         2.7330   -3.0912    0.0682 C.ar      1 <0>         0.6181
     25 N3          2.9092   -1.7840    0.0339 N.ar      1 <0>        -0.6119
     26 N4          3.8472   -3.9105    0.0563 N.pl3     1 <0>        -0.8171
     27 N5         -0.8177   -3.5185    0.1763 N.pl3     1 <0>        -0.8179
     28 H1         -5.8299    4.7405   -2.1503 H         1 <0>         0.1047
     29 H2         -4.1446    4.5996   -1.5953 H         1 <0>         0.0596
     30 H3         -5.2217    3.1837   -1.5380 H         1 <0>         0.0582
     31 H4         -3.4978    3.0526   -0.3509 H         1 <0>         0.1438
     32 H5         -7.7441    4.0222    1.7642 H         1 <0>         0.0435
     33 H6         -7.5083    3.9796    3.5280 H         1 <0>         0.0470
     34 H7         -8.2884    5.3875    2.7681 H         1 <0>         0.0918
     35 H8         -3.1550    5.3550    5.1515 H         1 <0>         0.0497
     36 H9         -4.5316    6.2592    4.4765 H         1 <0>         0.0558
     37 H10        -4.6340    5.5758    6.1169 H         1 <0>         0.0988
     38 H11        -1.4174    1.5616    2.1919 H         1 <0>         0.4080
     39 H12        -1.3418    2.5147   -0.4656 H         1 <0>         0.0750
     40 H13        -2.4184    1.0984   -0.4081 H         1 <0>         0.0719
     41 H14         1.0172    2.3074   -0.0067 H         1 <0>         0.1323
     42 H15         2.9909    0.8757   -0.0296 H         1 <0>         0.1398
     43 H16        -1.5587   -1.0787    0.1408 H         1 <0>         0.1246
     44 H17         3.7408   -4.8743    0.0812 H         1 <0>         0.4137
     45 H18         4.7351   -3.5213    0.0229 H         1 <0>         0.4167
     46 H19        -1.6183   -2.9710    0.1862 H         1 <0>         0.4143
     47 H20        -0.8910   -4.4854    0.2004 H         1 <0>         0.4136
@<TRIPOS>BOND
     1    1    2 1
     2    1   28 1
     3    1   29 1
     4    1   30 1
     5    2    3 1
     6    3    8 ar
     7    3    4 ar
     8    4    5 ar
     9    4   31 1
    10    5    6 ar
    11    5   14 1
    12    6    7 ar
    13    6   13 1
    14    7    8 ar
    15    7   11 1
    16    8    9 1
    17    9   10 1
    18   10   32 1
    19   10   33 1
    20   10   34 1
    21   11   12 1
    22   12   35 1
    23   12   36 1
    24   12   37 1
    25   14   15 1
    26   14   38 1
    27   15   16 1
    28   15   39 1
    29   15   40 1
    30   16   21 ar
    31   16   17 ar
    32   17   18 ar
    33   17   41 1
    34   18   19 ar
    35   18   42 1
    36   19   25 ar
    37   19   20 ar
    38   20   21 ar
    39   20   22 ar
    40   21   43 1
    41   22   23 ar
    42   22   27 1
    43   23   24 ar
    44   24   25 ar
    45   24   26 1
    46   26   44 1
    47   26   45 1
    48   27   46 1
    49   27   47 1
@<TRIPOS>MOLECULE
ZINC03814869
   48    50     0     0     0
SMALL
USER_CHARGES

@<TRIPOS>ATOM
      1 C1         -5.1684    4.2666   -1.4251 C.3       1 <0>         0.0223
      2 O1         -5.5734    4.6282   -0.1033 O.3       1 <0>        -0.2943
      3 C2         -4.8469    4.1172    0.9267 C.ar      1 <0>         0.1881
      4 C3         -3.7641    3.2908    0.6683 C.ar      1 <0>        -0.2785
      5 C4         -3.0255    2.7649    1.7192 C.ar      1 <0>         0.2844
      6 C5         -3.3637    3.0752    3.0302 C.ar      1 <0>        -0.2126
      7 C6         -4.4428    3.9061    3.2897 C.ar      1 <0>         0.1950
      8 C7         -5.1860    4.4282    2.2377 C.ar      1 <0>        -0.0013
      9 O2         -6.2459    5.2448    2.4917 O.3       1 <0>        -0.3124
     10 C8         -7.5224    4.6216    2.6473 C.3       1 <0>         0.0347
     11 O3         -4.7744    4.2097    4.5733 O.3       1 <0>        -0.3217
     12 C9         -4.2422    5.4218    5.1115 C.3       1 <0>         0.0398
     13 Br1        -2.3526    2.3640    4.4611 Br        1 <0>        -0.0328
     14 N1         -1.9361    1.9261    1.4577 N.pl3     1 <0>        -0.7390
     15 C10        -1.5791    1.5986    0.0751 C.3       1 <0>         0.1575
     16 C11        -0.3795    0.6864    0.0687 C.ar      1 <0>        -0.1095
     17 C12         0.8992    1.2342    0.0208 C.ar      1 <0>        -0.0038
     18 C13         2.0049    0.4367    0.0081 C.ar      1 <0>        -0.1467
     19 C14         1.8540   -0.9563    0.0437 C.ar      1 <0>         0.2064
     20 C15         0.5522   -1.5114    0.0923 C.ar      1 <0>        -0.1897
     21 C16        -0.5617   -0.6651    0.1042 C.ar      1 <0>        -0.0154
     22 C17         0.4242   -2.9224    0.1280 C.ar      1 <0>         0.5658
     23 N2          1.5288   -3.6540    0.1143 N.ar      1 <0>        -0.5879
     24 C18         2.7330   -3.0912    0.0682 C.ar      1 <0>         0.6985
     25 N3          3.8472   -3.9105    0.0563 N.pl3     1 <0>        -0.7865
     26 N4         -0.8177   -3.5185    0.1763 N.pl3     1 <0>        -0.7630
     27 H1         -5.8299    4.7405   -2.1503 H         1 <0>         0.1077
     28 H2         -4.1446    4.5996   -1.5953 H         1 <0>         0.0592
     29 H3         -5.2217    3.1837   -1.5380 H         1 <0>         0.0577
     30 H4         -3.4978    3.0526   -0.3509 H         1 <0>         0.1435
     31 H5         -7.7441    4.0222    1.7642 H         1 <0>         0.0448
     32 H6         -7.5083    3.9796    3.5280 H         1 <0>         0.0488
     33 H7         -8.2884    5.3875    2.7681 H         1 <0>         0.0956
     34 H8         -3.1550    5.3550    5.1515 H         1 <0>         0.0499
     35 H9         -4.5316    6.2592    4.4765 H         1 <0>         0.0577
     36 H10        -4.6340    5.5758    6.1169 H         1 <0>         0.1020
     37 H11        -1.4174    1.5616    2.1919 H         1 <0>         0.4066
     38 H12        -1.3418    2.5147   -0.4656 H         1 <0>         0.0856
     39 H13        -2.4184    1.0984   -0.4081 H         1 <0>         0.0827
     40 H14         1.0172    2.3074   -0.0067 H         1 <0>         0.1573
     41 H15         2.9909    0.8757   -0.0296 H         1 <0>         0.1604
     42 H16        -1.5587   -1.0787    0.1408 H         1 <0>         0.1522
     43 H17         3.7408   -4.8743    0.0812 H         1 <0>         0.4432
     44 H18         4.7351   -3.5213    0.0229 H         1 <0>         0.4313
     45 H19        -1.6183   -2.9710    0.1862 H         1 <0>         0.4324
     46 H20        -0.8910   -4.4854    0.2004 H         1 <0>         0.4340
     47 N5          2.9754   -1.7575    0.0315 N.ar      1 <0>        -0.6084
     48 H21         3.8851   -1.3437   -0.0024 H         1 <0>         0.4583
@<TRIPOS>BOND
     1    1    2 1
     2    1   27 1
     3    1   28 1
     4    1   29 1
     5    2    3 1
     6    3    8 ar
     7    3    4 ar
     8    4    5 ar
     9    4   30 1
    10    5    6 ar
    11    5   14 1
    12    6    7 ar
    13    6   13 1
    14    7    8 ar
    15    7   11 1
    16    8    9 1
    17    9   10 1
    18   10   31 1
    19   10   32 1
    20   10   33 1
    21   11   12 1
    22   12   34 1
    23   12   35 1
    24   12   36 1
    25   14   15 1
    26   14   37 1
    27   15   16 1
    28   15   38 1
    29   15   39 1
    30   16   21 ar
    31   16   17 ar
    32   17   18 ar
    33   17   40 1
    34   18   19 ar
    35   18   41 1
    36   19   20 ar
    37   19   47 ar
    38   20   21 ar
    39   20   22 ar
    40   21   42 1
    41   22   23 ar
    42   22   26 1
    43   23   24 ar
    44   24   25 1
    45   24   47 ar
    46   25   43 1
    47   25   44 1
    48   26   45 1
    49   26   46 1
    50   47   48 1
@<TRIPOS>MOLECULE
ZINC03814870
   45    47     0     0     0
SMALL
USER_CHARGES

@<TRIPOS>ATOM
      1 C1          4.5316   -1.1858    1.8483 C.3       1 <0>        -0.1196
      2 C2          4.0501   -2.5687    2.2041 C.2       1 <0>        -0.0528
      3 C3          3.7825   -3.4621    1.2411 C.2       1 <0>        -0.1647
      4 S1          3.2676   -4.9090    2.1466 S.3       1 <0>         0.1232
      5 C4          3.4184   -4.2718    3.7946 C.ar      1 <0>         0.1900
      6 C5          3.8662   -2.9478    3.5950 C.ar      1 <0>        -0.2996
      7 C6          4.0761   -2.1876    4.7787 C.ar      1 <0>         0.5297
      8 N1          3.8472   -2.7455    5.9557 N.ar      1 <0>        -0.6323
      9 C7          3.4256   -3.9985    6.0723 C.ar      1 <0>         0.6280
     10 N2          3.2132   -4.7549    5.0043 N.ar      1 <0>        -0.5698
     11 N3          3.2037   -4.5262    7.3336 N.pl3     1 <0>        -0.8117
     12 N4          4.5145   -0.8783    4.6996 N.pl3     1 <0>        -0.8344
     13 C8          3.8960   -3.2871   -0.2513 C.3       1 <0>        -0.0005
     14 C9          2.6274   -2.6713   -0.7829 C.ar      1 <0>        -0.0030
     15 C10         2.5418   -1.3010   -0.9462 C.ar      1 <0>        -0.1935
     16 C11         1.3766   -0.7307   -1.4349 C.ar      1 <0>         0.1424
     17 C12         0.2910   -1.5376   -1.7556 C.ar      1 <0>         0.0490
     18 C13         0.3821   -2.9146   -1.5948 C.ar      1 <0>         0.1497
     19 C14         1.5519   -3.4781   -1.1056 C.ar      1 <0>        -0.1345
     20 Br1         1.6751   -5.3515   -0.8793 Br        1 <0>        -0.0172
     21 O1         -0.6756   -3.7088   -1.9121 O.3       1 <0>        -0.3200
     22 C15        -1.6222   -3.9735   -0.8749 C.3       1 <0>         0.0370
     23 O2         -0.8564   -0.9806   -2.2303 O.3       1 <0>        -0.3156
     24 C16        -0.9665   -0.8297   -3.6470 C.3       1 <0>         0.0365
     25 O3          1.2937    0.6174   -1.5951 O.3       1 <0>        -0.2984
     26 C17         2.4454    1.3850   -1.2398 C.3       1 <0>         0.0210
     27 H1          3.6840   -0.5009    1.8244 H         1 <0>         0.0748
     28 H2          5.2506   -0.8482    2.5947 H         1 <0>         0.0732
     29 H3          5.0085   -1.2080    0.8684 H         1 <0>         0.0776
     30 H4          2.8958   -5.4411    7.4293 H         1 <0>         0.4184
     31 H5          3.3561   -3.9809    8.1212 H         1 <0>         0.4170
     32 H6          4.8782   -0.4403    5.4849 H         1 <0>         0.4074
     33 H7          4.4584   -0.3981    3.8587 H         1 <0>         0.4142
     34 H8          4.0526   -4.2585   -0.7202 H         1 <0>         0.1031
     35 H9          4.7392   -2.6344   -0.4775 H         1 <0>         0.1047
     36 H10         3.3840   -0.6741   -0.6931 H         1 <0>         0.1457
     37 H11        -1.1214   -4.4708   -0.0442 H         1 <0>         0.0520
     38 H12        -2.0544   -3.0345   -0.5290 H         1 <0>         0.0536
     39 H13        -2.4129   -4.6173   -1.2603 H         1 <0>         0.1012
     40 H14        -0.1599   -0.1916   -4.0082 H         1 <0>         0.0467
     41 H15        -0.8970   -1.8077   -4.1231 H         1 <0>         0.0506
     42 H16        -1.9265   -0.3745   -3.8904 H         1 <0>         0.0960
     43 H17         3.2938    1.0696   -1.8471 H         1 <0>         0.0601
     44 H18         2.2459    2.4421   -1.4155 H         1 <0>         0.1061
     45 H19         2.6750    1.2289   -0.1857 H         1 <0>         0.0587
@<TRIPOS>BOND
     1    1    2 1
     2    1   27 1
     3    1   28 1
     4    1   29 1
     5    2    6 1
     6    2    3 2
     7    3    4 1
     8    3   13 1
     9    4    5 1
    10    5   10 ar
    11    5    6 ar
    12    6    7 ar
    13    7    8 ar
    14    7   12 1
    15    8    9 ar
    16    9   10 ar
    17    9   11 1
    18   11   30 1
    19   11   31 1
    20   12   32 1
    21   12   33 1
    22   13   14 1
    23   13   34 1
    24   13   35 1
    25   14   19 ar
    26   14   15 ar
    27   15   16 ar
    28   15   36 1
    29   16   17 ar
    30   16   25 1
    31   17   18 ar
    32   17   23 1
    33   18   19 ar
    34   18   21 1
    35   19   20 1
    36   21   22 1
    37   22   37 1
    38   22   38 1
    39   22   39 1
    40   23   24 1
    41   24   40 1
    42   24   41 1
    43   24   42 1
    44   25   26 1
    45   26   43 1
    46   26   44 1
    47   26   45 1
@<TRIPOS>MOLECULE
ZINC03814870
   46    48     0     0     0
SMALL
USER_CHARGES

@<TRIPOS>ATOM
      1 C1          4.5316   -1.1858    1.8483 C.3       1 <0>        -0.1296
      2 C2          4.0501   -2.5687    2.2041 C.2       1 <0>        -0.0634
      3 C3          3.7825   -3.4621    1.2411 C.2       1 <0>        -0.1238
      4 S1          3.2676   -4.9090    2.1466 S.3       1 <0>         0.2417
      5 C4          3.4184   -4.2718    3.7946 C.ar      1 <0>         0.0892
      6 C5          3.8662   -2.9478    3.5950 C.ar      1 <0>        -0.2157
      7 C6          4.0761   -2.1876    4.7787 C.ar      1 <0>         0.5773
      8 N1          3.8472   -2.7455    5.9557 N.ar      1 <0>        -0.5779
      9 C7          3.4256   -3.9985    6.0723 C.ar      1 <0>         0.6946
     10 N2          3.2037   -4.5262    7.3336 N.pl3     1 <0>        -0.7842
     11 N3          4.5145   -0.8783    4.6996 N.pl3     1 <0>        -0.7826
     12 C8          3.8960   -3.2871   -0.2513 C.3       1 <0>        -0.0106
     13 C9          2.6274   -2.6713   -0.7829 C.ar      1 <0>        -0.0170
     14 C10         2.5418   -1.3010   -0.9462 C.ar      1 <0>        -0.1930
     15 C11         1.3766   -0.7307   -1.4349 C.ar      1 <0>         0.1473
     16 C12         0.2910   -1.5376   -1.7556 C.ar      1 <0>         0.0581
     17 C13         0.3821   -2.9146   -1.5948 C.ar      1 <0>         0.1534
     18 C14         1.5519   -3.4781   -1.1056 C.ar      1 <0>        -0.1388
     19 Br1         1.6751   -5.3515   -0.8793 Br        1 <0>        -0.0204
     20 O1         -0.6756   -3.7088   -1.9121 O.3       1 <0>        -0.3175
     21 C15        -1.6222   -3.9735   -0.8749 C.3       1 <0>         0.0377
     22 O2         -0.8564   -0.9806   -2.2303 O.3       1 <0>        -0.3157
     23 C16        -0.9665   -0.8297   -3.6470 C.3       1 <0>         0.0358
     24 O3          1.2937    0.6174   -1.5951 O.3       1 <0>        -0.2941
     25 C17         2.4454    1.3850   -1.2398 C.3       1 <0>         0.0200
     26 H1          3.6840   -0.5009    1.8244 H         1 <0>         0.0905
     27 H2          5.2506   -0.8482    2.5947 H         1 <0>         0.0792
     28 H3          5.0085   -1.2080    0.8684 H         1 <0>         0.0959
     29 H4          2.8958   -5.4411    7.4293 H         1 <0>         0.4322
     30 H5          3.3561   -3.9809    8.1212 H         1 <0>         0.4453
     31 H6          4.8782   -0.4403    5.4849 H         1 <0>         0.4279
     32 H7          4.4584   -0.3981    3.8587 H         1 <0>         0.4313
     33 H8          4.0526   -4.2585   -0.7202 H         1 <0>         0.1129
     34 H9          4.7392   -2.6344   -0.4775 H         1 <0>         0.1208
     35 H10         3.3840   -0.6741   -0.6931 H         1 <0>         0.1480
     36 H11        -1.1214   -4.4708   -0.0442 H         1 <0>         0.0482
     37 H12        -2.0544   -3.0345   -0.5290 H         1 <0>         0.0559
     38 H13        -2.4129   -4.6173   -1.2603 H         1 <0>         0.1050
     39 H14        -0.1599   -0.1916   -4.0082 H         1 <0>         0.0495
     40 H15        -0.8970   -1.8077   -4.1231 H         1 <0>         0.0530
     41 H16        -1.9265   -0.3745   -3.8904 H         1 <0>         0.1008
     42 H17         3.2938    1.0696   -1.8471 H         1 <0>         0.0624
     43 H18         2.2459    2.4421   -1.4155 H         1 <0>         0.1103
     44 H19         2.6750    1.2289   -0.1857 H         1 <0>         0.0574
     45 N4          3.1909   -4.8212    5.0121 N.ar      1 <0>        -0.5579
     46 H20         2.8736   -5.7669    5.0825 H         1 <0>         0.4609
@<TRIPOS>BOND
     1    1    2 1
     2    1   26 1
     3    1   27 1
     4    1   28 1
     5    2    6 1
     6    2    3 2
     7    3    4 1
     8    3   12 1
     9    4    5 1
    10    5    6 ar
    11    5   45 ar
    12    6    7 ar
    13    7    8 ar
    14    7   11 1
    15    8    9 ar
    16    9   10 1
    17    9   45 ar
    18   10   29 1
    19   10   30 1
    20   11   31 1
    21   11   32 1
    22   12   13 1
    23   12   33 1
    24   12   34 1
    25   13   18 ar
    26   13   14 ar
    27   14   15 ar
    28   14   35 1
    29   15   16 ar
    30   15   24 1
    31   16   17 ar
    32   16   22 1
    33   17   18 ar
    34   17   20 1
    35   18   19 1
    36   20   21 1
    37   21   36 1
    38   21   37 1
    39   21   38 1
    40   22   23 1
    41   23   39 1
    42   23   40 1
    43   23   41 1
    44   24   25 1
    45   25   42 1
    46   25   43 1
    47   25   44 1
    48   45   46 1
@<TRIPOS>MOLECULE
ZINC03814871
   47    49     0     0     0
SMALL
USER_CHARGES

@<TRIPOS>ATOM
      1 C1          4.6543   -1.0446    1.3078 C.3       1 <0>         0.0222
      2 O1          4.1258   -0.9315    2.6306 O.3       1 <0>        -0.2975
      3 C2          2.8895   -0.3787    2.7564 C.ar      1 <0>         0.1882
      4 C3          2.1991    0.0395    1.6292 C.ar      1 <0>        -0.2805
      5 C4          0.9396    0.6084    1.7576 C.ar      1 <0>         0.2946
      6 C5          0.3652    0.7489    3.0145 C.ar      1 <0>        -0.2158
      7 C6          1.0523    0.3259    4.1420 C.ar      1 <0>         0.1945
      8 C7          2.3158   -0.2387    4.0141 C.ar      1 <0>        -0.0117
      9 O2          2.9912   -0.6548    5.1211 O.3       1 <0>        -0.3125
     10 C8          3.8447    0.2987    5.7570 C.3       1 <0>         0.0344
     11 O3          0.4902    0.4638    5.3728 O.3       1 <0>        -0.3225
     12 C9         -0.2228   -0.6614    5.8901 C.3       1 <0>         0.0408
     13 Br1        -1.3537    1.5176    3.1879 Br        1 <0>        -0.0336
     14 N1          0.2457    1.0356    0.6197 N.pl3     1 <0>        -0.7269
     15 C10         0.8512    0.8876   -0.7060 C.3       1 <0>         0.1644
     16 C11        -0.0937    1.4204   -1.7522 C.ar      1 <0>        -0.1391
     17 C12        -0.8742    0.5339   -2.4874 C.ar      1 <0>        -0.0390
     18 C13        -1.7427    0.9836   -3.4377 C.ar      1 <0>        -0.1191
     19 C14        -1.8450    2.3587   -3.6874 C.ar      1 <0>         0.2504
     20 C15        -1.0462    3.2600   -2.9423 C.ar      1 <0>        -0.2326
     21 C16        -0.1682    2.7665   -1.9697 C.ar      1 <0>         0.0517
     22 Cl1         0.8177    3.8576   -1.0471 Cl        1 <0>        -0.0382
     23 C17        -1.1670    4.6456   -3.2117 C.ar      1 <0>         0.5202
     24 N2         -2.0212    5.0317   -4.1483 N.ar      1 <0>        -0.6122
     25 C18        -2.7532    4.1512   -4.8248 C.ar      1 <0>         0.6119
     26 N3         -2.6803    2.8506   -4.6144 N.ar      1 <0>        -0.5975
     27 N4         -3.6271    4.6183   -5.7897 N.pl3     1 <0>        -0.8138
     28 N5         -0.4149    5.5686   -2.5173 N.pl3     1 <0>        -0.8449
     29 H1          3.9928   -1.6660    0.7041 H         1 <0>         0.0596
     30 H2          4.7298   -0.0533    0.8607 H         1 <0>         0.0584
     31 H3          5.6434   -1.5007    1.3494 H         1 <0>         0.1046
     32 H4          2.6433   -0.0735    0.6513 H         1 <0>         0.1435
     33 H5          4.6546    0.5700    5.0798 H         1 <0>         0.0439
     34 H6          3.2694    1.1892    6.0105 H         1 <0>         0.0467
     35 H7          4.2612   -0.1356    6.6658 H         1 <0>         0.0917
     36 H8         -0.9884   -0.9658    5.1764 H         1 <0>         0.0494
     37 H9          0.4701   -1.4867    6.0537 H         1 <0>         0.0559
     38 H10        -0.6941   -0.3899    6.8347 H         1 <0>         0.0984
     39 H11        -0.6362    1.4296    0.7089 H         1 <0>         0.4079
     40 H12         1.0500   -0.1666   -0.8991 H         1 <0>         0.0801
     41 H13         1.7864    1.4463   -0.7427 H         1 <0>         0.0780
     42 H14        -0.7939   -0.5266   -2.2998 H         1 <0>         0.1439
     43 H15        -2.3451    0.2836   -3.9976 H         1 <0>         0.1476
     44 H16        -4.1704    3.9937   -6.2952 H         1 <0>         0.4177
     45 H17        -3.6968    5.5705   -5.9608 H         1 <0>         0.4156
     46 H18         0.5233    5.3961   -2.3413 H         1 <0>         0.4130
     47 H19        -0.8238    6.3908   -2.2045 H         1 <0>         0.4084
@<TRIPOS>BOND
     1    1    2 1
     2    1   29 1
     3    1   30 1
     4    1   31 1
     5    2    3 1
     6    3    8 ar
     7    3    4 ar
     8    4    5 ar
     9    4   32 1
    10    5    6 ar
    11    5   14 1
    12    6    7 ar
    13    6   13 1
    14    7    8 ar
    15    7   11 1
    16    8    9 1
    17    9   10 1
    18   10   33 1
    19   10   34 1
    20   10   35 1
    21   11   12 1
    22   12   36 1
    23   12   37 1
    24   12   38 1
    25   14   15 1
    26   14   39 1
    27   15   16 1
    28   15   40 1
    29   15   41 1
    30   16   21 ar
    31   16   17 ar
    32   17   18 ar
    33   17   42 1
    34   18   19 ar
    35   18   43 1
    36   19   26 ar
    37   19   20 ar
    38   20   21 ar
    39   20   23 ar
    40   21   22 1
    41   23   24 ar
    42   23   28 1
    43   24   25 ar
    44   25   26 ar
    45   25   27 1
    46   27   44 1
    47   27   45 1
    48   28   46 1
    49   28   47 1
@<TRIPOS>MOLECULE
ZINC03814871
   48    50     0     0     0
SMALL
USER_CHARGES

@<TRIPOS>ATOM
      1 C1          4.6543   -1.0446    1.3078 C.3       1 <0>         0.0221
      2 O1          4.1258   -0.9315    2.6306 O.3       1 <0>        -0.2941
      3 C2          2.8895   -0.3787    2.7564 C.ar      1 <0>         0.1884
      4 C3          2.1991    0.0395    1.6292 C.ar      1 <0>        -0.2778
      5 C4          0.9396    0.6084    1.7576 C.ar      1 <0>         0.2868
      6 C5          0.3652    0.7489    3.0145 C.ar      1 <0>        -0.2116
      7 C6          1.0523    0.3259    4.1420 C.ar      1 <0>         0.1948
      8 C7          2.3158   -0.2387    4.0141 C.ar      1 <0>        -0.0008
      9 O2          2.9912   -0.6548    5.1211 O.3       1 <0>        -0.3123
     10 C8          3.8447    0.2987    5.7570 C.3       1 <0>         0.0345
     11 O3          0.4902    0.4638    5.3728 O.3       1 <0>        -0.3216
     12 C9         -0.2228   -0.6614    5.8901 C.3       1 <0>         0.0401
     13 Br1        -1.3537    1.5176    3.1879 Br        1 <0>        -0.0330
     14 N1          0.2457    1.0356    0.6197 N.pl3     1 <0>        -0.7360
     15 C10         0.8512    0.8876   -0.7060 C.3       1 <0>         0.1544
     16 C11        -0.0937    1.4204   -1.7522 C.ar      1 <0>        -0.1020
     17 C12        -0.8742    0.5339   -2.4874 C.ar      1 <0>         0.0088
     18 C13        -1.7427    0.9836   -3.4377 C.ar      1 <0>        -0.1436
     19 C14        -1.8450    2.3587   -3.6874 C.ar      1 <0>         0.2175
     20 C15        -1.0462    3.2600   -2.9423 C.ar      1 <0>        -0.1833
     21 C16        -0.1682    2.7665   -1.9697 C.ar      1 <0>         0.0523
     22 Cl1         0.8177    3.8576   -1.0471 Cl        1 <0>         0.0091
     23 C17        -1.1670    4.6456   -3.2117 C.ar      1 <0>         0.5764
     24 N2         -2.0212    5.0317   -4.1483 N.ar      1 <0>        -0.5670
     25 C18        -2.7532    4.1512   -4.8248 C.ar      1 <0>         0.6922
     26 N3         -3.6271    4.6183   -5.7897 N.pl3     1 <0>        -0.7809
     27 N4         -0.4149    5.5686   -2.5173 N.pl3     1 <0>        -0.7999
     28 H1          3.9928   -1.6660    0.7041 H         1 <0>         0.0592
     29 H2          4.7298   -0.0533    0.8607 H         1 <0>         0.0579
     30 H3          5.6434   -1.5007    1.3494 H         1 <0>         0.1076
     31 H4          2.6433   -0.0735    0.6513 H         1 <0>         0.1433
     32 H5          4.6546    0.5700    5.0798 H         1 <0>         0.0454
     33 H6          3.2694    1.1892    6.0105 H         1 <0>         0.0482
     34 H7          4.2612   -0.1356    6.6658 H         1 <0>         0.0956
     35 H8         -0.9884   -0.9658    5.1764 H         1 <0>         0.0494
     36 H9          0.4701   -1.4867    6.0537 H         1 <0>         0.0581
     37 H10        -0.6941   -0.3899    6.8347 H         1 <0>         0.1016
     38 H11        -0.6362    1.4296    0.7089 H         1 <0>         0.4065
     39 H12         1.0500   -0.1666   -0.8991 H         1 <0>         0.0914
     40 H13         1.7864    1.4463   -0.7427 H         1 <0>         0.0879
     41 H14        -0.7939   -0.5266   -2.2998 H         1 <0>         0.1686
     42 H15        -2.3451    0.2836   -3.9976 H         1 <0>         0.1681
     43 H16        -4.1704    3.9937   -6.2952 H         1 <0>         0.4325
     44 H17        -3.6968    5.5705   -5.9608 H         1 <0>         0.4451
     45 H18         0.5233    5.3961   -2.3413 H         1 <0>         0.4292
     46 H19        -0.8238    6.3908   -2.2045 H         1 <0>         0.4299
     47 N5         -2.7211    2.8064   -4.6527 N.ar      1 <0>        -0.6007
     48 H20        -3.2755    2.1521   -5.1670 H         1 <0>         0.4615
@<TRIPOS>BOND
     1    1    2 1
     2    1   28 1
     3    1   29 1
     4    1   30 1
     5    2    3 1
     6    3    8 ar
     7    3    4 ar
     8    4    5 ar
     9    4   31 1
    10    5    6 ar
    11    5   14 1
    12    6    7 ar
    13    6   13 1
    14    7    8 ar
    15    7   11 1
    16    8    9 1
    17    9   10 1
    18   10   32 1
    19   10   33 1
    20   10   34 1
    21   11   12 1
    22   12   35 1
    23   12   36 1
    24   12   37 1
    25   14   15 1
    26   14   38 1
    27   15   16 1
    28   15   39 1
    29   15   40 1
    30   16   21 ar
    31   16   17 ar
    32   17   18 ar
    33   17   41 1
    34   18   19 ar
    35   18   42 1
    36   19   20 ar
    37   19   47 ar
    38   20   21 ar
    39   20   23 ar
    40   21   22 1
    41   23   24 ar
    42   23   27 1
    43   24   25 ar
    44   25   26 1
    45   25   47 ar
    46   26   43 1
    47   26   44 1
    48   27   45 1
    49   27   46 1
    50   47   48 1
@<TRIPOS>MOLECULE
ZINC03814872
   46    50     0     0     0
SMALL
USER_CHARGES

@<TRIPOS>ATOM
      1 C1          2.0698   -0.2843   -0.7476 C.ar      1 <0>        -0.1308
      2 C2          0.6929    0.2359   -0.8059 C.ar      1 <0>        -0.0917
      3 C3          0.4566    1.4962   -0.5188 C.ar      1 <0>        -0.1640
      4 C4          1.5653    2.3954   -0.1365 C.ar      1 <0>         0.1235
      5 C5          2.7901    1.9301   -0.0803 C.ar      1 <0>        -0.0743
      6 C6          3.0561    0.5142   -0.4060 C.ar      1 <0>        -0.0868
      7 C7          3.9112    2.7908    0.3128 C.2       1 <0>        -0.0901
      8 C8          4.0547    4.0267   -0.0369 C.2       1 <0>        -0.0961
      9 C9          3.1202    4.7727   -0.8871 C.ar      1 <0>        -0.0708
     10 C10         3.6605    5.7209   -1.8823 C.ar      1 <0>        -0.0864
     11 C11         2.8473    6.4172   -2.6445 C.ar      1 <0>        -0.1325
     12 C12         1.3904    6.2502   -2.5053 C.ar      1 <0>        -0.0956
     13 C13         0.9099    5.4032   -1.6232 C.ar      1 <0>        -0.1527
     14 C14         1.8237    4.6168   -0.7684 C.ar      1 <0>         0.1169
     15 N1          1.2806    3.7254    0.1490 N.pl3     1 <0>        -0.4467
     16 C15        -0.1663    3.9347    0.2933 C.3       1 <0>         0.0970
     17 C16        -0.6327    3.3383    1.5963 C.ar      1 <0>        -0.1875
     18 C17        -0.4868    4.0406    2.7641 C.ar      1 <0>         0.0271
     19 C18        -0.9347    3.4463    3.9493 C.ar      1 <0>        -0.2896
     20 C19        -0.8270    4.0947    5.2046 C.ar      1 <0>         0.5265
     21 N2         -1.2769    3.4615    6.2785 N.ar      1 <0>        -0.6360
     22 C20        -1.8160    2.2490    6.1902 C.ar      1 <0>         0.6333
     23 N3         -1.9398    1.6018    5.0467 N.ar      1 <0>        -0.6014
     24 C21        -1.5161    2.1552    3.9014 C.ar      1 <0>         0.4174
     25 N4         -1.6298    1.5231    2.7331 N.ar      1 <0>        -0.4820
     26 C22        -1.2166    2.0777    1.6153 C.ar      1 <0>         0.1914
     27 N5         -2.2665    1.6404    7.3460 N.pl3     1 <0>        -0.8116
     28 N6         -0.2697    5.3504    5.3060 N.pl3     1 <0>        -0.8143
     29 H1          2.2682   -1.3189   -0.9852 H         1 <0>         0.1283
     30 H2         -0.1209   -0.4172   -1.0845 H         1 <0>         0.1305
     31 H3         -0.5525    1.8780   -0.5667 H         1 <0>         0.1359
     32 H4          4.0658    0.1334   -0.3635 H         1 <0>         0.1269
     33 H5          4.6744    2.3592    0.9434 H         1 <0>         0.1175
     34 H6          4.9281    4.5497    0.3236 H         1 <0>         0.1183
     35 H7          4.7288    5.8428   -1.9839 H         1 <0>         0.1273
     36 H8          3.2461    7.1098   -3.3710 H         1 <0>         0.1277
     37 H9          0.7184    6.8232   -3.1270 H         1 <0>         0.1281
     38 H10        -0.1584    5.2808   -1.5226 H         1 <0>         0.1296
     39 H11        -0.3814    5.0033    0.2852 H         1 <0>         0.0998
     40 H12        -0.6874    3.4529   -0.5340 H         1 <0>         0.0717
     41 H13        -0.0399    5.0237    2.7694 H         1 <0>         0.1347
     42 H14        -1.3295    1.5369    0.6874 H         1 <0>         0.1678
     43 H15        -2.6635    0.7563    7.3056 H         1 <0>         0.4184
     44 H16        -2.1857    2.0973    8.1979 H         1 <0>         0.4154
     45 H17         0.0553    5.8024    4.5117 H         1 <0>         0.4150
     46 H18        -0.2023    5.7826    6.1718 H         1 <0>         0.4149
@<TRIPOS>BOND
     1    1    6 ar
     2    1    2 ar
     3    1   29 1
     4    2    3 ar
     5    2   30 1
     6    3    4 ar
     7    3   31 1
     8    4   15 1
     9    4    5 ar
    10    5    6 ar
    11    5    7 1
    12    6   32 1
    13    7    8 2
    14    7   33 1
    15    8    9 1
    16    8   34 1
    17    9   14 ar
    18    9   10 ar
    19   10   11 ar
    20   10   35 1
    21   11   12 ar
    22   11   36 1
    23   12   13 ar
    24   12   37 1
    25   13   14 ar
    26   13   38 1
    27   14   15 1
    28   15   16 1
    29   16   17 1
    30   16   39 1
    31   16   40 1
    32   17   26 ar
    33   17   18 ar
    34   18   19 ar
    35   18   41 1
    36   19   24 ar
    37   19   20 ar
    38   20   21 ar
    39   20   28 1
    40   21   22 ar
    41   22   23 ar
    42   22   27 1
    43   23   24 ar
    44   24   25 ar
    45   25   26 ar
    46   26   42 1
    47   27   43 1
    48   27   44 1
    49   28   45 1
    50   28   46 1
@<TRIPOS>MOLECULE
ZINC03814872
   47    51     0     0     0
SMALL
USER_CHARGES

@<TRIPOS>ATOM
      1 C1          2.0698   -0.2843   -0.7476 C.ar      1 <0>        -0.1290
      2 C2          0.6929    0.2359   -0.8059 C.ar      1 <0>        -0.0850
      3 C3          0.4566    1.4962   -0.5188 C.ar      1 <0>        -0.1770
      4 C4          1.5653    2.3954   -0.1365 C.ar      1 <0>         0.1063
      5 C5          2.7901    1.9301   -0.0803 C.ar      1 <0>        -0.0614
      6 C6          3.0561    0.5142   -0.4060 C.ar      1 <0>        -0.0839
      7 C7          3.9112    2.7908    0.3128 C.2       1 <0>        -0.0980
      8 C8          4.0547    4.0267   -0.0369 C.2       1 <0>        -0.0898
      9 C9          3.1202    4.7727   -0.8871 C.ar      1 <0>        -0.0629
     10 C10         3.6605    5.7209   -1.8823 C.ar      1 <0>        -0.0879
     11 C11         2.8473    6.4172   -2.6445 C.ar      1 <0>        -0.1258
     12 C12         1.3904    6.2502   -2.5053 C.ar      1 <0>        -0.0883
     13 C13         0.9099    5.4032   -1.6232 C.ar      1 <0>        -0.1580
     14 C14         1.8237    4.6168   -0.7684 C.ar      1 <0>         0.1061
     15 N1          1.2806    3.7254    0.1490 N.pl3     1 <0>        -0.4436
     16 C15        -0.1663    3.9347    0.2933 C.3       1 <0>         0.0827
     17 C16        -0.6327    3.3383    1.5963 C.ar      1 <0>        -0.1380
     18 C17        -0.4868    4.0406    2.7641 C.ar      1 <0>         0.0368
     19 C18        -0.9347    3.4463    3.9493 C.ar      1 <0>        -0.2330
     20 C19        -0.8270    4.0947    5.2046 C.ar      1 <0>         0.5726
     21 N2         -1.2769    3.4615    6.2785 N.ar      1 <0>        -0.5864
     22 C20        -1.8160    2.2490    6.1902 C.ar      1 <0>         0.7003
     23 C21        -1.5161    2.1552    3.9014 C.ar      1 <0>         0.4004
     24 N3         -1.6298    1.5231    2.7331 N.ar      1 <0>        -0.4904
     25 C22        -1.2166    2.0777    1.6153 C.ar      1 <0>         0.2148
     26 N4         -2.2665    1.6404    7.3460 N.pl3     1 <0>        -0.7813
     27 N5         -0.2697    5.3504    5.3060 N.pl3     1 <0>        -0.7597
     28 H1          2.2682   -1.3189   -0.9852 H         1 <0>         0.1324
     29 H2         -0.1209   -0.4172   -1.0845 H         1 <0>         0.1327
     30 H3         -0.5525    1.8780   -0.5667 H         1 <0>         0.1317
     31 H4          4.0658    0.1334   -0.3635 H         1 <0>         0.1313
     32 H5          4.6744    2.3592    0.9434 H         1 <0>         0.1206
     33 H6          4.9281    4.5497    0.3236 H         1 <0>         0.1223
     34 H7          4.7288    5.8428   -1.9839 H         1 <0>         0.1311
     35 H8          3.2461    7.1098   -3.3710 H         1 <0>         0.1320
     36 H9          0.7184    6.8232   -3.1270 H         1 <0>         0.1315
     37 H10        -0.1584    5.2808   -1.5226 H         1 <0>         0.1287
     38 H11        -0.3814    5.0033    0.2852 H         1 <0>         0.1134
     39 H12        -0.6874    3.4529   -0.5340 H         1 <0>         0.0833
     40 H13        -0.0399    5.0237    2.7694 H         1 <0>         0.1642
     41 H14        -1.3295    1.5369    0.6874 H         1 <0>         0.1930
     42 H15        -2.6635    0.7563    7.3056 H         1 <0>         0.4327
     43 H16        -2.1857    2.0973    8.1979 H         1 <0>         0.4449
     44 H17         0.0553    5.8024    4.5117 H         1 <0>         0.4330
     45 H18        -0.2023    5.7826    6.1718 H         1 <0>         0.4351
     46 N6         -1.9697    1.5361    5.0461 N.ar      1 <0>        -0.5952
     47 H19        -2.3878    0.6282    5.0751 H         1 <0>         0.4602
@<TRIPOS>BOND
     1    1    6 ar
     2    1    2 ar
     3    1   28 1
     4    2    3 ar
     5    2   29 1
     6    3    4 ar
     7    3   30 1
     8    4   15 1
     9    4    5 ar
    10    5    6 ar
    11    5    7 1
    12    6   31 1
    13    7    8 2
    14    7   32 1
    15    8    9 1
    16    8   33 1
    17    9   14 ar
    18    9   10 ar
    19   10   11 ar
    20   10   34 1
    21   11   12 ar
    22   11   35 1
    23   12   13 ar
    24   12   36 1
    25   13   14 ar
    26   13   37 1
    27   14   15 1
    28   15   16 1
    29   16   17 1
    30   16   38 1
    31   16   39 1
    32   17   25 ar
    33   17   18 ar
    34   18   19 ar
    35   18   40 1
    36   19   23 ar
    37   19   20 ar
    38   20   21 ar
    39   20   27 1
    40   21   22 ar
    41   22   26 1
    42   22   46 ar
    43   23   24 ar
    44   23   46 ar
    45   24   25 ar
    46   25   41 1
    47   26   42 1
    48   26   43 1
    49   27   44 1
    50   27   45 1
    51   46   47 1
@<TRIPOS>MOLECULE
ZINC03814873
   46    50     0     0     0
SMALL
USER_CHARGES

@<TRIPOS>ATOM
      1 C1          0.6116    3.3464   -1.9781 C.ar      1 <0>        -0.1293
      2 C2          0.7351    2.2648   -0.9859 C.ar      1 <0>        -0.0978
      3 C3         -0.3123    1.5202   -0.6969 C.ar      1 <0>        -0.1450
      4 C4         -1.5951    1.7698   -1.3695 C.ar      1 <0>         0.0969
      5 C5         -1.7182    2.7464   -2.2435 C.ar      1 <0>        -0.0583
      6 C6         -0.5401    3.5740   -2.5700 C.ar      1 <0>        -0.0904
      7 C7         -3.0065    3.0325   -2.8809 C.2       1 <0>        -0.0915
      8 C8         -4.1511    2.9745   -2.2872 C.2       1 <0>        -0.0871
      9 C9         -4.3379    2.6225   -0.8774 C.ar      1 <0>        -0.0629
     10 C10        -5.3239    3.3607   -0.0635 C.ar      1 <0>        -0.0941
     11 C11        -5.4685    3.0819    1.2132 C.ar      1 <0>        -0.1281
     12 C12        -4.6494    2.0307    1.8407 C.ar      1 <0>        -0.1048
     13 C13        -3.7751    1.3637    1.1157 C.ar      1 <0>        -0.1374
     14 C14        -3.6224    1.6723   -0.3129 C.ar      1 <0>         0.0985
     15 N1         -2.7072    0.9547   -1.1010 N.pl3     1 <0>        -0.4283
     16 C15        -2.2995   -0.2889   -0.4337 C.3       1 <0>         0.0999
     17 C16        -3.5212   -1.1114   -0.1142 C.ar      1 <0>         0.1109
     18 C17        -4.4353   -1.3915   -1.1275 C.ar      1 <0>        -0.0884
     19 C18        -5.5470   -2.1398   -0.8575 C.ar      1 <0>        -0.0857
     20 C19        -5.7318   -2.5973    0.4584 C.ar      1 <0>         0.1950
     21 C20        -4.7642   -2.2695    1.4378 C.ar      1 <0>        -0.0436
     22 N2         -3.7001   -1.5414    1.1129 N.ar      1 <0>        -0.4268
     23 C21        -4.9838   -2.7599    2.7993 C.ar      1 <0>         0.5319
     24 N3         -6.0736   -3.4788    3.0277 N.ar      1 <0>        -0.6289
     25 C22        -6.9412   -3.7485    2.0573 C.ar      1 <0>         0.6193
     26 N4         -6.7920   -3.3327    0.8157 N.ar      1 <0>        -0.6112
     27 N5         -8.0575   -4.5046    2.3665 N.pl3     1 <0>        -0.8161
     28 N6         -4.0877   -2.4830    3.8099 N.pl3     1 <0>        -0.7999
     29 H1          1.4705    3.9546   -2.2206 H         1 <0>         0.1269
     30 H2          1.6809    2.0827   -0.4974 H         1 <0>         0.1281
     31 H3         -0.2275    0.7253    0.0292 H         1 <0>         0.1295
     32 H4         -0.6245    4.3681   -3.2970 H         1 <0>         0.1280
     33 H5         -3.0007    3.3031   -3.9265 H         1 <0>         0.1196
     34 H6         -5.0320    3.2071   -2.8671 H         1 <0>         0.1194
     35 H7         -5.9279    4.1321   -0.5180 H         1 <0>         0.1265
     36 H8         -6.1909    3.6254    1.8040 H         1 <0>         0.1243
     37 H9         -4.7650    1.8080    2.8912 H         1 <0>         0.1223
     38 H10        -3.1716    0.5919    1.5702 H         1 <0>         0.1386
     39 H11        -1.6418   -0.8560   -1.0924 H         1 <0>         0.1062
     40 H12        -1.7711   -0.0496    0.4892 H         1 <0>         0.0724
     41 H13        -4.2637   -1.0208   -2.1273 H         1 <0>         0.1464
     42 H14        -6.2640   -2.3695   -1.6317 H         1 <0>         0.1478
     43 H15        -8.1915   -4.8236    3.2727 H         1 <0>         0.4139
     44 H16        -8.7064   -4.7159    1.6771 H         1 <0>         0.4168
     45 H17        -3.3324   -1.8981    3.6416 H         1 <0>         0.4231
     46 H18        -4.2126   -2.8731    4.6892 H         1 <0>         0.4133
@<TRIPOS>BOND
     1    1    6 ar
     2    1    2 ar
     3    1   29 1
     4    2    3 ar
     5    2   30 1
     6    3    4 ar
     7    3   31 1
     8    4   15 1
     9    4    5 ar
    10    5    6 ar
    11    5    7 1
    12    6   32 1
    13    7    8 2
    14    7   33 1
    15    8    9 1
    16    8   34 1
    17    9   14 ar
    18    9   10 ar
    19   10   11 ar
    20   10   35 1
    21   11   12 ar
    22   11   36 1
    23   12   13 ar
    24   12   37 1
    25   13   14 ar
    26   13   38 1
    27   14   15 1
    28   15   16 1
    29   16   17 1
    30   16   39 1
    31   16   40 1
    32   17   22 ar
    33   17   18 ar
    34   18   19 ar
    35   18   41 1
    36   19   20 ar
    37   19   42 1
    38   20   26 ar
    39   20   21 ar
    40   21   22 ar
    41   21   23 ar
    42   23   24 ar
    43   23   28 1
    44   24   25 ar
    45   25   26 ar
    46   25   27 1
    47   27   43 1
    48   27   44 1
    49   28   45 1
    50   28   46 1
@<TRIPOS>MOLECULE
ZINC03814873
   47    51     0     0     0
SMALL
USER_CHARGES

@<TRIPOS>ATOM
      1 C1          0.6116    3.3464   -1.9781 C.ar      1 <0>        -0.1231
      2 C2          0.7351    2.2648   -0.9859 C.ar      1 <0>        -0.0901
      3 C3         -0.3123    1.5202   -0.6969 C.ar      1 <0>        -0.1501
      4 C4         -1.5951    1.7698   -1.3695 C.ar      1 <0>         0.0883
      5 C5         -1.7182    2.7464   -2.2435 C.ar      1 <0>        -0.0525
      6 C6         -0.5401    3.5740   -2.5700 C.ar      1 <0>        -0.0910
      7 C7         -3.0065    3.0325   -2.8809 C.2       1 <0>        -0.0823
      8 C8         -4.1511    2.9745   -2.2872 C.2       1 <0>        -0.0981
      9 C9         -4.3379    2.6225   -0.8774 C.ar      1 <0>        -0.0490
     10 C10        -5.3239    3.3607   -0.0635 C.ar      1 <0>        -0.0901
     11 C11        -5.4685    3.0819    1.2132 C.ar      1 <0>        -0.1279
     12 C12        -4.6494    2.0307    1.8407 C.ar      1 <0>        -0.1004
     13 C13        -3.7751    1.3637    1.1157 C.ar      1 <0>        -0.1509
     14 C14        -3.6224    1.6723   -0.3129 C.ar      1 <0>         0.0796
     15 N1         -2.7072    0.9547   -1.1010 N.pl3     1 <0>        -0.4257
     16 C15        -2.2995   -0.2889   -0.4337 C.3       1 <0>         0.0863
     17 C16        -3.5212   -1.1114   -0.1142 C.ar      1 <0>         0.1574
     18 C17        -4.4353   -1.3915   -1.1275 C.ar      1 <0>        -0.0532
     19 C18        -5.5470   -2.1398   -0.8575 C.ar      1 <0>        -0.0965
     20 C19        -5.7318   -2.5973    0.4584 C.ar      1 <0>         0.1411
     21 C20        -4.7642   -2.2695    1.4378 C.ar      1 <0>         0.0299
     22 N2         -3.7001   -1.5414    1.1129 N.ar      1 <0>        -0.4132
     23 C21        -4.9838   -2.7599    2.7993 C.ar      1 <0>         0.5762
     24 N3         -6.0736   -3.4788    3.0277 N.ar      1 <0>        -0.5794
     25 C22        -6.9412   -3.7485    2.0573 C.ar      1 <0>         0.7003
     26 N4         -8.0575   -4.5046    2.3665 N.pl3     1 <0>        -0.7852
     27 N5         -4.0877   -2.4830    3.8099 N.pl3     1 <0>        -0.7397
     28 H1          1.4705    3.9546   -2.2206 H         1 <0>         0.1314
     29 H2          1.6809    2.0827   -0.4974 H         1 <0>         0.1315
     30 H3         -0.2275    0.7253    0.0292 H         1 <0>         0.1285
     31 H4         -0.6245    4.3681   -3.2970 H         1 <0>         0.1318
     32 H5         -3.0007    3.3031   -3.9265 H         1 <0>         0.1240
     33 H6         -5.0320    3.2071   -2.8671 H         1 <0>         0.1227
     34 H7         -5.9279    4.1321   -0.5180 H         1 <0>         0.1311
     35 H8         -6.1909    3.6254    1.8040 H         1 <0>         0.1284
     36 H9         -4.7650    1.8080    2.8912 H         1 <0>         0.1240
     37 H10        -3.1716    0.5919    1.5702 H         1 <0>         0.1343
     38 H11        -1.6418   -0.8560   -1.0924 H         1 <0>         0.1212
     39 H12        -1.7711   -0.0496    0.4892 H         1 <0>         0.0838
     40 H13        -4.2637   -1.0208   -2.1273 H         1 <0>         0.1722
     41 H14        -6.2640   -2.3695   -1.6317 H         1 <0>         0.1700
     42 H15        -8.1915   -4.8236    3.2727 H         1 <0>         0.4435
     43 H16        -8.7064   -4.7159    1.6771 H         1 <0>         0.4316
     44 H17        -3.3324   -1.8981    3.6416 H         1 <0>         0.4416
     45 H18        -4.2126   -2.8731    4.6892 H         1 <0>         0.4342
     46 N6         -6.8437   -3.3506    0.7646 N.ar      1 <0>        -0.6037
     47 H19        -7.5116   -3.5683    0.0529 H         1 <0>         0.4572
@<TRIPOS>BOND
     1    1    6 ar
     2    1    2 ar
     3    1   28 1
     4    2    3 ar
     5    2   29 1
     6    3    4 ar
     7    3   30 1
     8    4   15 1
     9    4    5 ar
    10    5    6 ar
    11    5    7 1
    12    6   31 1
    13    7    8 2
    14    7   32 1
    15    8    9 1
    16    8   33 1
    17    9   14 ar
    18    9   10 ar
    19   10   11 ar
    20   10   34 1
    21   11   12 ar
    22   11   35 1
    23   12   13 ar
    24   12   36 1
    25   13   14 ar
    26   13   37 1
    27   14   15 1
    28   15   16 1
    29   16   17 1
    30   16   38 1
    31   16   39 1
    32   17   22 ar
    33   17   18 ar
    34   18   19 ar
    35   18   40 1
    36   19   20 ar
    37   19   41 1
    38   20   21 ar
    39   20   46 ar
    40   21   22 ar
    41   21   23 ar
    42   23   24 ar
    43   23   27 1
    44   24   25 ar
    45   25   26 1
    46   25   46 ar
    47   26   42 1
    48   26   43 1
    49   27   44 1
    50   27   45 1
    51   46   47 1
@<TRIPOS>MOLECULE
ZINC03814874
   49    53     0     0     0
SMALL
USER_CHARGES

@<TRIPOS>ATOM
      1 C1         -0.5738   -5.0877   -3.9747 C.ar      1 <0>        -0.1132
      2 C2          0.0732   -4.2762   -3.0595 C.ar      1 <0>        -0.1237
      3 C3         -0.5139   -4.0598   -1.8393 C.ar      1 <0>        -0.1037
      4 C4         -1.7592   -4.6349   -1.5010 C.ar      1 <0>        -0.0707
      5 C5         -2.4197   -5.3488   -2.4076 C.ar      1 <0>        -0.0572
      6 C6         -1.7999   -5.6069   -3.6519 C.ar      1 <0>        -0.1339
      7 C7         -3.8037   -5.9640   -2.3907 C.3       1 <0>        -0.0755
      8 C8         -4.1558   -6.6890   -1.1298 C.3       1 <0>        -0.0757
      9 C9         -4.1724   -5.8289    0.1149 C.ar      1 <0>        -0.0578
     10 C10        -5.3008   -6.1645    0.9009 C.ar      1 <0>        -0.1342
     11 C11        -5.4974   -5.6386    2.1506 C.ar      1 <0>        -0.1138
     12 C12        -4.5700   -4.7474    2.6600 C.ar      1 <0>        -0.1236
     13 C13        -3.4983   -4.3942    1.8794 C.ar      1 <0>        -0.1059
     14 C14        -3.3200   -4.9257    0.5844 C.ar      1 <0>        -0.0749
     15 C15        -2.1411   -4.3562   -0.1019 C.3       1 <0>         0.2299
     16 N1         -2.2668   -2.9006    0.0067 N.pl3     1 <0>        -0.7461
     17 C16        -1.3267   -2.1704    0.7411 C.ar      1 <0>         0.1802
     18 C17        -0.5529   -2.8147    1.7106 C.ar      1 <0>        -0.1240
     19 C18         0.3698   -2.1281    2.4403 C.ar      1 <0>        -0.0822
     20 C19         0.5514   -0.7557    2.2212 C.ar      1 <0>         0.1943
     21 C20        -0.2294   -0.0965    1.2411 C.ar      1 <0>        -0.1888
     22 C21        -1.1718   -0.8201    0.5024 C.ar      1 <0>        -0.1407
     23 C22        -0.0250    1.2916    1.0406 C.ar      1 <0>         0.5013
     24 N2          0.8867    1.9060    1.7796 N.ar      1 <0>        -0.6299
     25 C23         1.5992    1.2484    2.6903 C.ar      1 <0>         0.5998
     26 N3          1.4499   -0.0420    2.9177 N.ar      1 <0>        -0.6029
     27 N4          2.5367    1.9479    3.4302 N.pl3     1 <0>        -0.8244
     28 N5         -0.7530    1.9841    0.0958 N.pl3     1 <0>        -0.8221
     29 H1         -0.1192   -5.3081   -4.9292 H         1 <0>         0.1228
     30 H2          1.0227   -3.8222   -3.3015 H         1 <0>         0.1234
     31 H3         -0.0114   -3.4321   -1.1183 H         1 <0>         0.1205
     32 H4         -2.3089   -6.2323   -4.3703 H         1 <0>         0.1195
     33 H5         -3.8791   -6.6642   -3.2226 H         1 <0>         0.0801
     34 H6         -4.5347   -5.1706   -2.5469 H         1 <0>         0.0738
     35 H7         -3.4353   -7.4935   -0.9827 H         1 <0>         0.0759
     36 H8         -5.1428   -7.1348   -1.2533 H         1 <0>         0.0808
     37 H9         -6.0286   -6.8564    0.5036 H         1 <0>         0.1195
     38 H10        -6.3650   -5.9165    2.7306 H         1 <0>         0.1223
     39 H11        -4.6874   -4.3375    3.6523 H         1 <0>         0.1240
     40 H12        -2.7739   -3.6923    2.2652 H         1 <0>         0.1253
     41 H13        -1.2767   -4.6183    0.5083 H         1 <0>         0.0936
     42 H14        -3.0019   -2.4434   -0.4307 H         1 <0>         0.3996
     43 H15        -0.6883   -3.8722    1.8834 H         1 <0>         0.1311
     44 H16         0.9599   -2.6399    3.1861 H         1 <0>         0.1381
     45 H17        -1.7725   -0.3265   -0.2473 H         1 <0>         0.1208
     46 H18         3.0673    1.4883    4.0996 H         1 <0>         0.4140
     47 H19         2.6630    2.8977    3.2794 H         1 <0>         0.4110
     48 H20        -1.4148    1.5212   -0.4415 H         1 <0>         0.4130
     49 H21        -0.6032    2.9340   -0.0313 H         1 <0>         0.4105
@<TRIPOS>BOND
     1    1    6 ar
     2    1    2 ar
     3    1   29 1
     4    2    3 ar
     5    2   30 1
     6    3    4 ar
     7    3   31 1
     8    4   15 1
     9    4    5 ar
    10    5    6 ar
    11    5    7 1
    12    6   32 1
    13    7    8 1
    14    7   33 1
    15    7   34 1
    16    8    9 1
    17    8   35 1
    18    8   36 1
    19    9   14 ar
    20    9   10 ar
    21   10   11 ar
    22   10   37 1
    23   11   12 ar
    24   11   38 1
    25   12   13 ar
    26   12   39 1
    27   13   14 ar
    28   13   40 1
    29   14   15 1
    30   15   16 1
    31   15   41 1
    32   16   17 1
    33   16   42 1
    34   17   22 ar
    35   17   18 ar
    36   18   19 ar
    37   18   43 1
    38   19   20 ar
    39   19   44 1
    40   20   26 ar
    41   20   21 ar
    42   21   22 ar
    43   21   23 ar
    44   22   45 1
    45   23   24 ar
    46   23   28 1
    47   24   25 ar
    48   25   26 ar
    49   25   27 1
    50   27   46 1
    51   27   47 1
    52   28   48 1
    53   28   49 1
@<TRIPOS>MOLECULE
ZINC03814874
   50    54     0     0     0
SMALL
USER_CHARGES

@<TRIPOS>ATOM
      1 C1         -0.5738   -5.0877   -3.9747 C.ar      1 <0>        -0.1075
      2 C2          0.0732   -4.2762   -3.0595 C.ar      1 <0>        -0.1196
      3 C3         -0.5139   -4.0598   -1.8393 C.ar      1 <0>        -0.1120
      4 C4         -1.7592   -4.6349   -1.5010 C.ar      1 <0>        -0.0826
      5 C5         -2.4197   -5.3488   -2.4076 C.ar      1 <0>        -0.0482
      6 C6         -1.7999   -5.6069   -3.6519 C.ar      1 <0>        -0.1284
      7 C7         -3.8037   -5.9640   -2.3907 C.3       1 <0>        -0.0792
      8 C8         -4.1558   -6.6890   -1.1298 C.3       1 <0>        -0.0798
      9 C9         -4.1724   -5.8289    0.1149 C.ar      1 <0>        -0.0493
     10 C10        -5.3008   -6.1645    0.9009 C.ar      1 <0>        -0.1284
     11 C11        -5.4974   -5.6386    2.1506 C.ar      1 <0>        -0.1084
     12 C12        -4.5700   -4.7474    2.6600 C.ar      1 <0>        -0.1187
     13 C13        -3.4983   -4.3942    1.8794 C.ar      1 <0>        -0.1148
     14 C14        -3.3200   -4.9257    0.5844 C.ar      1 <0>        -0.0863
     15 C15        -2.1411   -4.3562   -0.1019 C.3       1 <0>         0.2354
     16 N1         -2.2668   -2.9006    0.0067 N.pl3     1 <0>        -0.7286
     17 C16        -1.3267   -2.1704    0.7411 C.ar      1 <0>         0.2222
     18 C17        -0.5529   -2.8147    1.7106 C.ar      1 <0>        -0.1021
     19 C18         0.3698   -2.1281    2.4403 C.ar      1 <0>        -0.0953
     20 C19         0.5514   -0.7557    2.2212 C.ar      1 <0>         0.1341
     21 C20        -0.2294   -0.0965    1.2411 C.ar      1 <0>        -0.1302
     22 C21        -1.1718   -0.8201    0.5024 C.ar      1 <0>        -0.1311
     23 C22        -0.0250    1.2916    1.0406 C.ar      1 <0>         0.5592
     24 N2          0.8867    1.9060    1.7796 N.ar      1 <0>        -0.5874
     25 C23         1.5992    1.2484    2.6903 C.ar      1 <0>         0.6905
     26 N3          2.5367    1.9479    3.4302 N.pl3     1 <0>        -0.7941
     27 N4         -0.7530    1.9841    0.0958 N.pl3     1 <0>        -0.7673
     28 H1         -0.1192   -5.3081   -4.9292 H         1 <0>         0.1275
     29 H2          1.0227   -3.8222   -3.3015 H         1 <0>         0.1252
     30 H3         -0.0114   -3.4321   -1.1183 H         1 <0>         0.1132
     31 H4         -2.3089   -6.2323   -4.3703 H         1 <0>         0.1247
     32 H5         -3.8791   -6.6642   -3.2226 H         1 <0>         0.0850
     33 H6         -4.5347   -5.1706   -2.5469 H         1 <0>         0.0769
     34 H7         -3.4353   -7.4935   -0.9827 H         1 <0>         0.0795
     35 H8         -5.1428   -7.1348   -1.2533 H         1 <0>         0.0857
     36 H9         -6.0286   -6.8564    0.5036 H         1 <0>         0.1246
     37 H10        -6.3650   -5.9165    2.7306 H         1 <0>         0.1270
     38 H11        -4.6874   -4.3375    3.6523 H         1 <0>         0.1259
     39 H12        -2.7739   -3.6923    2.2652 H         1 <0>         0.1174
     40 H13        -1.2767   -4.6183    0.5083 H         1 <0>         0.0928
     41 H14        -3.0019   -2.4434   -0.4307 H         1 <0>         0.4099
     42 H15        -0.6883   -3.8722    1.8834 H         1 <0>         0.1527
     43 H16         0.9599   -2.6399    3.1861 H         1 <0>         0.1558
     44 H17        -1.7725   -0.3265   -0.2473 H         1 <0>         0.1466
     45 H18         3.0673    1.4883    4.0996 H         1 <0>         0.4291
     46 H19         2.6630    2.8977    3.2794 H         1 <0>         0.4407
     47 H20        -1.4148    1.5212   -0.4415 H         1 <0>         0.4313
     48 H21        -0.6032    2.9340   -0.0313 H         1 <0>         0.4312
     49 N5          1.4901   -0.0739    2.9675 N.ar      1 <0>        -0.5991
     50 H22         2.0309   -0.5590    3.6547 H         1 <0>         0.4547
@<TRIPOS>BOND
     1    1    6 ar
     2    1    2 ar
     3    1   28 1
     4    2    3 ar
     5    2   29 1
     6    3    4 ar
     7    3   30 1
     8    4   15 1
     9    4    5 ar
    10    5    6 ar
    11    5    7 1
    12    6   31 1
    13    7    8 1
    14    7   32 1
    15    7   33 1
    16    8    9 1
    17    8   34 1
    18    8   35 1
    19    9   14 ar
    20    9   10 ar
    21   10   11 ar
    22   10   36 1
    23   11   12 ar
    24   11   37 1
    25   12   13 ar
    26   12   38 1
    27   13   14 ar
    28   13   39 1
    29   14   15 1
    30   15   16 1
    31   15   40 1
    32   16   17 1
    33   16   41 1
    34   17   22 ar
    35   17   18 ar
    36   18   19 ar
    37   18   42 1
    38   19   20 ar
    39   19   43 1
    40   20   21 ar
    41   20   49 ar
    42   21   22 ar
    43   21   23 ar
    44   22   44 1
    45   23   24 ar
    46   23   27 1
    47   24   25 ar
    48   25   26 1
    49   25   49 ar
    50   26   45 1
    51   26   46 1
    52   27   47 1
    53   27   48 1
    54   49   50 1
@<TRIPOS>MOLECULE
ZINC03814875
   51    53     0     0     0
SMALL
USER_CHARGES

@<TRIPOS>ATOM
      1 C1         -1.3570    9.4176   -3.4545 C.3       1 <0>         0.0258
      2 O1         -0.6046   10.2585   -2.5777 O.3       1 <0>        -0.3010
      3 C2          0.3024    9.6507   -1.7670 C.ar      1 <0>         0.1939
      4 C3          0.4632    8.2748   -1.8156 C.ar      1 <0>        -0.3088
      5 C4          1.3897    7.6542   -0.9886 C.ar      1 <0>         0.2868
      6 C5          2.1517    8.4104   -0.1083 C.ar      1 <0>        -0.3085
      7 C6          1.9953    9.7870   -0.0620 C.ar      1 <0>         0.1937
      8 C7          1.0684   10.4089   -0.8898 C.ar      1 <0>        -0.0291
      9 O2          0.9112   11.7609   -0.8418 O.3       1 <0>        -0.3096
     10 C8         -0.0567   12.2692    0.0784 C.3       1 <0>         0.0334
     11 O3          2.7451   10.5282    0.7970 O.3       1 <0>        -0.3010
     12 C9          3.6780    9.8229    1.6182 C.3       1 <0>         0.0256
     13 N1          1.5516    6.2654   -1.0383 N.pl3     1 <0>        -0.7398
     14 C10         2.5291    5.6102   -0.1658 C.3       1 <0>         0.1282
     15 C11         2.5064    4.1012   -0.4172 C.3       1 <0>        -0.0969
     16 H1          2.6632    3.9040   -1.4777 H         1 <0>         0.0834
     17 C12         3.6126    3.4256    0.4016 C.3       1 <0>        -0.1094
     18 C13         3.7211    1.9671   -0.0405 C.3       1 <0>        -0.0704
     19 C14         2.3684    1.3082   -0.0189 C.ar      1 <0>         0.2492
     20 C15         1.1968    2.0244    0.0015 C.ar      1 <0>        -0.3028
     21 C16        -0.0159    1.3236    0.0093 C.ar      1 <0>         0.4819
     22 N2          0.0021   -0.0041    0.0020 N.ar      1 <0>        -0.6299
     23 C17         1.1532   -0.6590   -0.0129 C.ar      1 <0>         0.6047
     24 N3          2.3123   -0.0214   -0.0240 N.ar      1 <0>        -0.6104
     25 N4          1.1432   -2.0429   -0.0173 N.pl3     1 <0>        -0.8222
     26 N5         -1.2204    2.0079    0.0188 N.pl3     1 <0>        -0.8349
     27 C18         1.1600    3.5274    0.0228 C.3       1 <0>        -0.0463
     28 H2         -2.0419   10.0274   -4.0438 H         1 <0>         0.1019
     29 H3         -0.6773    8.8872   -4.1213 H         1 <0>         0.0575
     30 H4         -1.9260    8.6969   -2.8672 H         1 <0>         0.0559
     31 H5         -0.1320    7.6854   -2.4972 H         1 <0>         0.1315
     32 H6          2.8693    7.9266    0.5376 H         1 <0>         0.1339
     33 H7         -1.0396   11.8687   -0.1700 H         1 <0>         0.0408
     34 H8          0.2123   11.9694    1.0913 H         1 <0>         0.0409
     35 H9         -0.0813   13.3571    0.0159 H         1 <0>         0.0888
     36 H10         3.1440    9.1047    2.2403 H         1 <0>         0.0560
     37 H11         4.3924    9.2956    0.9860 H         1 <0>         0.0575
     38 H12         4.2093   10.5306    2.2547 H         1 <0>         0.1021
     39 H13         1.0165    5.7364   -1.6504 H         1 <0>         0.4009
     40 H14         2.2771    5.8088    0.8759 H         1 <0>         0.0640
     41 H15         3.5248    5.9991   -0.3792 H         1 <0>         0.0656
     42 H16         3.3622    3.4693    1.4616 H         1 <0>         0.0725
     43 H17         4.5619    3.9324    0.2284 H         1 <0>         0.0799
     44 H18         4.3918    1.4350    0.6341 H         1 <0>         0.0927
     45 H19         4.1255    1.9263   -1.0519 H         1 <0>         0.0907
     46 H20         0.2997   -2.5219   -0.0096 H         1 <0>         0.4130
     47 H21         1.9797   -2.5339   -0.0282 H         1 <0>         0.4150
     48 H22        -2.0571    1.5170    0.0201 H         1 <0>         0.4070
     49 H23        -1.2272    2.9778    0.0241 H         1 <0>         0.4113
     50 H24         0.9361    3.8681    1.0337 H         1 <0>         0.0714
     51 H25         0.3805    3.8784   -0.6534 H         1 <0>         0.0635
@<TRIPOS>BOND
     1    1    2 1
     2    1   28 1
     3    1   29 1
     4    1   30 1
     5    2    3 1
     6    3    8 ar
     7    3    4 ar
     8    4    5 ar
     9    4   31 1
    10    5    6 ar
    11    5   13 1
    12    6    7 ar
    13    6   32 1
    14    7    8 ar
    15    7   11 1
    16    8    9 1
    17    9   10 1
    18   10   33 1
    19   10   34 1
    20   10   35 1
    21   11   12 1
    22   12   36 1
    23   12   37 1
    24   12   38 1
    25   13   14 1
    26   13   39 1
    27   14   15 1
    28   14   40 1
    29   14   41 1
    30   15   16 1
    31   15   27 1
    32   15   17 1
    33   17   18 1
    34   17   42 1
    35   17   43 1
    36   18   19 1
    37   18   44 1
    38   18   45 1
    39   19   24 ar
    40   19   20 ar
    41   20   21 ar
    42   20   27 1
    43   21   22 ar
    44   21   26 1
    45   22   23 ar
    46   23   24 ar
    47   23   25 1
    48   25   46 1
    49   25   47 1
    50   26   48 1
    51   26   49 1
    52   27   50 1
    53   27   51 1
@<TRIPOS>MOLECULE
ZINC03814875
   52    54     0     0     0
SMALL
USER_CHARGES

@<TRIPOS>ATOM
      1 C1         -1.3570    9.4176   -3.4545 C.3       1 <0>         0.0259
      2 O1         -0.6046   10.2585   -2.5777 O.3       1 <0>        -0.2983
      3 C2          0.3024    9.6507   -1.7670 C.ar      1 <0>         0.1943
      4 C3          0.4632    8.2748   -1.8156 C.ar      1 <0>        -0.3058
      5 C4          1.3897    7.6542   -0.9886 C.ar      1 <0>         0.2790
      6 C5          2.1517    8.4104   -0.1083 C.ar      1 <0>        -0.3067
      7 C6          1.9953    9.7870   -0.0620 C.ar      1 <0>         0.1936
      8 C7          1.0684   10.4089   -0.8898 C.ar      1 <0>        -0.0206
      9 O2          0.9112   11.7609   -0.8418 O.3       1 <0>        -0.3094
     10 C8         -0.0567   12.2692    0.0784 C.3       1 <0>         0.0337
     11 O3          2.7451   10.5282    0.7970 O.3       1 <0>        -0.2982
     12 C9          3.6780    9.8229    1.6182 C.3       1 <0>         0.0260
     13 N1          1.5516    6.2654   -1.0383 N.pl3     1 <0>        -0.7468
     14 C10         2.5291    5.6102   -0.1658 C.3       1 <0>         0.1283
     15 C11         2.5064    4.1012   -0.4172 C.3       1 <0>        -0.1005
     16 H1          2.6632    3.9040   -1.4777 H         1 <0>         0.0929
     17 C12         3.6126    3.4256    0.4016 C.3       1 <0>        -0.1135
     18 C13         3.7211    1.9671   -0.0405 C.3       1 <0>        -0.1062
     19 C14         2.3684    1.3082   -0.0189 C.ar      1 <0>         0.2383
     20 C15         1.1968    2.0244    0.0015 C.ar      1 <0>        -0.2199
     21 C16        -0.0159    1.3236    0.0093 C.ar      1 <0>         0.5351
     22 N2          0.0021   -0.0041    0.0020 N.ar      1 <0>        -0.5703
     23 C17         1.1532   -0.6590   -0.0129 C.ar      1 <0>         0.6724
     24 N3          1.1432   -2.0429   -0.0173 N.pl3     1 <0>        -0.7918
     25 N4         -1.2204    2.0079    0.0188 N.pl3     1 <0>        -0.7755
     26 C18         1.1600    3.5274    0.0228 C.3       1 <0>        -0.0684
     27 H2         -2.0419   10.0274   -4.0438 H         1 <0>         0.1044
     28 H3         -0.6773    8.8872   -4.1213 H         1 <0>         0.0575
     29 H4         -1.9260    8.6969   -2.8672 H         1 <0>         0.0553
     30 H5         -0.1320    7.6854   -2.4972 H         1 <0>         0.1316
     31 H6          2.8693    7.9266    0.5376 H         1 <0>         0.1330
     32 H7         -1.0396   11.8687   -0.1700 H         1 <0>         0.0420
     33 H8          0.2123   11.9694    1.0913 H         1 <0>         0.0420
     34 H9         -0.0813   13.3571    0.0159 H         1 <0>         0.0921
     35 H10         3.1440    9.1047    2.2403 H         1 <0>         0.0551
     36 H11         4.3924    9.2956    0.9860 H         1 <0>         0.0570
     37 H12         4.2093   10.5306    2.2547 H         1 <0>         0.1045
     38 H13         1.0165    5.7364   -1.6504 H         1 <0>         0.3986
     39 H14         2.2771    5.8088    0.8759 H         1 <0>         0.0681
     40 H15         3.5248    5.9991   -0.3792 H         1 <0>         0.0717
     41 H16         3.3622    3.4693    1.4616 H         1 <0>         0.0853
     42 H17         4.5619    3.9324    0.2284 H         1 <0>         0.1002
     43 H18         4.3918    1.4350    0.6341 H         1 <0>         0.1127
     44 H19         4.1255    1.9263   -1.0519 H         1 <0>         0.1201
     45 H20         0.2997   -2.5219   -0.0096 H         1 <0>         0.4429
     46 H21         1.9797   -2.5339   -0.0282 H         1 <0>         0.4304
     47 H22        -2.0571    1.5170    0.0201 H         1 <0>         0.4294
     48 H23        -1.2272    2.9778    0.0241 H         1 <0>         0.4319
     49 H24         0.9361    3.8681    1.0337 H         1 <0>         0.1004
     50 H25         0.3805    3.8784   -0.6534 H         1 <0>         0.0888
     51 N5          2.3774   -0.0619   -0.0250 N.ar      1 <0>        -0.6012
     52 H26         3.2466   -0.5562   -0.0375 H         1 <0>         0.4587
@<TRIPOS>BOND
     1    1    2 1
     2    1   27 1
     3    1   28 1
     4    1   29 1
     5    2    3 1
     6    3    8 ar
     7    3    4 ar
     8    4    5 ar
     9    4   30 1
    10    5    6 ar
    11    5   13 1
    12    6    7 ar
    13    6   31 1
    14    7    8 ar
    15    7   11 1
    16    8    9 1
    17    9   10 1
    18   10   32 1
    19   10   33 1
    20   10   34 1
    21   11   12 1
    22   12   35 1
    23   12   36 1
    24   12   37 1
    25   13   14 1
    26   13   38 1
    27   14   15 1
    28   14   39 1
    29   14   40 1
    30   15   16 1
    31   15   26 1
    32   15   17 1
    33   17   18 1
    34   17   41 1
    35   17   42 1
    36   18   19 1
    37   18   43 1
    38   18   44 1
    39   19   20 ar
    40   19   51 ar
    41   20   21 ar
    42   20   26 1
    43   21   22 ar
    44   21   25 1
    45   22   23 ar
    46   23   24 1
    47   23   51 ar
    48   24   45 1
    49   24   46 1
    50   25   47 1
    51   25   48 1
    52   26   49 1
    53   26   50 1
    54   51   52 1
@<TRIPOS>MOLECULE
ZINC03814876
   42    44     0     0     0
SMALL
USER_CHARGES

@<TRIPOS>ATOM
      1 C1          1.9521    6.7286   -2.3691 C.3       1 <0>         0.0869
      2 N1          1.5516    6.2654   -1.0383 N.pl3     1 <0>        -0.6211
      3 C2          2.5291    5.6102   -0.1658 C.3       1 <0>         0.1248
      4 C3          2.5064    4.1012   -0.4172 C.3       1 <0>        -0.1058
      5 H1          2.6632    3.9040   -1.4777 H         1 <0>         0.0794
      6 C4          3.6126    3.4256    0.4016 C.3       1 <0>        -0.1113
      7 C5          3.7211    1.9671   -0.0405 C.3       1 <0>        -0.0692
      8 C6          2.3684    1.3082   -0.0189 C.ar      1 <0>         0.2469
      9 C7          1.1968    2.0244    0.0015 C.ar      1 <0>        -0.3006
     10 C8         -0.0159    1.3236    0.0093 C.ar      1 <0>         0.4826
     11 N2          0.0021   -0.0041    0.0020 N.ar      1 <0>        -0.6301
     12 C9          1.1532   -0.6590   -0.0129 C.ar      1 <0>         0.6037
     13 N3          2.3123   -0.0214   -0.0240 N.ar      1 <0>        -0.6117
     14 N4          1.1432   -2.0429   -0.0173 N.pl3     1 <0>        -0.8231
     15 N5         -1.2204    2.0079    0.0188 N.pl3     1 <0>        -0.8333
     16 C10         1.1600    3.5274    0.0228 C.3       1 <0>        -0.0485
     17 C11         0.2370    6.4485   -0.6011 C.ar      1 <0>         0.2369
     18 C12        -0.1455    6.0046    0.6585 C.ar      1 <0>        -0.1898
     19 C13        -1.4436    6.1922    1.0911 C.ar      1 <0>        -0.0517
     20 C14        -2.3666    6.8111    0.2667 C.ar      1 <0>        -0.0920
     21 C15        -1.9902    7.2493   -0.9919 C.ar      1 <0>         0.0209
     22 C16        -0.6905    7.0694   -1.4271 C.ar      1 <0>        -0.1840
     23 Cl1        -3.1510    8.0253   -2.0234 Cl        1 <0>        -0.0489
     24 Cl2        -3.9991    7.0392    0.8112 Cl        1 <0>        -0.0580
     25 H2          1.7928    5.9309   -3.0947 H         1 <0>         0.0531
     26 H3          1.3546    7.5969   -2.6467 H         1 <0>         0.0705
     27 H4          3.0070    7.0027   -2.3562 H         1 <0>         0.0725
     28 H5          2.2771    5.8088    0.8759 H         1 <0>         0.0803
     29 H6          3.5248    5.9991   -0.3792 H         1 <0>         0.0837
     30 H7          3.3622    3.4693    1.4616 H         1 <0>         0.0710
     31 H8          4.5619    3.9324    0.2284 H         1 <0>         0.0776
     32 H9          4.3918    1.4350    0.6341 H         1 <0>         0.0908
     33 H10         4.1255    1.9263   -1.0519 H         1 <0>         0.0886
     34 H11         0.2997   -2.5219   -0.0096 H         1 <0>         0.4126
     35 H12         1.9797   -2.5339   -0.0282 H         1 <0>         0.4144
     36 H13        -2.0571    1.5170    0.0201 H         1 <0>         0.4066
     37 H14        -1.2272    2.9778    0.0241 H         1 <0>         0.4116
     38 H15         0.9361    3.8681    1.0337 H         1 <0>         0.0708
     39 H16         0.3805    3.8784   -0.6534 H         1 <0>         0.0675
     40 H17         0.5730    5.5175    1.3010 H         1 <0>         0.1424
     41 H18        -1.7397    5.8514    2.0722 H         1 <0>         0.1412
     42 H19        -0.3969    7.4112   -2.4087 H         1 <0>         0.1414
@<TRIPOS>BOND
     1    1    2 1
     2    1   25 1
     3    1   26 1
     4    1   27 1
     5    2    3 1
     6    2   17 1
     7    3    4 1
     8    3   28 1
     9    3   29 1
    10    4    5 1
    11    4   16 1
    12    4    6 1
    13    6    7 1
    14    6   30 1
    15    6   31 1
    16    7    8 1
    17    7   32 1
    18    7   33 1
    19    8   13 ar
    20    8    9 ar
    21    9   10 ar
    22    9   16 1
    23   10   11 ar
    24   10   15 1
    25   11   12 ar
    26   12   13 ar
    27   12   14 1
    28   14   34 1
    29   14   35 1
    30   15   36 1
    31   15   37 1
    32   16   38 1
    33   16   39 1
    34   17   22 ar
    35   17   18 ar
    36   18   19 ar
    37   18   40 1
    38   19   20 ar
    39   19   41 1
    40   20   21 ar
    41   20   24 1
    42   21   22 ar
    43   21   23 1
    44   22   42 1
@<TRIPOS>MOLECULE
ZINC03814876
   43    45     0     0     0
SMALL
USER_CHARGES

@<TRIPOS>ATOM
      1 C1          1.9521    6.7286   -2.3691 C.3       1 <0>         0.0845
      2 N1          1.5516    6.2654   -1.0383 N.pl3     1 <0>        -0.6239
      3 C2          2.5291    5.6102   -0.1658 C.3       1 <0>         0.1245
      4 C3          2.5064    4.1012   -0.4172 C.3       1 <0>        -0.1097
      5 H1          2.6632    3.9040   -1.4777 H         1 <0>         0.0894
      6 C4          3.6126    3.4256    0.4016 C.3       1 <0>        -0.1151
      7 C5          3.7211    1.9671   -0.0405 C.3       1 <0>        -0.1049
      8 C6          2.3684    1.3082   -0.0189 C.ar      1 <0>         0.2351
      9 C7          1.1968    2.0244    0.0015 C.ar      1 <0>        -0.2173
     10 C8         -0.0159    1.3236    0.0093 C.ar      1 <0>         0.5349
     11 N2          0.0021   -0.0041    0.0020 N.ar      1 <0>        -0.5701
     12 C9          1.1532   -0.6590   -0.0129 C.ar      1 <0>         0.6719
     13 N3          1.1432   -2.0429   -0.0173 N.pl3     1 <0>        -0.7929
     14 N4         -1.2204    2.0079    0.0188 N.pl3     1 <0>        -0.7736
     15 C10         1.1600    3.5274    0.0228 C.3       1 <0>        -0.0728
     16 C11         0.2370    6.4485   -0.6011 C.ar      1 <0>         0.2303
     17 C12        -0.1455    6.0046    0.6585 C.ar      1 <0>        -0.2009
     18 C13        -1.4436    6.1922    1.0911 C.ar      1 <0>        -0.0536
     19 C14        -2.3666    6.8111    0.2667 C.ar      1 <0>        -0.0903
     20 C15        -1.9902    7.2493   -0.9919 C.ar      1 <0>         0.0213
     21 C16        -0.6905    7.0694   -1.4271 C.ar      1 <0>        -0.1794
     22 Cl1        -3.1510    8.0253   -2.0234 Cl        1 <0>        -0.0380
     23 Cl2        -3.9991    7.0392    0.8112 Cl        1 <0>        -0.0484
     24 H2          1.7928    5.9309   -3.0947 H         1 <0>         0.0538
     25 H3          1.3546    7.5969   -2.6467 H         1 <0>         0.0742
     26 H4          3.0070    7.0027   -2.3562 H         1 <0>         0.0750
     27 H5          2.2771    5.8088    0.8759 H         1 <0>         0.0851
     28 H6          3.5248    5.9991   -0.3792 H         1 <0>         0.0912
     29 H7          3.3622    3.4693    1.4616 H         1 <0>         0.0837
     30 H8          4.5619    3.9324    0.2284 H         1 <0>         0.0982
     31 H9          4.3918    1.4350    0.6341 H         1 <0>         0.1110
     32 H10         4.1255    1.9263   -1.0519 H         1 <0>         0.1181
     33 H11         0.2997   -2.5219   -0.0096 H         1 <0>         0.4426
     34 H12         1.9797   -2.5339   -0.0282 H         1 <0>         0.4299
     35 H13        -2.0571    1.5170    0.0201 H         1 <0>         0.4293
     36 H14        -1.2272    2.9778    0.0241 H         1 <0>         0.4320
     37 H15         0.9361    3.8681    1.0337 H         1 <0>         0.0999
     38 H16         0.3805    3.8784   -0.6534 H         1 <0>         0.0923
     39 H17         0.5730    5.5175    1.3010 H         1 <0>         0.1395
     40 H18        -1.7397    5.8514    2.0722 H         1 <0>         0.1430
     41 H19        -0.3969    7.4112   -2.4087 H         1 <0>         0.1442
     42 N5          2.3774   -0.0619   -0.0250 N.ar      1 <0>        -0.6018
     43 H20         3.2466   -0.5562   -0.0375 H         1 <0>         0.4578
@<TRIPOS>BOND
     1    1    2 1
     2    1   24 1
     3    1   25 1
     4    1   26 1
     5    2    3 1
     6    2   16 1
     7    3    4 1
     8    3   27 1
     9    3   28 1
    10    4    5 1
    11    4   15 1
    12    4    6 1
    13    6    7 1
    14    6   29 1
    15    6   30 1
    16    7    8 1
    17    7   31 1
    18    7   32 1
    19    8    9 ar
    20    8   42 ar
    21    9   10 ar
    22    9   15 1
    23   10   11 ar
    24   10   14 1
    25   11   12 ar
    26   12   13 1
    27   12   42 ar
    28   13   33 1
    29   13   34 1
    30   14   35 1
    31   14   36 1
    32   15   37 1
    33   15   38 1
    34   16   21 ar
    35   16   17 ar
    36   17   18 ar
    37   17   39 1
    38   18   19 ar
    39   18   40 1
    40   19   20 ar
    41   19   23 1
    42   20   21 ar
    43   20   22 1
    44   21   41 1
    45   42   43 1
@<TRIPOS>MOLECULE
ZINC03814877
   39    41     0     0     0
SMALL
USER_CHARGES

@<TRIPOS>ATOM
      1 C1         -0.0383   -0.1328   -7.4290 C.ar      1 <0>        -0.1604
      2 C2         -1.1085    0.7292   -7.2734 C.ar      1 <0>        -0.0477
      3 C3         -1.4298    1.2151   -6.0205 C.ar      1 <0>        -0.1136
      4 C4         -0.6758    0.8364   -4.9153 C.ar      1 <0>         0.2419
      5 C5          0.4013   -0.0245   -5.0756 C.ar      1 <0>        -0.1827
      6 C6          0.7138   -0.5120   -6.3313 C.ar      1 <0>         0.0198
      7 Cl1         2.0558   -1.5948   -6.5318 Cl        1 <0>        -0.0607
      8 N1         -0.9982    1.3260   -3.6467 N.pl3     1 <0>        -0.7367
      9 C7         -0.2027    0.9260   -2.4833 C.3       1 <0>         0.1250
     10 C8         -0.7623    1.5977   -1.2276 C.3       1 <0>        -0.0971
     11 H1         -1.8239    1.3699   -1.1325 H         1 <0>         0.0836
     12 C9         -0.0127    1.0858    0.0080 C.3       1 <0>        -0.1092
     13 C10        -0.7360    1.5826    1.2589 C.3       1 <0>        -0.0699
     14 C11        -0.9709    3.0674    1.1753 C.ar      1 <0>         0.2489
     15 C12        -0.8985    3.7641   -0.0060 C.ar      1 <0>        -0.3021
     16 C13        -1.1426    5.1431    0.0144 C.ar      1 <0>         0.4823
     17 N2         -1.4311    5.7338    1.1680 N.ar      1 <0>        -0.6299
     18 C14        -1.4868    5.0280    2.2874 C.ar      1 <0>         0.6046
     19 N3         -1.2623    3.7242    2.2954 N.ar      1 <0>        -0.6106
     20 N4         -1.7862    5.6694    3.4765 N.pl3     1 <0>        -0.8222
     21 N5         -1.0833    5.8824   -1.1557 N.pl3     1 <0>        -0.8346
     22 C15        -0.5677    3.1107   -1.3192 C.3       1 <0>        -0.0475
     23 Cl2        -2.7737    2.2966   -5.8262 Cl        1 <0>        -0.0659
     24 H2          0.2107   -0.5111   -8.4095 H         1 <0>         0.1395
     25 H3         -1.6936    1.0233   -8.1323 H         1 <0>         0.1420
     26 H4          0.9916   -0.3170   -4.2198 H         1 <0>         0.1412
     27 H5         -1.7486    1.9307   -3.5365 H         1 <0>         0.4051
     28 H6          0.8331    1.2328   -2.6286 H         1 <0>         0.0681
     29 H7         -0.2481   -0.1568   -2.3670 H         1 <0>         0.0693
     30 H8          0.0021   -0.0041    0.0020 H         1 <0>         0.0803
     31 H9          1.0088    1.4660    0.0003 H         1 <0>         0.0734
     32 H10        -1.6956    1.0731    1.3465 H         1 <0>         0.0905
     33 H11        -0.1312    1.3589    2.1377 H         1 <0>         0.0933
     34 H12        -1.8296    5.1635    4.3030 H         1 <0>         0.4149
     35 H13        -1.9528    6.6250    3.4836 H         1 <0>         0.4129
     36 H14        -0.8717    5.4453   -1.9954 H         1 <0>         0.4115
     37 H15        -1.2533    6.8372   -1.1352 H         1 <0>         0.4071
     38 H16         0.4692    3.3256   -1.5775 H         1 <0>         0.0722
     39 H17        -1.2197    3.5114   -2.0954 H         1 <0>         0.0634
@<TRIPOS>BOND
     1    1    6 ar
     2    1    2 ar
     3    1   24 1
     4    2    3 ar
     5    2   25 1
     6    3    4 ar
     7    3   23 1
     8    4    5 ar
     9    4    8 1
    10    5    6 ar
    11    5   26 1
    12    6    7 1
    13    8    9 1
    14    8   27 1
    15    9   10 1
    16    9   28 1
    17    9   29 1
    18   10   11 1
    19   10   22 1
    20   10   12 1
    21   12   13 1
    22   12   30 1
    23   12   31 1
    24   13   14 1
    25   13   32 1
    26   13   33 1
    27   14   19 ar
    28   14   15 ar
    29   15   16 ar
    30   15   22 1
    31   16   17 ar
    32   16   21 1
    33   17   18 ar
    34   18   19 ar
    35   18   20 1
    36   20   34 1
    37   20   35 1
    38   21   36 1
    39   21   37 1
    40   22   38 1
    41   22   39 1
@<TRIPOS>MOLECULE
ZINC03814877
   40    42     0     0     0
SMALL
USER_CHARGES

@<TRIPOS>ATOM
      1 C1         -0.0383   -0.1328   -7.4290 C.ar      1 <0>        -0.1512
      2 C2         -1.1085    0.7292   -7.2734 C.ar      1 <0>        -0.0473
      3 C3         -1.4298    1.2151   -6.0205 C.ar      1 <0>        -0.1092
      4 C4         -0.6758    0.8364   -4.9153 C.ar      1 <0>         0.2343
      5 C5          0.4013   -0.0245   -5.0756 C.ar      1 <0>        -0.1798
      6 C6          0.7138   -0.5120   -6.3313 C.ar      1 <0>         0.0179
      7 Cl1         2.0558   -1.5948   -6.5318 Cl        1 <0>        -0.0535
      8 N1         -0.9982    1.3260   -3.6467 N.pl3     1 <0>        -0.7442
      9 C7         -0.2027    0.9260   -2.4833 C.3       1 <0>         0.1253
     10 C8         -0.7623    1.5977   -1.2276 C.3       1 <0>        -0.1006
     11 H1         -1.8239    1.3699   -1.1325 H         1 <0>         0.0931
     12 C9         -0.0127    1.0858    0.0080 C.3       1 <0>        -0.1133
     13 C10        -0.7360    1.5826    1.2589 C.3       1 <0>        -0.1058
     14 C11        -0.9709    3.0674    1.1753 C.ar      1 <0>         0.2381
     15 C12        -0.8985    3.7641   -0.0060 C.ar      1 <0>        -0.2194
     16 C13        -1.1426    5.1431    0.0144 C.ar      1 <0>         0.5352
     17 N2         -1.4311    5.7338    1.1680 N.ar      1 <0>        -0.5702
     18 C14        -1.4868    5.0280    2.2874 C.ar      1 <0>         0.6724
     19 N3         -1.7862    5.6694    3.4765 N.pl3     1 <0>        -0.7919
     20 N4         -1.0833    5.8824   -1.1557 N.pl3     1 <0>        -0.7751
     21 C15        -0.5677    3.1107   -1.3192 C.3       1 <0>        -0.0698
     22 Cl2        -2.7737    2.2966   -5.8262 Cl        1 <0>        -0.0663
     23 H2          0.2107   -0.5111   -8.4095 H         1 <0>         0.1432
     24 H3         -1.6936    1.0233   -8.1323 H         1 <0>         0.1450
     25 H4          0.9916   -0.3170   -4.2198 H         1 <0>         0.1407
     26 H5         -1.7486    1.9307   -3.5365 H         1 <0>         0.4027
     27 H6          0.8331    1.2328   -2.6286 H         1 <0>         0.0721
     28 H7         -0.2481   -0.1568   -2.3670 H         1 <0>         0.0753
     29 H8          0.0021   -0.0041    0.0020 H         1 <0>         0.1007
     30 H9          1.0088    1.4660    0.0003 H         1 <0>         0.0862
     31 H10        -1.6956    1.0731    1.3465 H         1 <0>         0.1197
     32 H11        -0.1312    1.3589    2.1377 H         1 <0>         0.1136
     33 H12        -1.8296    5.1635    4.3030 H         1 <0>         0.4303
     34 H13        -1.9528    6.6250    3.4836 H         1 <0>         0.4428
     35 H14        -0.8717    5.4453   -1.9954 H         1 <0>         0.4321
     36 H15        -1.2533    6.8372   -1.1352 H         1 <0>         0.4295
     37 H16         0.4692    3.3256   -1.5775 H         1 <0>         0.1014
     38 H17        -1.2197    3.5114   -2.0954 H         1 <0>         0.0885
     39 N5         -1.2662    3.6859    2.3617 N.ar      1 <0>        -0.6013
     40 H18        -1.3079    3.1527    3.2067 H         1 <0>         0.4586
@<TRIPOS>BOND
     1    1    6 ar
     2    1    2 ar
     3    1   23 1
     4    2    3 ar
     5    2   24 1
     6    3    4 ar
     7    3   22 1
     8    4    5 ar
     9    4    8 1
    10    5    6 ar
    11    5   25 1
    12    6    7 1
    13    8    9 1
    14    8   26 1
    15    9   10 1
    16    9   27 1
    17    9   28 1
    18   10   11 1
    19   10   21 1
    20   10   12 1
    21   12   13 1
    22   12   29 1
    23   12   30 1
    24   13   14 1
    25   13   31 1
    26   13   32 1
    27   14   15 ar
    28   14   39 ar
    29   15   16 ar
    30   15   21 1
    31   16   17 ar
    32   16   20 1
    33   17   18 ar
    34   18   19 1
    35   18   39 ar
    36   19   33 1
    37   19   34 1
    38   20   35 1
    39   20   36 1
    40   21   37 1
    41   21   38 1
    42   39   40 1
@<TRIPOS>MOLECULE
ZINC03814878
   39    41     0     0     0
SMALL
USER_CHARGES

@<TRIPOS>ATOM
      1 C1          1.5311   10.3893   -0.4331 C.ar      1 <0>        -0.0979
      2 C2          1.8342    9.8775   -1.6814 C.ar      1 <0>        -0.1022
      3 C3          1.8414    8.5106   -1.8866 C.ar      1 <0>        -0.0059
      4 C4          1.5431    7.6505   -0.8367 C.ar      1 <0>         0.1097
      5 C5          1.2334    8.1687    0.4149 C.ar      1 <0>        -0.0642
      6 C6          1.2342    9.5365    0.6141 C.ar      1 <0>        -0.0997
      7 Cl1         0.8529    7.0993    1.7284 Cl        1 <0>        -0.0494
      8 N1          1.5489    6.2672   -1.0407 N.pl3     1 <0>        -0.6368
      9 C7          2.5291    5.6102   -0.1658 C.3       1 <0>         0.0482
     10 C8          2.5064    4.1012   -0.4172 C.3       1 <0>        -0.0810
     11 H1          2.6632    3.9040   -1.4777 H         1 <0>         0.0874
     12 C9          3.6126    3.4256    0.4016 C.3       1 <0>        -0.1106
     13 C10         3.7211    1.9671   -0.0405 C.3       1 <0>        -0.0695
     14 C11         2.3684    1.3082   -0.0189 C.ar      1 <0>         0.2495
     15 C12         1.1968    2.0244    0.0015 C.ar      1 <0>        -0.2976
     16 C13        -0.0159    1.3236    0.0093 C.ar      1 <0>         0.4810
     17 N2          0.0021   -0.0041    0.0020 N.ar      1 <0>        -0.6302
     18 C14         1.1532   -0.6590   -0.0129 C.ar      1 <0>         0.6032
     19 N3          2.3123   -0.0214   -0.0240 N.ar      1 <0>        -0.6106
     20 N4          1.1432   -2.0429   -0.0173 N.pl3     1 <0>        -0.8231
     21 N5         -1.2204    2.0079    0.0188 N.pl3     1 <0>        -0.8350
     22 C15         1.1600    3.5274    0.0228 C.3       1 <0>        -0.0495
     23 Cl2         2.2232    7.8691   -3.4539 Cl        1 <0>        -0.0371
     24 H2          1.5266   11.4578   -0.2756 H         1 <0>         0.1435
     25 H3          2.0659   10.5465   -2.4969 H         1 <0>         0.1433
     26 H4          0.9983    9.9399    1.5878 H         1 <0>         0.1396
     27 H5          0.6275    5.8782   -0.9075 H         1 <0>         0.3559
     28 H6          2.2771    5.8088    0.8759 H         1 <0>         0.0596
     29 H7          3.5248    5.9991   -0.3792 H         1 <0>         0.0782
     30 H8          3.3622    3.4693    1.4616 H         1 <0>         0.0680
     31 H9          4.5619    3.9324    0.2284 H         1 <0>         0.0775
     32 H10         4.3918    1.4350    0.6341 H         1 <0>         0.0902
     33 H11         4.1255    1.9263   -1.0519 H         1 <0>         0.0908
     34 H12         0.2997   -2.5219   -0.0096 H         1 <0>         0.4124
     35 H13         1.9797   -2.5339   -0.0282 H         1 <0>         0.4145
     36 H14        -2.0571    1.5170    0.0201 H         1 <0>         0.4065
     37 H15        -1.2272    2.9778    0.0241 H         1 <0>         0.4108
     38 H16         0.9361    3.8681    1.0337 H         1 <0>         0.0656
     39 H17         0.3805    3.8784   -0.6534 H         1 <0>         0.0650
@<TRIPOS>BOND
     1    1    6 ar
     2    1    2 ar
     3    1   24 1
     4    2    3 ar
     5    2   25 1
     6    3    4 ar
     7    3   23 1
     8    4    5 ar
     9    4    8 1
    10    5    6 ar
    11    5    7 1
    12    6   26 1
    13    8    9 1
    14    8   27 1
    15    9   10 1
    16    9   28 1
    17    9   29 1
    18   10   11 1
    19   10   22 1
    20   10   12 1
    21   12   13 1
    22   12   30 1
    23   12   31 1
    24   13   14 1
    25   13   32 1
    26   13   33 1
    27   14   19 ar
    28   14   15 ar
    29   15   16 ar
    30   15   22 1
    31   16   17 ar
    32   16   21 1
    33   17   18 ar
    34   18   19 ar
    35   18   20 1
    36   20   34 1
    37   20   35 1
    38   21   36 1
    39   21   37 1
    40   22   38 1
    41   22   39 1
@<TRIPOS>MOLECULE
ZINC03814878
   40    42     0     0     0
SMALL
USER_CHARGES

@<TRIPOS>ATOM
      1 C1          1.5311   10.3893   -0.4331 C.ar      1 <0>        -0.0909
      2 C2          1.8342    9.8775   -1.6814 C.ar      1 <0>        -0.0993
      3 C3          1.8414    8.5106   -1.8866 C.ar      1 <0>        -0.0036
      4 C4          1.5431    7.6505   -0.8367 C.ar      1 <0>         0.1004
      5 C5          1.2334    8.1687    0.4149 C.ar      1 <0>        -0.0620
      6 C6          1.2342    9.5365    0.6141 C.ar      1 <0>        -0.0976
      7 Cl1         0.8529    7.0993    1.7284 Cl        1 <0>        -0.0552
      8 N1          1.5489    6.2672   -1.0407 N.pl3     1 <0>        -0.6344
      9 C7          2.5291    5.6102   -0.1658 C.3       1 <0>         0.0442
     10 C8          2.5064    4.1012   -0.4172 C.3       1 <0>        -0.0849
     11 H1          2.6632    3.9040   -1.4777 H         1 <0>         0.0976
     12 C9          3.6126    3.4256    0.4016 C.3       1 <0>        -0.1148
     13 C10         3.7211    1.9671   -0.0405 C.3       1 <0>        -0.1055
     14 C11         2.3684    1.3082   -0.0189 C.ar      1 <0>         0.2387
     15 C12         1.1968    2.0244    0.0015 C.ar      1 <0>        -0.2158
     16 C13        -0.0159    1.3236    0.0093 C.ar      1 <0>         0.5349
     17 N2          0.0021   -0.0041    0.0020 N.ar      1 <0>        -0.5705
     18 C14         1.1532   -0.6590   -0.0129 C.ar      1 <0>         0.6718
     19 N3          1.1432   -2.0429   -0.0173 N.pl3     1 <0>        -0.7929
     20 N4         -1.2204    2.0079    0.0188 N.pl3     1 <0>        -0.7758
     21 C15         1.1600    3.5274    0.0228 C.3       1 <0>        -0.0730
     22 Cl2         2.2232    7.8691   -3.4539 Cl        1 <0>        -0.0355
     23 H2          1.5266   11.4578   -0.2756 H         1 <0>         0.1472
     24 H3          2.0659   10.5465   -2.4969 H         1 <0>         0.1466
     25 H4          0.9983    9.9399    1.5878 H         1 <0>         0.1424
     26 H5          0.6275    5.8782   -0.9075 H         1 <0>         0.3520
     27 H6          2.2771    5.8088    0.8759 H         1 <0>         0.0640
     28 H7          3.5248    5.9991   -0.3792 H         1 <0>         0.0868
     29 H8          3.3622    3.4693    1.4616 H         1 <0>         0.0810
     30 H9          4.5619    3.9324    0.2284 H         1 <0>         0.0983
     31 H10         4.3918    1.4350    0.6341 H         1 <0>         0.1106
     32 H11         4.1255    1.9263   -1.0519 H         1 <0>         0.1204
     33 H12         0.2997   -2.5219   -0.0096 H         1 <0>         0.4424
     34 H13         1.9797   -2.5339   -0.0282 H         1 <0>         0.4300
     35 H14        -2.0571    1.5170    0.0201 H         1 <0>         0.4290
     36 H15        -1.2272    2.9778    0.0241 H         1 <0>         0.4314
     37 H16         0.9361    3.8681    1.0337 H         1 <0>         0.0942
     38 H17         0.3805    3.8784   -0.6534 H         1 <0>         0.0906
     39 N5          2.3774   -0.0619   -0.0250 N.ar      1 <0>        -0.6010
     40 H18         3.2466   -0.5562   -0.0375 H         1 <0>         0.4582
@<TRIPOS>BOND
     1    1    6 ar
     2    1    2 ar
     3    1   23 1
     4    2    3 ar
     5    2   24 1
     6    3    4 ar
     7    3   22 1
     8    4    5 ar
     9    4    8 1
    10    5    6 ar
    11    5    7 1
    12    6   25 1
    13    8    9 1
    14    8   26 1
    15    9   10 1
    16    9   27 1
    17    9   28 1
    18   10   11 1
    19   10   21 1
    20   10   12 1
    21   12   13 1
    22   12   29 1
    23   12   30 1
    24   13   14 1
    25   13   31 1
    26   13   32 1
    27   14   15 ar
    28   14   39 ar
    29   15   16 ar
    30   15   21 1
    31   16   17 ar
    32   16   20 1
    33   17   18 ar
    34   18   19 1
    35   18   39 ar
    36   19   33 1
    37   19   34 1
    38   20   35 1
    39   20   36 1
    40   21   37 1
    41   21   38 1
    42   39   40 1
@<TRIPOS>MOLECULE
ZINC03814879
   39    41     0     0     0
SMALL
USER_CHARGES

@<TRIPOS>ATOM
      1 C1          2.1514    8.4107   -0.1086 C.ar      1 <0>        -0.1868
      2 C2          1.9940    9.7822   -0.0661 C.ar      1 <0>        -0.0604
      3 C3          1.0699   10.3997   -0.8905 C.ar      1 <0>        -0.0939
      4 C4          0.3058    9.6462   -1.7642 C.ar      1 <0>        -0.0607
      5 C5          0.4635    8.2751   -1.8153 C.ar      1 <0>        -0.1857
      6 C6          1.3899    7.6526   -0.9887 C.ar      1 <0>         0.2216
      7 N1          1.5516    6.2654   -1.0383 N.pl3     1 <0>        -0.7441
      8 C7          2.5291    5.6102   -0.1658 C.3       1 <0>         0.1278
      9 C8          2.5064    4.1012   -0.4172 C.3       1 <0>        -0.0968
     10 H1          2.6632    3.9040   -1.4777 H         1 <0>         0.0829
     11 C9          3.6126    3.4256    0.4016 C.3       1 <0>        -0.1095
     12 C10         3.7211    1.9671   -0.0405 C.3       1 <0>        -0.0704
     13 C11         2.3684    1.3082   -0.0189 C.ar      1 <0>         0.2490
     14 C12         1.1968    2.0244    0.0015 C.ar      1 <0>        -0.3028
     15 C13        -0.0159    1.3236    0.0093 C.ar      1 <0>         0.4818
     16 N2          0.0021   -0.0041    0.0020 N.ar      1 <0>        -0.6299
     17 C14         1.1532   -0.6590   -0.0129 C.ar      1 <0>         0.6046
     18 N3          2.3123   -0.0214   -0.0240 N.ar      1 <0>        -0.6105
     19 N4          1.1432   -2.0429   -0.0173 N.pl3     1 <0>        -0.8222
     20 N5         -1.2204    2.0079    0.0188 N.pl3     1 <0>        -0.8348
     21 C15         1.1600    3.5274    0.0228 C.3       1 <0>        -0.0463
     22 Cl1         0.8691   12.1230   -0.8289 Cl        1 <0>        -0.0802
     23 H2          2.8691    7.9287    0.5387 H         1 <0>         0.1295
     24 H3          2.5895   10.3728    0.6143 H         1 <0>         0.1312
     25 H4         -0.4141   10.1308   -2.4070 H         1 <0>         0.1313
     26 H5         -0.1329    7.6875   -2.4977 H         1 <0>         0.1278
     27 H6          1.0165    5.7364   -1.6504 H         1 <0>         0.4004
     28 H7          2.2771    5.8088    0.8759 H         1 <0>         0.0644
     29 H8          3.5248    5.9991   -0.3792 H         1 <0>         0.0654
     30 H9          3.3622    3.4693    1.4616 H         1 <0>         0.0729
     31 H10         4.5608    3.9333    0.2251 H         1 <0>         0.0799
     32 H11         4.3918    1.4350    0.6341 H         1 <0>         0.0926
     33 H12         4.1255    1.9263   -1.0519 H         1 <0>         0.0905
     34 H13         0.2997   -2.5219   -0.0096 H         1 <0>         0.4129
     35 H14         1.9797   -2.5339   -0.0282 H         1 <0>         0.4149
     36 H15        -2.0571    1.5170    0.0201 H         1 <0>         0.4070
     37 H16        -1.2272    2.9778    0.0241 H         1 <0>         0.4114
     38 H17         0.9361    3.8681    1.0337 H         1 <0>         0.0714
     39 H18         0.3805    3.8784   -0.6534 H         1 <0>         0.0635
@<TRIPOS>BOND
     1    1    6 ar
     2    1    2 ar
     3    1   23 1
     4    2    3 ar
     5    2   24 1
     6    3    4 ar
     7    3   22 1
     8    4    5 ar
     9    4   25 1
    10    5    6 ar
    11    5   26 1
    12    6    7 1
    13    7    8 1
    14    7   27 1
    15    8    9 1
    16    8   28 1
    17    8   29 1
    18    9   10 1
    19    9   21 1
    20    9   11 1
    21   11   12 1
    22   11   30 1
    23   11   31 1
    24   12   13 1
    25   12   32 1
    26   12   33 1
    27   13   18 ar
    28   13   14 ar
    29   14   15 ar
    30   14   21 1
    31   15   16 ar
    32   15   20 1
    33   16   17 ar
    34   17   18 ar
    35   17   19 1
    36   19   34 1
    37   19   35 1
    38   20   36 1
    39   20   37 1
    40   21   38 1
    41   21   39 1
@<TRIPOS>MOLECULE
ZINC03814879
   40    42     0     0     0
SMALL
USER_CHARGES

@<TRIPOS>ATOM
      1 C1          2.1514    8.4107   -0.1086 C.ar      1 <0>        -0.1832
      2 C2          1.9940    9.7822   -0.0661 C.ar      1 <0>        -0.0615
      3 C3          1.0699   10.3997   -0.8905 C.ar      1 <0>        -0.0863
      4 C4          0.3058    9.6462   -1.7642 C.ar      1 <0>        -0.0613
      5 C5          0.4635    8.2751   -1.8153 C.ar      1 <0>        -0.1808
      6 C6          1.3899    7.6526   -0.9887 C.ar      1 <0>         0.2123
      7 N1          1.5516    6.2654   -1.0383 N.pl3     1 <0>        -0.7509
      8 C7          2.5291    5.6102   -0.1658 C.3       1 <0>         0.1279
      9 C8          2.5064    4.1012   -0.4172 C.3       1 <0>        -0.1003
     10 H1          2.6632    3.9040   -1.4777 H         1 <0>         0.0923
     11 C9          3.6126    3.4256    0.4016 C.3       1 <0>        -0.1135
     12 C10         3.7211    1.9671   -0.0405 C.3       1 <0>        -0.1062
     13 C11         2.3684    1.3082   -0.0189 C.ar      1 <0>         0.2382
     14 C12         1.1968    2.0244    0.0015 C.ar      1 <0>        -0.2199
     15 C13        -0.0159    1.3236    0.0093 C.ar      1 <0>         0.5350
     16 N2          0.0021   -0.0041    0.0020 N.ar      1 <0>        -0.5704
     17 C14         1.1532   -0.6590   -0.0129 C.ar      1 <0>         0.6724
     18 N3          1.1432   -2.0429   -0.0173 N.pl3     1 <0>        -0.7919
     19 N4         -1.2204    2.0079    0.0188 N.pl3     1 <0>        -0.7754
     20 C15         1.1600    3.5274    0.0228 C.3       1 <0>        -0.0683
     21 Cl1         0.8691   12.1230   -0.8289 Cl        1 <0>        -0.0708
     22 H2          2.8691    7.9287    0.5387 H         1 <0>         0.1287
     23 H3          2.5895   10.3728    0.6143 H         1 <0>         0.1339
     24 H4         -0.4141   10.1308   -2.4070 H         1 <0>         0.1343
     25 H5         -0.1329    7.6875   -2.4977 H         1 <0>         0.1280
     26 H6          1.0165    5.7364   -1.6504 H         1 <0>         0.3982
     27 H7          2.2771    5.8088    0.8759 H         1 <0>         0.0684
     28 H8          3.5248    5.9991   -0.3792 H         1 <0>         0.0714
     29 H9          3.3622    3.4693    1.4616 H         1 <0>         0.0856
     30 H10         4.5608    3.9333    0.2251 H         1 <0>         0.1002
     31 H11         4.3918    1.4350    0.6341 H         1 <0>         0.1126
     32 H12         4.1255    1.9263   -1.0519 H         1 <0>         0.1199
     33 H13         0.2997   -2.5219   -0.0096 H         1 <0>         0.4428
     34 H14         1.9797   -2.5339   -0.0282 H         1 <0>         0.4304
     35 H15        -2.0571    1.5170    0.0201 H         1 <0>         0.4294
     36 H16        -1.2272    2.9778    0.0241 H         1 <0>         0.4320
     37 H17         0.9361    3.8681    1.0337 H         1 <0>         0.1004
     38 H18         0.3805    3.8784   -0.6534 H         1 <0>         0.0888
     39 N5          2.3774   -0.0619   -0.0250 N.ar      1 <0>        -0.6013
     40 H19         3.2466   -0.5562   -0.0375 H         1 <0>         0.4586
@<TRIPOS>BOND
     1    1    6 ar
     2    1    2 ar
     3    1   22 1
     4    2    3 ar
     5    2   23 1
     6    3    4 ar
     7    3   21 1
     8    4    5 ar
     9    4   24 1
    10    5    6 ar
    11    5   25 1
    12    6    7 1
    13    7    8 1
    14    7   26 1
    15    8    9 1
    16    8   27 1
    17    8   28 1
    18    9   10 1
    19    9   20 1
    20    9   11 1
    21   11   12 1
    22   11   29 1
    23   11   30 1
    24   12   13 1
    25   12   31 1
    26   12   32 1
    27   13   14 ar
    28   13   39 ar
    29   14   15 ar
    30   14   20 1
    31   15   16 ar
    32   15   19 1
    33   16   17 ar
    34   17   18 1
    35   17   39 ar
    36   18   33 1
    37   18   34 1
    38   19   35 1
    39   19   36 1
    40   20   37 1
    41   20   38 1
    42   39   40 1
@<TRIPOS>MOLECULE
ZINC03814880
   42    44     0     0     0
SMALL
USER_CHARGES

@<TRIPOS>ATOM
      1 C1         -2.1601    0.5364   -4.0456 C.3       1 <0>         0.0897
      2 N1         -0.9945    1.3296   -3.6475 N.pl3     1 <0>        -0.6257
      3 C2         -0.1993    0.9299   -2.4838 C.3       1 <0>         0.1257
      4 C3         -0.7623    1.5977   -1.2276 C.3       1 <0>        -0.1053
      5 H1         -1.8234    1.3666   -1.1342 H         1 <0>         0.0782
      6 C4         -0.0127    1.0858    0.0080 C.3       1 <0>        -0.1116
      7 C5         -0.7360    1.5826    1.2589 C.3       1 <0>        -0.0685
      8 C6         -0.9709    3.0674    1.1753 C.ar      1 <0>         0.2461
      9 C7         -0.8985    3.7641   -0.0060 C.ar      1 <0>        -0.2997
     10 C8         -1.1426    5.1431    0.0144 C.ar      1 <0>         0.4823
     11 N2         -1.4311    5.7338    1.1680 N.ar      1 <0>        -0.6303
     12 C9         -1.4868    5.0280    2.2874 C.ar      1 <0>         0.6031
     13 N3         -1.2623    3.7242    2.2954 N.ar      1 <0>        -0.6119
     14 N4         -1.7862    5.6694    3.4765 N.pl3     1 <0>        -0.8233
     15 N5         -1.0833    5.8824   -1.1557 N.pl3     1 <0>        -0.8332
     16 C10        -0.5677    3.1107   -1.3192 C.3       1 <0>        -0.0478
     17 C11        -0.6412    2.4675   -4.3777 C.ar      1 <0>         0.2240
     18 C12         0.4603    3.2236   -3.9980 C.ar      1 <0>        -0.1925
     19 C13         0.8108    4.3442   -4.7252 C.ar      1 <0>        -0.0641
     20 C14         0.0585    4.7209   -5.8239 C.ar      1 <0>        -0.0940
     21 C15        -1.0427    3.9726   -6.2011 C.ar      1 <0>        -0.0600
     22 C16        -1.3942    2.8476   -5.4812 C.ar      1 <0>        -0.1882
     23 Cl1         0.4974    6.1344   -6.7311 Cl        1 <0>        -0.0802
     24 H2         -3.0474    0.9146   -3.5380 H         1 <0>         0.0501
     25 H3         -2.2990    0.6109   -5.1241 H         1 <0>         0.0695
     26 H4         -2.0010   -0.5063   -3.7709 H         1 <0>         0.0695
     27 H5          0.8358    1.2399   -2.6273 H         1 <0>         0.0788
     28 H6         -0.2416   -0.1533   -2.3695 H         1 <0>         0.0809
     29 H7          0.0021   -0.0041    0.0020 H         1 <0>         0.0769
     30 H8          1.0088    1.4660    0.0003 H         1 <0>         0.0706
     31 H9         -1.6956    1.0731    1.3465 H         1 <0>         0.0881
     32 H10        -0.1312    1.3589    2.1377 H         1 <0>         0.0908
     33 H11        -1.8296    5.1635    4.3030 H         1 <0>         0.4142
     34 H12        -1.9528    6.6250    3.4836 H         1 <0>         0.4124
     35 H13        -0.8717    5.4453   -1.9954 H         1 <0>         0.4122
     36 H14        -1.2533    6.8372   -1.1352 H         1 <0>         0.4063
     37 H15         0.4692    3.3256   -1.5775 H         1 <0>         0.0706
     38 H16        -1.2197    3.5114   -2.0954 H         1 <0>         0.0680
     39 H17         1.0447    2.9331   -3.1375 H         1 <0>         0.1359
     40 H18         1.6703    4.9296   -4.4335 H         1 <0>         0.1309
     41 H19        -1.6281    4.2689   -7.0590 H         1 <0>         0.1306
     42 H20        -2.2536    2.2638   -5.7762 H         1 <0>         0.1307
@<TRIPOS>BOND
     1    1    2 1
     2    1   24 1
     3    1   25 1
     4    1   26 1
     5    2    3 1
     6    2   17 1
     7    3    4 1
     8    3   27 1
     9    3   28 1
    10    4    5 1
    11    4   16 1
    12    4    6 1
    13    6    7 1
    14    6   29 1
    15    6   30 1
    16    7    8 1
    17    7   31 1
    18    7   32 1
    19    8   13 ar
    20    8    9 ar
    21    9   10 ar
    22    9   16 1
    23   10   11 ar
    24   10   15 1
    25   11   12 ar
    26   12   13 ar
    27   12   14 1
    28   14   33 1
    29   14   34 1
    30   15   35 1
    31   15   36 1
    32   16   37 1
    33   16   38 1
    34   17   22 ar
    35   17   18 ar
    36   18   19 ar
    37   18   39 1
    38   19   20 ar
    39   19   40 1
    40   20   21 ar
    41   20   23 1
    42   21   22 ar
    43   21   41 1
    44   22   42 1
@<TRIPOS>MOLECULE
ZINC03814880
   43    45     0     0     0
SMALL
USER_CHARGES

@<TRIPOS>ATOM
      1 C1         -2.1601    0.5364   -4.0456 C.3       1 <0>         0.0872
      2 N1         -0.9945    1.3296   -3.6475 N.pl3     1 <0>        -0.6281
      3 C2         -0.1993    0.9299   -2.4838 C.3       1 <0>         0.1251
      4 C3         -0.7623    1.5977   -1.2276 C.3       1 <0>        -0.1092
      5 H1         -1.8234    1.3666   -1.1342 H         1 <0>         0.0881
      6 C4         -0.0127    1.0858    0.0080 C.3       1 <0>        -0.1155
      7 C5         -0.7360    1.5826    1.2589 C.3       1 <0>        -0.1044
      8 C6         -0.9709    3.0674    1.1753 C.ar      1 <0>         0.2342
      9 C7         -0.8985    3.7641   -0.0060 C.ar      1 <0>        -0.2166
     10 C8         -1.1426    5.1431    0.0144 C.ar      1 <0>         0.5347
     11 N2         -1.4311    5.7338    1.1680 N.ar      1 <0>        -0.5705
     12 C9         -1.4868    5.0280    2.2874 C.ar      1 <0>         0.6716
     13 N3         -1.7862    5.6694    3.4765 N.pl3     1 <0>        -0.7932
     14 N4         -1.0833    5.8824   -1.1557 N.pl3     1 <0>        -0.7734
     15 C10        -0.5677    3.1107   -1.3192 C.3       1 <0>        -0.0720
     16 C11        -0.6412    2.4675   -4.3777 C.ar      1 <0>         0.2171
     17 C12         0.4603    3.2236   -3.9980 C.ar      1 <0>        -0.2028
     18 C13         0.8108    4.3442   -4.7252 C.ar      1 <0>        -0.0667
     19 C14         0.0585    4.7209   -5.8239 C.ar      1 <0>        -0.0912
     20 C15        -1.0427    3.9726   -6.2011 C.ar      1 <0>        -0.0565
     21 C16        -1.3942    2.8476   -5.4812 C.ar      1 <0>        -0.1827
     22 Cl1         0.4974    6.1344   -6.7311 Cl        1 <0>        -0.0702
     23 H2         -3.0474    0.9146   -3.5380 H         1 <0>         0.0509
     24 H3         -2.2990    0.6109   -5.1241 H         1 <0>         0.0734
     25 H4         -2.0010   -0.5063   -3.7709 H         1 <0>         0.0721
     26 H5          0.8358    1.2399   -2.6273 H         1 <0>         0.0836
     27 H6         -0.2416   -0.1533   -2.3695 H         1 <0>         0.0885
     28 H7          0.0021   -0.0041    0.0020 H         1 <0>         0.0975
     29 H8          1.0088    1.4660    0.0003 H         1 <0>         0.0833
     30 H9         -1.6956    1.0731    1.3465 H         1 <0>         0.1174
     31 H10        -0.1312    1.3589    2.1377 H         1 <0>         0.1112
     32 H11        -1.8296    5.1635    4.3030 H         1 <0>         0.4298
     33 H12        -1.9528    6.6250    3.4836 H         1 <0>         0.4424
     34 H13        -0.8717    5.4453   -1.9954 H         1 <0>         0.4326
     35 H14        -1.2533    6.8372   -1.1352 H         1 <0>         0.4290
     36 H15         0.4692    3.3256   -1.5775 H         1 <0>         0.0997
     37 H16        -1.2197    3.5114   -2.0954 H         1 <0>         0.0929
     38 H17         1.0447    2.9331   -3.1375 H         1 <0>         0.1330
     39 H18         1.6703    4.9296   -4.4335 H         1 <0>         0.1330
     40 H19        -1.6281    4.2689   -7.0590 H         1 <0>         0.1349
     41 H20        -2.2536    2.2638   -5.7762 H         1 <0>         0.1338
     42 N5         -1.2662    3.6859    2.3617 N.ar      1 <0>        -0.6019
     43 H21        -1.3079    3.1527    3.2067 H         1 <0>         0.4576
@<TRIPOS>BOND
     1    1    2 1
     2    1   23 1
     3    1   24 1
     4    1   25 1
     5    2    3 1
     6    2   16 1
     7    3    4 1
     8    3   26 1
     9    3   27 1
    10    4    5 1
    11    4   15 1
    12    4    6 1
    13    6    7 1
    14    6   28 1
    15    6   29 1
    16    7    8 1
    17    7   30 1
    18    7   31 1
    19    8    9 ar
    20    8   42 ar
    21    9   10 ar
    22    9   15 1
    23   10   11 ar
    24   10   14 1
    25   11   12 ar
    26   12   13 1
    27   12   42 ar
    28   13   32 1
    29   13   33 1
    30   14   34 1
    31   14   35 1
    32   15   36 1
    33   15   37 1
    34   16   21 ar
    35   16   17 ar
    36   17   18 ar
    37   17   38 1
    38   18   19 ar
    39   18   39 1
    40   19   20 ar
    41   19   22 1
    42   20   21 ar
    43   20   40 1
    44   21   41 1
    45   42   43 1
@<TRIPOS>MOLECULE
ZINC03814881
   39    41     0     0     0
SMALL
USER_CHARGES

@<TRIPOS>ATOM
      1 C1          1.8535    0.9061    6.3109 C.ar      1 <0>        -0.0649
      2 C2          1.2640    1.0374    5.0686 C.ar      1 <0>        -0.1836
      3 C3          0.0687    1.7329    4.9384 C.ar      1 <0>         0.2230
      4 C4         -0.5361    2.2847    6.0606 C.ar      1 <0>        -0.1709
      5 C5          0.0557    2.1450    7.3014 C.ar      1 <0>        -0.0404
      6 C6          1.2495    1.4562    7.4262 C.ar      1 <0>        -0.1520
      7 Br1        -0.7667    2.8950    8.8301 Br        1 <0>        -0.0529
      8 N1         -0.5267    1.8723    3.6827 N.pl3     1 <0>        -0.7444
      9 C7          0.1126    1.2897    2.5002 C.3       1 <0>         0.1297
     10 C8         -0.7383    1.5842    1.2632 C.3       1 <0>        -0.0971
     11 H1         -0.9145    2.6569    1.1830 H         1 <0>         0.0828
     12 C9         -0.0127    1.0858    0.0080 C.3       1 <0>        -0.1095
     13 C10        -0.7596    1.5959   -1.2235 C.3       1 <0>        -0.0702
     14 C11        -2.2253    1.2709   -1.1227 C.ar      1 <0>         0.2490
     15 C12        -2.8292    0.9368    0.0647 C.ar      1 <0>        -0.3025
     16 C13        -4.2018    0.6578    0.0623 C.ar      1 <0>         0.4820
     17 N2         -4.8743    0.7198   -1.0810 N.ar      1 <0>        -0.6300
     18 C14        -4.2549    1.0414   -2.2067 C.ar      1 <0>         0.6046
     19 N3         -2.9601    1.3118   -2.2314 N.ar      1 <0>        -0.6107
     20 N4         -4.9793    1.0963   -3.3846 N.pl3     1 <0>        -0.8222
     21 N5         -4.8505    0.3217    1.2393 N.pl3     1 <0>        -0.8346
     22 C15        -2.0795    0.8510    1.3652 C.3       1 <0>        -0.0467
     23 H2          2.7851    0.3691    6.4118 H         1 <0>         0.1305
     24 H3          1.7343    0.6034    4.1986 H         1 <0>         0.1269
     25 H4         -1.4676    2.8226    5.9634 H         1 <0>         0.1285
     26 H5          1.7102    1.3478    8.3970 H         1 <0>         0.1286
     27 H6         -1.3634    2.3548    3.5935 H         1 <0>         0.4004
     28 H7          0.2033    0.2113    2.6304 H         1 <0>         0.0643
     29 H8          1.1037    1.7247    2.3715 H         1 <0>         0.0655
     30 H9          0.0021   -0.0041    0.0020 H         1 <0>         0.0726
     31 H10         1.0088    1.4659    0.0003 H         1 <0>         0.0795
     32 H11        -0.6344    2.6760   -1.2990 H         1 <0>         0.0905
     33 H12        -0.3467    1.1252   -2.1158 H         1 <0>         0.0926
     34 H13        -5.9293    0.9005   -3.3793 H         1 <0>         0.4129
     35 H14        -4.5370    1.3307   -4.2155 H         1 <0>         0.4149
     36 H15        -4.3539    0.2784    2.0714 H         1 <0>         0.4115
     37 H16        -5.8012    0.1295    1.2313 H         1 <0>         0.4071
     38 H17        -2.6775    1.3030    2.1565 H         1 <0>         0.0638
     39 H18        -1.8950   -0.1959    1.6064 H         1 <0>         0.0712
@<TRIPOS>BOND
     1    1    6 ar
     2    1    2 ar
     3    1   23 1
     4    2    3 ar
     5    2   24 1
     6    3    4 ar
     7    3    8 1
     8    4    5 ar
     9    4   25 1
    10    5    6 ar
    11    5    7 1
    12    6   26 1
    13    8    9 1
    14    8   27 1
    15    9   10 1
    16    9   28 1
    17    9   29 1
    18   10   11 1
    19   10   22 1
    20   10   12 1
    21   12   13 1
    22   12   30 1
    23   12   31 1
    24   13   14 1
    25   13   32 1
    26   13   33 1
    27   14   19 ar
    28   14   15 ar
    29   15   16 ar
    30   15   22 1
    31   16   17 ar
    32   16   21 1
    33   17   18 ar
    34   18   19 ar
    35   18   20 1
    36   20   34 1
    37   20   35 1
    38   21   36 1
    39   21   37 1
    40   22   38 1
    41   22   39 1
@<TRIPOS>MOLECULE
ZINC03814881
   40    42     0     0     0
SMALL
USER_CHARGES

@<TRIPOS>ATOM
      1 C1          1.8535    0.9061    6.3109 C.ar      1 <0>        -0.0648
      2 C2          1.2640    1.0374    5.0686 C.ar      1 <0>        -0.1807
      3 C3          0.0687    1.7329    4.9384 C.ar      1 <0>         0.2143
      4 C4         -0.5361    2.2847    6.0606 C.ar      1 <0>        -0.1667
      5 C5          0.0557    2.1450    7.3014 C.ar      1 <0>        -0.0425
      6 C6          1.2495    1.4562    7.4262 C.ar      1 <0>        -0.1431
      7 Br1        -0.7667    2.8950    8.8301 Br        1 <0>        -0.0446
      8 N1         -0.5267    1.8723    3.6827 N.pl3     1 <0>        -0.7510
      9 C7          0.1126    1.2897    2.5002 C.3       1 <0>         0.1297
     10 C8         -0.7383    1.5842    1.2632 C.3       1 <0>        -0.1001
     11 H1         -0.9145    2.6569    1.1830 H         1 <0>         0.0922
     12 C9         -0.0127    1.0858    0.0080 C.3       1 <0>        -0.1138
     13 C10        -0.7596    1.5959   -1.2235 C.3       1 <0>        -0.1060
     14 C11        -2.2253    1.2709   -1.1227 C.ar      1 <0>         0.2381
     15 C12        -2.8292    0.9368    0.0647 C.ar      1 <0>        -0.2195
     16 C13        -4.2018    0.6578    0.0623 C.ar      1 <0>         0.5351
     17 N2         -4.8743    0.7198   -1.0810 N.ar      1 <0>        -0.5703
     18 C14        -4.2549    1.0414   -2.2067 C.ar      1 <0>         0.6724
     19 N3         -4.9793    1.0963   -3.3846 N.pl3     1 <0>        -0.7919
     20 N4         -4.8505    0.3217    1.2393 N.pl3     1 <0>        -0.7751
     21 C15        -2.0795    0.8510    1.3652 C.3       1 <0>        -0.0691
     22 H2          2.7851    0.3691    6.4118 H         1 <0>         0.1332
     23 H3          1.7343    0.6034    4.1986 H         1 <0>         0.1262
     24 H4         -1.4676    2.8226    5.9634 H         1 <0>         0.1287
     25 H5          1.7102    1.3478    8.3970 H         1 <0>         0.1321
     26 H6         -1.3634    2.3548    3.5935 H         1 <0>         0.3982
     27 H7          0.2033    0.2113    2.6304 H         1 <0>         0.0683
     28 H8          1.1037    1.7247    2.3715 H         1 <0>         0.0716
     29 H9          0.0021   -0.0041    0.0020 H         1 <0>         0.0854
     30 H10         1.0088    1.4659    0.0003 H         1 <0>         0.0999
     31 H11        -0.6344    2.6760   -1.2990 H         1 <0>         0.1198
     32 H12        -0.3467    1.1252   -2.1158 H         1 <0>         0.1127
     33 H13        -5.9293    0.9005   -3.3793 H         1 <0>         0.4428
     34 H14        -4.5370    1.3307   -4.2155 H         1 <0>         0.4303
     35 H15        -4.3539    0.2784    2.0714 H         1 <0>         0.4321
     36 H16        -5.8012    0.1295    1.2313 H         1 <0>         0.4295
     37 H17        -2.6775    1.3030    2.1565 H         1 <0>         0.0891
     38 H18        -1.8950   -0.1959    1.6064 H         1 <0>         0.1003
     39 N5         -2.9268    1.3302   -2.2981 N.ar      1 <0>        -0.6013
     40 H19        -2.4591    1.5734   -3.1478 H         1 <0>         0.4585
@<TRIPOS>BOND
     1    1    6 ar
     2    1    2 ar
     3    1   22 1
     4    2    3 ar
     5    2   23 1
     6    3    4 ar
     7    3    8 1
     8    4    5 ar
     9    4   24 1
    10    5    6 ar
    11    5    7 1
    12    6   25 1
    13    8    9 1
    14    8   26 1
    15    9   10 1
    16    9   27 1
    17    9   28 1
    18   10   11 1
    19   10   21 1
    20   10   12 1
    21   12   13 1
    22   12   29 1
    23   12   30 1
    24   13   14 1
    25   13   31 1
    26   13   32 1
    27   14   15 ar
    28   14   39 ar
    29   15   16 ar
    30   15   21 1
    31   16   17 ar
    32   16   20 1
    33   17   18 ar
    34   18   19 1
    35   18   39 ar
    36   19   33 1
    37   19   34 1
    38   20   35 1
    39   20   36 1
    40   21   37 1
    41   21   38 1
    42   39   40 1
@<TRIPOS>MOLECULE
ZINC03814882
   45    48     0     0     0
SMALL
USER_CHARGES

@<TRIPOS>ATOM
      1 C1          1.1687    2.0905    0.0021 C.ar      1 <0>        -0.1070
      2 C2         -0.0164    1.3574    0.0095 C.ar      1 <0>        -0.1311
      3 C3          0.0021   -0.0041    0.0020 C.ar      1 <0>        -0.0961
      4 C4          1.2309   -0.6822   -0.0134 C.ar      1 <0>        -0.0982
      5 C5          2.4363    0.0620   -0.0208 C.ar      1 <0>        -0.0097
      6 C6          2.3782    1.4666   -0.0123 C.ar      1 <0>        -0.1160
      7 C7          3.6674   -0.6153   -0.0365 C.ar      1 <0>        -0.1735
      8 C8          3.6945   -1.9768   -0.0441 C.ar      1 <0>        -0.0591
      9 C9          2.5174   -2.7188   -0.0375 C.ar      1 <0>        -0.2201
     10 C10         1.2892   -2.0924   -0.0220 C.ar      1 <0>         0.2311
     11 N1          0.1165   -2.8445   -0.0146 N.pl3     1 <0>        -0.7395
     12 C11         0.1848   -4.3079   -0.0237 C.3       1 <0>         0.1286
     13 C12        -1.2322   -4.8847   -0.0128 C.3       1 <0>        -0.0974
     14 H1         -1.8042   -4.4669   -0.8413 H         1 <0>         0.0825
     15 C13        -1.1686   -6.4106   -0.1481 C.3       1 <0>        -0.1090
     16 C14        -2.5858   -6.9371   -0.3694 C.3       1 <0>        -0.0702
     17 C15        -3.5199   -6.3908    0.6762 C.ar      1 <0>         0.2491
     18 C16        -3.2140   -5.2911    1.4399 C.ar      1 <0>        -0.3022
     19 C17        -4.1503   -4.8502    2.3838 C.ar      1 <0>         0.4818
     20 N2         -5.2972   -5.5063    2.5151 N.ar      1 <0>        -0.6298
     21 C18        -5.5536   -6.5657    1.7626 C.ar      1 <0>         0.6045
     22 N3         -4.6877   -7.0013    0.8623 N.ar      1 <0>        -0.6105
     23 N4         -6.7559   -7.2324    1.9217 N.pl3     1 <0>        -0.8223
     24 N5         -3.8830   -3.7421    3.1709 N.pl3     1 <0>        -0.8347
     25 C19        -1.9150   -4.5448    1.3115 C.3       1 <0>        -0.0467
     26 H2          1.1267    3.1696    0.0079 H         1 <0>         0.1218
     27 H3         -0.9633    1.8767    0.0168 H         1 <0>         0.1207
     28 H4         -0.9242   -0.5594    0.0082 H         1 <0>         0.1165
     29 H5          3.2885    2.0476   -0.0182 H         1 <0>         0.1269
     30 H6          4.5915   -0.0564   -0.0425 H         1 <0>         0.1217
     31 H7          4.6452   -2.4890   -0.0559 H         1 <0>         0.1201
     32 H8          2.5664   -3.7977   -0.0442 H         1 <0>         0.1207
     33 H9         -0.7452   -2.3993   -0.0034 H         1 <0>         0.3980
     34 H10         0.7061   -4.6417   -0.9209 H         1 <0>         0.0666
     35 H11         0.7240   -4.6520    0.8590 H         1 <0>         0.0656
     36 H12        -0.5419   -6.6770   -0.9991 H         1 <0>         0.0799
     37 H13        -0.7526   -6.8419    0.7624 H         1 <0>         0.0731
     38 H14        -2.9330   -6.6330   -1.3569 H         1 <0>         0.0906
     39 H15        -2.5787   -8.0256   -0.3128 H         1 <0>         0.0927
     40 H16        -7.3992   -6.9226    2.5783 H         1 <0>         0.4129
     41 H17        -6.9553   -8.0096    1.3766 H         1 <0>         0.4149
     42 H18        -3.0434   -3.2667    3.0702 H         1 <0>         0.4115
     43 H19        -4.5353   -3.4415    3.8228 H         1 <0>         0.4070
     44 H20        -1.2581   -4.8199    2.1366 H         1 <0>         0.0719
     45 H21        -2.1097   -3.4731    1.3518 H         1 <0>         0.0625
@<TRIPOS>BOND
     1    1    6 ar
     2    1    2 ar
     3    1   26 1
     4    2    3 ar
     5    2   27 1
     6    3    4 ar
     7    3   28 1
     8    4   10 ar
     9    4    5 ar
    10    5    6 ar
    11    5    7 ar
    12    6   29 1
    13    7    8 ar
    14    7   30 1
    15    8    9 ar
    16    8   31 1
    17    9   10 ar
    18    9   32 1
    19   10   11 1
    20   11   12 1
    21   11   33 1
    22   12   13 1
    23   12   34 1
    24   12   35 1
    25   13   14 1
    26   13   25 1
    27   13   15 1
    28   15   16 1
    29   15   36 1
    30   15   37 1
    31   16   17 1
    32   16   38 1
    33   16   39 1
    34   17   22 ar
    35   17   18 ar
    36   18   19 ar
    37   18   25 1
    38   19   20 ar
    39   19   24 1
    40   20   21 ar
    41   21   22 ar
    42   21   23 1
    43   23   40 1
    44   23   41 1
    45   24   42 1
    46   24   43 1
    47   25   44 1
    48   25   45 1
@<TRIPOS>MOLECULE
ZINC03814882
   46    49     0     0     0
SMALL
USER_CHARGES

@<TRIPOS>ATOM
      1 C1          1.1687    2.0905    0.0021 C.ar      1 <0>        -0.1076
      2 C2         -0.0164    1.3574    0.0095 C.ar      1 <0>        -0.1242
      3 C3          0.0021   -0.0041    0.0020 C.ar      1 <0>        -0.1037
      4 C4          1.2309   -0.6822   -0.0134 C.ar      1 <0>        -0.0943
      5 C5          2.4363    0.0620   -0.0208 C.ar      1 <0>        -0.0127
      6 C6          2.3782    1.4666   -0.0123 C.ar      1 <0>        -0.1100
      7 C7          3.6674   -0.6153   -0.0365 C.ar      1 <0>        -0.1607
      8 C8          3.6945   -1.9768   -0.0441 C.ar      1 <0>        -0.0654
      9 C9          2.5174   -2.7188   -0.0375 C.ar      1 <0>        -0.2105
     10 C10         1.2892   -2.0924   -0.0220 C.ar      1 <0>         0.2204
     11 N1          0.1165   -2.8445   -0.0146 N.pl3     1 <0>        -0.7467
     12 C11         0.1848   -4.3079   -0.0237 C.3       1 <0>         0.1289
     13 C12        -1.2322   -4.8847   -0.0128 C.3       1 <0>        -0.1009
     14 H1         -1.8042   -4.4669   -0.8413 H         1 <0>         0.0920
     15 C13        -1.1686   -6.4106   -0.1481 C.3       1 <0>        -0.1132
     16 C14        -2.5858   -6.9371   -0.3694 C.3       1 <0>        -0.1059
     17 C15        -3.5199   -6.3908    0.6762 C.ar      1 <0>         0.2382
     18 C16        -3.2140   -5.2911    1.4399 C.ar      1 <0>        -0.2195
     19 C17        -4.1503   -4.8502    2.3838 C.ar      1 <0>         0.5350
     20 N2         -5.2972   -5.5063    2.5151 N.ar      1 <0>        -0.5702
     21 C18        -5.5536   -6.5657    1.7626 C.ar      1 <0>         0.6723
     22 N3         -6.7559   -7.2324    1.9217 N.pl3     1 <0>        -0.7920
     23 N4         -3.8830   -3.7421    3.1709 N.pl3     1 <0>        -0.7753
     24 C19        -1.9150   -4.5448    1.3115 C.3       1 <0>        -0.0687
     25 H2          1.1267    3.1696    0.0079 H         1 <0>         0.1248
     26 H3         -0.9633    1.8767    0.0168 H         1 <0>         0.1217
     27 H4         -0.9242   -0.5594    0.0082 H         1 <0>         0.1134
     28 H5          3.2885    2.0476   -0.0182 H         1 <0>         0.1300
     29 H6          4.5915   -0.0564   -0.0425 H         1 <0>         0.1252
     30 H7          4.6452   -2.4890   -0.0559 H         1 <0>         0.1228
     31 H8          2.5664   -3.7977   -0.0442 H         1 <0>         0.1199
     32 H9         -0.7452   -2.3993   -0.0034 H         1 <0>         0.3959
     33 H10         0.7061   -4.6417   -0.9209 H         1 <0>         0.0724
     34 H11         0.7240   -4.6520    0.8590 H         1 <0>         0.0693
     35 H12        -0.5419   -6.6770   -0.9991 H         1 <0>         0.1002
     36 H13        -0.7526   -6.8419    0.7624 H         1 <0>         0.0859
     37 H14        -2.9330   -6.6330   -1.3569 H         1 <0>         0.1198
     38 H15        -2.5787   -8.0256   -0.3128 H         1 <0>         0.1127
     39 H16        -7.3992   -6.9226    2.5783 H         1 <0>         0.4428
     40 H17        -6.9553   -8.0096    1.3766 H         1 <0>         0.4303
     41 H18        -3.0434   -3.2667    3.0702 H         1 <0>         0.4321
     42 H19        -4.5353   -3.4415    3.8228 H         1 <0>         0.4294
     43 H20        -1.2581   -4.8199    2.1366 H         1 <0>         0.1010
     44 H21        -2.1097   -3.4731    1.3518 H         1 <0>         0.0879
     45 N5         -4.7052   -7.0629    0.8201 N.ar      1 <0>        -0.6012
     46 H22        -4.8988   -7.8625    0.2516 H         1 <0>         0.4585
@<TRIPOS>BOND
     1    1    6 ar
     2    1    2 ar
     3    1   25 1
     4    2    3 ar
     5    2   26 1
     6    3    4 ar
     7    3   27 1
     8    4   10 ar
     9    4    5 ar
    10    5    6 ar
    11    5    7 ar
    12    6   28 1
    13    7    8 ar
    14    7   29 1
    15    8    9 ar
    16    8   30 1
    17    9   10 ar
    18    9   31 1
    19   10   11 1
    20   11   12 1
    21   11   32 1
    22   12   13 1
    23   12   33 1
    24   12   34 1
    25   13   14 1
    26   13   24 1
    27   13   15 1
    28   15   16 1
    29   15   35 1
    30   15   36 1
    31   16   17 1
    32   16   37 1
    33   16   38 1
    34   17   18 ar
    35   17   45 ar
    36   18   19 ar
    37   18   24 1
    38   19   20 ar
    39   19   23 1
    40   20   21 ar
    41   21   22 1
    42   21   45 ar
    43   22   39 1
    44   22   40 1
    45   23   41 1
    46   23   42 1
    47   24   43 1
    48   24   44 1
    49   45   46 1
@<TRIPOS>MOLECULE
ZINC03814883
   54    56     0     0     0
SMALL
USER_CHARGES

@<TRIPOS>ATOM
      1 C1         -0.6241    2.5225   -4.4130 C.3       1 <0>         0.0863
      2 N1         -0.9945    1.3296   -3.6475 N.pl3     1 <0>        -0.6224
      3 C2         -0.1993    0.9299   -2.4838 C.3       1 <0>         0.1273
      4 C3         -0.7623    1.5977   -1.2276 C.3       1 <0>        -0.1070
      5 H1         -1.8234    1.3666   -1.1342 H         1 <0>         0.0812
      6 C4         -0.0127    1.0858    0.0080 C.3       1 <0>        -0.1112
      7 C5         -0.7360    1.5826    1.2589 C.3       1 <0>        -0.0694
      8 C6         -0.9709    3.0674    1.1753 C.ar      1 <0>         0.2487
      9 C7         -0.8985    3.7641   -0.0060 C.ar      1 <0>        -0.3000
     10 C8         -1.1426    5.1431    0.0144 C.ar      1 <0>         0.4812
     11 N2         -1.4311    5.7338    1.1680 N.ar      1 <0>        -0.6299
     12 C9         -1.4868    5.0280    2.2874 C.ar      1 <0>         0.6039
     13 N3         -1.2623    3.7242    2.2954 N.ar      1 <0>        -0.6106
     14 N4         -1.7862    5.6694    3.4765 N.pl3     1 <0>        -0.8225
     15 N5         -1.0833    5.8824   -1.1557 N.pl3     1 <0>        -0.8352
     16 C10        -0.5677    3.1107   -1.3192 C.3       1 <0>        -0.0450
     17 C11        -2.1076    0.5721   -4.0277 C.ar      1 <0>         0.2871
     18 C12        -2.4549   -0.5614   -3.3054 C.ar      1 <0>        -0.3082
     19 C13        -3.5611   -1.3093   -3.6781 C.ar      1 <0>         0.1937
     20 C14        -4.3159   -0.9301   -4.7816 C.ar      1 <0>        -0.0289
     21 C15        -3.9642    0.2015   -5.5075 C.ar      1 <0>         0.1931
     22 C16        -2.8609    0.9512   -5.1305 C.ar      1 <0>        -0.3101
     23 O1         -4.7021    0.5730   -6.5878 O.3       1 <0>        -0.3011
     24 C17        -4.2827    1.7463   -7.2873 C.3       1 <0>         0.0261
     25 O2         -5.3999   -1.6670   -5.1511 O.3       1 <0>        -0.3098
     26 C18        -5.1758   -2.7304   -6.0790 C.3       1 <0>         0.0336
     27 O3         -3.9041   -2.4168   -2.9674 O.3       1 <0>        -0.3008
     28 C19        -3.0836   -2.7473   -1.8451 C.3       1 <0>         0.0255
     29 H2          0.0661    2.2435   -5.2092 H         1 <0>         0.0515
     30 H3         -1.5191    2.9678   -4.8475 H         1 <0>         0.0682
     31 H4         -0.1437    3.2438   -3.7519 H         1 <0>         0.0707
     32 H5          0.8358    1.2399   -2.6273 H         1 <0>         0.0794
     33 H6         -0.2416   -0.1533   -2.3695 H         1 <0>         0.0799
     34 H7          0.0021   -0.0041    0.0020 H         1 <0>         0.0763
     35 H8          1.0088    1.4660    0.0003 H         1 <0>         0.0709
     36 H9         -1.6956    1.0731    1.3465 H         1 <0>         0.0891
     37 H10        -0.1312    1.3589    2.1377 H         1 <0>         0.0914
     38 H11        -1.8296    5.1635    4.3030 H         1 <0>         0.4148
     39 H12        -1.9528    6.6250    3.4836 H         1 <0>         0.4127
     40 H13        -0.8717    5.4453   -1.9954 H         1 <0>         0.4100
     41 H14        -1.2533    6.8372   -1.1352 H         1 <0>         0.4068
     42 H15         0.4692    3.3256   -1.5775 H         1 <0>         0.0666
     43 H16        -1.2197    3.5114   -2.0954 H         1 <0>         0.0664
     44 H17        -1.8656   -0.8584   -2.4504 H         1 <0>         0.1359
     45 H18        -2.5875    1.8307   -5.6945 H         1 <0>         0.1344
     46 H19        -4.9555    1.9298   -8.1251 H         1 <0>         0.1019
     47 H20        -4.3044    2.6002   -6.6102 H         1 <0>         0.0562
     48 H21        -3.2685    1.6040   -7.6603 H         1 <0>         0.0560
     49 H22        -4.4695   -3.4424   -5.6520 H         1 <0>         0.0410
     50 H23        -6.1191   -3.2352   -6.2879 H         1 <0>         0.0886
     51 H24        -4.7679   -2.3248   -7.0049 H         1 <0>         0.0407
     52 H25        -3.4667   -3.6496   -1.3682 H         1 <0>         0.1019
     53 H26        -2.0611   -2.9200   -2.1809 H         1 <0>         0.0559
     54 H27        -3.0973   -1.9247   -1.1301 H         1 <0>         0.0577
@<TRIPOS>BOND
     1    1    2 1
     2    1   29 1
     3    1   30 1
     4    1   31 1
     5    2    3 1
     6    2   17 1
     7    3    4 1
     8    3   32 1
     9    3   33 1
    10    4    5 1
    11    4   16 1
    12    4    6 1
    13    6    7 1
    14    6   34 1
    15    6   35 1
    16    7    8 1
    17    7   36 1
    18    7   37 1
    19    8   13 ar
    20    8    9 ar
    21    9   10 ar
    22    9   16 1
    23   10   11 ar
    24   10   15 1
    25   11   12 ar
    26   12   13 ar
    27   12   14 1
    28   14   38 1
    29   14   39 1
    30   15   40 1
    31   15   41 1
    32   16   42 1
    33   16   43 1
    34   17   22 ar
    35   17   18 ar
    36   18   19 ar
    37   18   44 1
    38   19   20 ar
    39   19   27 1
    40   20   21 ar
    41   20   25 1
    42   21   22 ar
    43   21   23 1
    44   22   45 1
    45   23   24 1
    46   24   46 1
    47   24   47 1
    48   24   48 1
    49   25   26 1
    50   26   49 1
    51   26   50 1
    52   26   51 1
    53   27   28 1
    54   28   52 1
    55   28   53 1
    56   28   54 1
@<TRIPOS>MOLECULE
ZINC03814883
   55    57     0     0     0
SMALL
USER_CHARGES

@<TRIPOS>ATOM
      1 C1         -0.6241    2.5225   -4.4130 C.3       1 <0>         0.0850
      2 N1         -0.9945    1.3296   -3.6475 N.pl3     1 <0>        -0.6280
      3 C2         -0.1993    0.9299   -2.4838 C.3       1 <0>         0.1276
      4 C3         -0.7623    1.5977   -1.2276 C.3       1 <0>        -0.1126
      5 H1         -1.8234    1.3666   -1.1342 H         1 <0>         0.0910
      6 C4         -0.0127    1.0858    0.0080 C.3       1 <0>        -0.1150
      7 C5         -0.7360    1.5826    1.2589 C.3       1 <0>        -0.1057
      8 C6         -0.9709    3.0674    1.1753 C.ar      1 <0>         0.2379
      9 C7         -0.8985    3.7641   -0.0060 C.ar      1 <0>        -0.2179
     10 C8         -1.1426    5.1431    0.0144 C.ar      1 <0>         0.5351
     11 N2         -1.4311    5.7338    1.1680 N.ar      1 <0>        -0.5703
     12 C9         -1.4868    5.0280    2.2874 C.ar      1 <0>         0.6721
     13 N3         -1.7862    5.6694    3.4765 N.pl3     1 <0>        -0.7922
     14 N4         -1.0833    5.8824   -1.1557 N.pl3     1 <0>        -0.7764
     15 C10        -0.5677    3.1107   -1.3192 C.3       1 <0>        -0.0676
     16 C11        -2.1076    0.5721   -4.0277 C.ar      1 <0>         0.2794
     17 C12        -2.4549   -0.5614   -3.3054 C.ar      1 <0>        -0.3091
     18 C13        -3.5611   -1.3093   -3.6781 C.ar      1 <0>         0.1927
     19 C14        -4.3159   -0.9301   -4.7816 C.ar      1 <0>        -0.0214
     20 C15        -3.9642    0.2015   -5.5075 C.ar      1 <0>         0.1947
     21 C16        -2.8609    0.9512   -5.1305 C.ar      1 <0>        -0.3073
     22 O1         -4.7021    0.5730   -6.5878 O.3       1 <0>        -0.2984
     23 C17        -4.2827    1.7463   -7.2873 C.3       1 <0>         0.0256
     24 O2         -5.3999   -1.6670   -5.1511 O.3       1 <0>        -0.3106
     25 C18        -5.1758   -2.7304   -6.0790 C.3       1 <0>         0.0333
     26 O3         -3.9041   -2.4168   -2.9674 O.3       1 <0>        -0.2983
     27 C19        -3.0836   -2.7473   -1.8451 C.3       1 <0>         0.0268
     28 H2          0.0661    2.2435   -5.2092 H         1 <0>         0.0561
     29 H3         -1.5191    2.9678   -4.8475 H         1 <0>         0.0712
     30 H4         -0.1437    3.2438   -3.7519 H         1 <0>         0.0652
     31 H5          0.8358    1.2399   -2.6273 H         1 <0>         0.0840
     32 H6         -0.2416   -0.1533   -2.3695 H         1 <0>         0.0868
     33 H7          0.0021   -0.0041    0.0020 H         1 <0>         0.0968
     34 H8          1.0088    1.4660    0.0003 H         1 <0>         0.0837
     35 H9         -1.6956    1.0731    1.3465 H         1 <0>         0.1184
     36 H10        -0.1312    1.3589    2.1377 H         1 <0>         0.1118
     37 H11        -1.8296    5.1635    4.3030 H         1 <0>         0.4302
     38 H12        -1.9528    6.6250    3.4836 H         1 <0>         0.4427
     39 H13        -0.8717    5.4453   -1.9954 H         1 <0>         0.4306
     40 H14        -1.2533    6.8372   -1.1352 H         1 <0>         0.4292
     41 H15         0.4692    3.3256   -1.5775 H         1 <0>         0.0959
     42 H16        -1.2197    3.5114   -2.0954 H         1 <0>         0.0911
     43 H17        -1.8656   -0.8584   -2.4504 H         1 <0>         0.1339
     44 H18        -2.5875    1.8307   -5.6945 H         1 <0>         0.1354
     45 H19        -4.9555    1.9298   -8.1251 H         1 <0>         0.1051
     46 H20        -4.3044    2.6002   -6.6102 H         1 <0>         0.0555
     47 H21        -3.2685    1.6040   -7.6603 H         1 <0>         0.0574
     48 H22        -4.4695   -3.4424   -5.6520 H         1 <0>         0.0425
     49 H23        -6.1191   -3.2352   -6.2879 H         1 <0>         0.0922
     50 H24        -4.7679   -2.3248   -7.0049 H         1 <0>         0.0429
     51 H25        -3.4667   -3.6496   -1.3682 H         1 <0>         0.1039
     52 H26        -2.0611   -2.9200   -2.1809 H         1 <0>         0.0565
     53 H27        -3.0973   -1.9247   -1.1301 H         1 <0>         0.0534
     54 N5         -1.2662    3.6859    2.3617 N.ar      1 <0>        -0.6012
     55 H28        -1.3079    3.1527    3.2067 H         1 <0>         0.4583
@<TRIPOS>BOND
     1    1    2 1
     2    1   28 1
     3    1   29 1
     4    1   30 1
     5    2    3 1
     6    2   16 1
     7    3    4 1
     8    3   31 1
     9    3   32 1
    10    4    5 1
    11    4   15 1
    12    4    6 1
    13    6    7 1
    14    6   33 1
    15    6   34 1
    16    7    8 1
    17    7   35 1
    18    7   36 1
    19    8    9 ar
    20    8   54 ar
    21    9   10 ar
    22    9   15 1
    23   10   11 ar
    24   10   14 1
    25   11   12 ar
    26   12   13 1
    27   12   54 ar
    28   13   37 1
    29   13   38 1
    30   14   39 1
    31   14   40 1
    32   15   41 1
    33   15   42 1
    34   16   21 ar
    35   16   17 ar
    36   17   18 ar
    37   17   43 1
    38   18   19 ar
    39   18   26 1
    40   19   20 ar
    41   19   24 1
    42   20   21 ar
    43   20   22 1
    44   21   44 1
    45   22   23 1
    46   23   45 1
    47   23   46 1
    48   23   47 1
    49   24   25 1
    50   25   48 1
    51   25   49 1
    52   25   50 1
    53   26   27 1
    54   27   51 1
    55   27   52 1
    56   27   53 1
    57   54   55 1
@<TRIPOS>MOLECULE
ZINC03814884
   48    51     0     0     0
SMALL
USER_CHARGES

@<TRIPOS>ATOM
      1 C1          1.9367    6.1379   -2.4567 C.3       1 <0>         0.0247
      2 N1          1.5521    6.2674   -1.0448 N.pl3     1 <0>        -0.5028
      3 C2          2.5325    5.6108   -0.1698 C.3       1 <0>         0.0642
      4 C3          2.5064    4.1012   -0.4172 C.3       1 <0>        -0.0816
      5 H1          2.6611    3.9009   -1.4774 H         1 <0>         0.0784
      6 C4          3.6126    3.4256    0.4016 C.3       1 <0>        -0.1129
      7 C5          3.7211    1.9671   -0.0405 C.3       1 <0>        -0.0685
      8 C6          2.3684    1.3082   -0.0189 C.ar      1 <0>         0.2451
      9 C7          1.1968    2.0244    0.0015 C.ar      1 <0>        -0.2978
     10 C8         -0.0159    1.3236    0.0093 C.ar      1 <0>         0.4809
     11 N2          0.0021   -0.0041    0.0020 N.ar      1 <0>        -0.6307
     12 C9          1.1532   -0.6590   -0.0129 C.ar      1 <0>         0.6021
     13 N3          2.3123   -0.0214   -0.0240 N.ar      1 <0>        -0.6117
     14 N4          1.1432   -2.0429   -0.0173 N.pl3     1 <0>        -0.8240
     15 N5         -1.2204    2.0079    0.0188 N.pl3     1 <0>        -0.8343
     16 C10         1.1600    3.5274    0.0228 C.3       1 <0>        -0.0390
     17 C11         1.3862    7.6053   -0.6933 C.ar      1 <0>         0.1068
     18 C12         2.4579    8.4721   -0.7292 C.ar      1 <0>        -0.1503
     19 C13         2.3026    9.8100   -0.3799 C.ar      1 <0>        -0.1063
     20 C14         1.0922   10.3001    0.0061 C.ar      1 <0>        -0.1098
     21 C15        -0.0255    9.4500    0.0562 C.ar      1 <0>        -0.0461
     22 C16         0.1184    8.0870   -0.3026 C.ar      1 <0>        -0.0351
     23 C17        -0.9974    7.2375   -0.2452 C.ar      1 <0>        -0.0833
     24 C18        -2.2043    7.7352    0.1417 C.ar      1 <0>        -0.1263
     25 C19        -2.3483    9.0769    0.4890 C.ar      1 <0>        -0.1112
     26 C20        -1.2870    9.9281    0.4514 C.ar      1 <0>        -0.1130
     27 H2          1.9912    5.0824   -2.7231 H         1 <0>         0.0775
     28 H3          1.1939    6.6327   -3.0824 H         1 <0>         0.0699
     29 H4          2.9104    6.6026   -2.6121 H         1 <0>         0.0324
     30 H5          2.2825    5.8127    0.8718 H         1 <0>         0.0788
     31 H6          3.5285    5.9972   -0.3858 H         1 <0>         0.0434
     32 H7          3.3622    3.4693    1.4616 H         1 <0>         0.0700
     33 H8          4.5619    3.9324    0.2284 H         1 <0>         0.0745
     34 H9          4.3918    1.4350    0.6341 H         1 <0>         0.0897
     35 H10         4.1255    1.9263   -1.0519 H         1 <0>         0.0882
     36 H11         0.2997   -2.5219   -0.0096 H         1 <0>         0.4121
     37 H12         1.9797   -2.5339   -0.0282 H         1 <0>         0.4140
     38 H13        -2.0571    1.5170    0.0201 H         1 <0>         0.4057
     39 H14        -1.2272    2.9778    0.0241 H         1 <0>         0.4126
     40 H15         0.9361    3.8681    1.0337 H         1 <0>         0.0664
     41 H16         0.3805    3.8784   -0.6534 H         1 <0>         0.0734
     42 H17         3.4289    8.1084   -1.0315 H         1 <0>         0.1197
     43 H18         3.1562   10.4708   -0.4159 H         1 <0>         0.1225
     44 H19         0.9914   11.3415    0.2738 H         1 <0>         0.1266
     45 H20        -0.9004    6.1954   -0.5117 H         1 <0>         0.1349
     46 H21        -3.0623    7.0804    0.1803 H         1 <0>         0.1218
     47 H22        -3.3164    9.4469    0.7929 H         1 <0>         0.1219
     48 H23        -1.4133   10.9655    0.7240 H         1 <0>         0.1263
@<TRIPOS>BOND
     1    1    2 1
     2    1   27 1
     3    1   28 1
     4    1   29 1
     5    2    3 1
     6    2   17 1
     7    3    4 1
     8    3   30 1
     9    3   31 1
    10    4    5 1
    11    4   16 1
    12    4    6 1
    13    6    7 1
    14    6   32 1
    15    6   33 1
    16    7    8 1
    17    7   34 1
    18    7   35 1
    19    8   13 ar
    20    8    9 ar
    21    9   10 ar
    22    9   16 1
    23   10   11 ar
    24   10   15 1
    25   11   12 ar
    26   12   13 ar
    27   12   14 1
    28   14   36 1
    29   14   37 1
    30   15   38 1
    31   15   39 1
    32   16   40 1
    33   16   41 1
    34   17   22 ar
    35   17   18 ar
    36   18   19 ar
    37   18   42 1
    38   19   20 ar
    39   19   43 1
    40   20   21 ar
    41   20   44 1
    42   21   26 ar
    43   21   22 ar
    44   22   23 ar
    45   23   24 ar
    46   23   45 1
    47   24   25 ar
    48   24   46 1
    49   25   26 ar
    50   25   47 1
    51   26   48 1
@<TRIPOS>MOLECULE
ZINC03814884
   49    52     0     0     0
SMALL
USER_CHARGES

@<TRIPOS>ATOM
      1 C1          1.9367    6.1379   -2.4567 C.3       1 <0>         0.0215
      2 N1          1.5521    6.2674   -1.0448 N.pl3     1 <0>        -0.5016
      3 C2          2.5325    5.6108   -0.1698 C.3       1 <0>         0.0598
      4 C3          2.5064    4.1012   -0.4172 C.3       1 <0>        -0.0858
      5 H1          2.6611    3.9009   -1.4774 H         1 <0>         0.0878
      6 C4          3.6126    3.4256    0.4016 C.3       1 <0>        -0.1168
      7 C5          3.7211    1.9671   -0.0405 C.3       1 <0>        -0.1043
      8 C6          2.3684    1.3082   -0.0189 C.ar      1 <0>         0.2325
      9 C7          1.1968    2.0244    0.0015 C.ar      1 <0>        -0.2151
     10 C8         -0.0159    1.3236    0.0093 C.ar      1 <0>         0.5346
     11 N2          0.0021   -0.0041    0.0020 N.ar      1 <0>        -0.5713
     12 C9          1.1532   -0.6590   -0.0129 C.ar      1 <0>         0.6714
     13 N3          1.1432   -2.0429   -0.0173 N.pl3     1 <0>        -0.7940
     14 N4         -1.2204    2.0079    0.0188 N.pl3     1 <0>        -0.7745
     15 C10         1.1600    3.5274    0.0228 C.3       1 <0>        -0.0615
     16 C11         1.3862    7.6053   -0.6933 C.ar      1 <0>         0.0933
     17 C12         2.4579    8.4721   -0.7292 C.ar      1 <0>        -0.1425
     18 C13         2.3026    9.8100   -0.3799 C.ar      1 <0>        -0.1093
     19 C14         1.0922   10.3001    0.0061 C.ar      1 <0>        -0.1007
     20 C15        -0.0255    9.4500    0.0562 C.ar      1 <0>        -0.0473
     21 C16         0.1184    8.0870   -0.3026 C.ar      1 <0>        -0.0323
     22 C17        -0.9974    7.2375   -0.2452 C.ar      1 <0>        -0.0923
     23 C18        -2.2043    7.7352    0.1417 C.ar      1 <0>        -0.1205
     24 C19        -2.3483    9.0769    0.4890 C.ar      1 <0>        -0.1129
     25 C20        -1.2870    9.9281    0.4514 C.ar      1 <0>        -0.1061
     26 H2          1.9912    5.0824   -2.7231 H         1 <0>         0.0732
     27 H3          1.1939    6.6327   -3.0824 H         1 <0>         0.0743
     28 H4          2.9104    6.6026   -2.6121 H         1 <0>         0.0361
     29 H5          2.2825    5.8127    0.8718 H         1 <0>         0.0842
     30 H6          3.5285    5.9972   -0.3858 H         1 <0>         0.0511
     31 H7          3.3622    3.4693    1.4616 H         1 <0>         0.0827
     32 H8          4.5619    3.9324    0.2284 H         1 <0>         0.0950
     33 H9          4.3918    1.4350    0.6341 H         1 <0>         0.1097
     34 H10         4.1255    1.9263   -1.0519 H         1 <0>         0.1174
     35 H11         0.2997   -2.5219   -0.0096 H         1 <0>         0.4422
     36 H12         1.9797   -2.5339   -0.0282 H         1 <0>         0.4296
     37 H13        -2.0571    1.5170    0.0201 H         1 <0>         0.4283
     38 H14        -1.2272    2.9778    0.0241 H         1 <0>         0.4332
     39 H15         0.9361    3.8681    1.0337 H         1 <0>         0.0962
     40 H16         0.3805    3.8784   -0.6534 H         1 <0>         0.0984
     41 H17         3.4289    8.1084   -1.0315 H         1 <0>         0.1196
     42 H18         3.1562   10.4708   -0.4159 H         1 <0>         0.1253
     43 H19         0.9914   11.3415    0.2738 H         1 <0>         0.1299
     44 H20        -0.9004    6.1954   -0.5117 H         1 <0>         0.1299
     45 H21        -3.0623    7.0804    0.1803 H         1 <0>         0.1219
     46 H22        -3.3164    9.4469    0.7929 H         1 <0>         0.1246
     47 H23        -1.4133   10.9655    0.7240 H         1 <0>         0.1294
     48 N5          2.3774   -0.0619   -0.0250 N.ar      1 <0>        -0.6016
     49 H24         3.2466   -0.5562   -0.0375 H         1 <0>         0.4574
@<TRIPOS>BOND
     1    1    2 1
     2    1   26 1
     3    1   27 1
     4    1   28 1
     5    2    3 1
     6    2   16 1
     7    3    4 1
     8    3   29 1
     9    3   30 1
    10    4    5 1
    11    4   15 1
    12    4    6 1
    13    6    7 1
    14    6   31 1
    15    6   32 1
    16    7    8 1
    17    7   33 1
    18    7   34 1
    19    8    9 ar
    20    8   48 ar
    21    9   10 ar
    22    9   15 1
    23   10   11 ar
    24   10   14 1
    25   11   12 ar
    26   12   13 1
    27   12   48 ar
    28   13   35 1
    29   13   36 1
    30   14   37 1
    31   14   38 1
    32   15   39 1
    33   15   40 1
    34   16   21 ar
    35   16   17 ar
    36   17   18 ar
    37   17   41 1
    38   18   19 ar
    39   18   42 1
    40   19   20 ar
    41   19   43 1
    42   20   25 ar
    43   20   21 ar
    44   21   22 ar
    45   22   23 ar
    46   22   44 1
    47   23   24 ar
    48   23   45 1
    49   24   25 ar
    50   24   46 1
    51   25   47 1
    52   48   49 1
@<TRIPOS>MOLECULE
ZINC03814885
   53    55     0     0     0
SMALL
USER_CHARGES

@<TRIPOS>ATOM
      1 C1          1.2839   -0.6354   -0.0136 C.3       1 <0>         0.0242
      2 O1          0.0021   -0.0041    0.0020 O.3       1 <0>        -0.2983
      3 C2         -0.0164    1.3557    0.0095 C.ar      1 <0>         0.1904
      4 C3          1.1743    2.0651    0.0019 C.ar      1 <0>        -0.2873
      5 C4          1.1557    3.4536    0.0092 C.ar      1 <0>         0.2682
      6 C5         -0.0557    4.1322    0.0249 C.ar      1 <0>        -0.2982
      7 C6         -1.2471    3.4239    0.0329 C.ar      1 <0>         0.1870
      8 C7         -1.2292    2.0343    0.0189 C.ar      1 <0>        -0.0120
      9 O2         -2.3994    1.3379    0.0202 O.3       1 <0>        -0.3079
     10 C8         -2.9511    0.9987    1.2940 C.3       1 <0>         0.0329
     11 O3         -2.4334    4.0887    0.0483 O.3       1 <0>        -0.2957
     12 C9         -2.3769    5.5165    0.0554 C.3       1 <0>         0.0217
     13 N1          2.3580    4.1691    0.0011 N.pl3     1 <0>        -0.4889
     14 C10         2.3387    5.6340    0.0087 C.3       1 <0>         0.1248
     15 C11         2.3460    6.1366    1.4537 C.3       1 <0>        -0.1068
     16 H1          3.1936    5.7062    1.9870 H         1 <0>         0.0833
     17 C12         2.4518    7.6661    1.4668 C.3       1 <0>        -0.1103
     18 C13         2.6922    8.1231    2.9049 C.3       1 <0>        -0.0690
     19 C14         1.6762    7.5091    3.8295 C.ar      1 <0>         0.2486
     20 C15         0.9267    6.4120    3.4817 C.ar      1 <0>        -0.3015
     21 C16         0.0105    5.9051    4.4120 C.ar      1 <0>         0.4835
     22 N2         -0.1095    6.4985    5.5937 N.ar      1 <0>        -0.6292
     23 C17         0.6283    7.5577    5.8902 C.ar      1 <0>         0.6043
     24 N3          1.5027    8.0548    5.0307 N.ar      1 <0>        -0.6105
     25 N4          0.4815    8.1583    7.1284 N.pl3     1 <0>        -0.8224
     26 N5         -0.7613    4.7971    4.1028 N.pl3     1 <0>        -0.8338
     27 C18         1.0425    5.7362    2.1435 C.3       1 <0>        -0.0487
     28 C19         3.5403    3.5072   -0.0138 C.1       1 <0>         0.0285
     29 C20         4.5646    2.9337   -0.0267 C.1       1 <0>        -0.2096
     30 H2          1.8454   -0.3398    0.8726 H         1 <0>         0.0573
     31 H3          1.1558   -1.7179   -0.0182 H         1 <0>         0.1045
     32 H4          1.8284   -0.3302   -0.9072 H         1 <0>         0.0589
     33 H5          2.1168    1.5379   -0.0099 H         1 <0>         0.1389
     34 H6         -0.0695    5.2121    0.0312 H         1 <0>         0.1446
     35 H7         -2.2418    0.3805    1.8442 H         1 <0>         0.0424
     36 H8         -3.1520    1.9101    1.8572 H         1 <0>         0.0421
     37 H9         -3.8804    0.4470    1.1522 H         1 <0>         0.0909
     38 H10        -3.3893    5.9202    0.0676 H         1 <0>         0.1048
     39 H11        -1.8402    5.8545    0.9419 H         1 <0>         0.0561
     40 H12        -1.8579    5.8641   -0.8379 H         1 <0>         0.0592
     41 H13         3.2188    6.0117   -0.5119 H         1 <0>         0.0911
     42 H14         1.4390    5.9881   -0.4946 H         1 <0>         0.0907
     43 H15         3.2848    7.9810    0.8384 H         1 <0>         0.0796
     44 H16         1.5252    8.1005    1.0915 H         1 <0>         0.0724
     45 H17         3.6920    7.8208    3.2166 H         1 <0>         0.0901
     46 H18         2.6154    9.2092    2.9554 H         1 <0>         0.0928
     47 H19        -0.1560    7.8030    7.7673 H         1 <0>         0.4128
     48 H20         1.0162    8.9347    7.3573 H         1 <0>         0.4147
     49 H21        -0.6690    4.3677    3.2380 H         1 <0>         0.4105
     50 H22        -1.3942    4.4506    4.7512 H         1 <0>         0.4067
     51 H23         0.1991    6.0287    1.5179 H         1 <0>         0.0684
     52 H24         1.0259    4.6553    2.2831 H         1 <0>         0.0680
     53 H25         5.4807    2.4208   -0.0383 H         1 <0>         0.2355
@<TRIPOS>BOND
     1    1    2 1
     2    1   30 1
     3    1   31 1
     4    1   32 1
     5    2    3 1
     6    3    8 ar
     7    3    4 ar
     8    4    5 ar
     9    4   33 1
    10    5    6 ar
    11    5   13 1
    12    6    7 ar
    13    6   34 1
    14    7    8 ar
    15    7   11 1
    16    8    9 1
    17    9   10 1
    18   10   35 1
    19   10   36 1
    20   10   37 1
    21   11   12 1
    22   12   38 1
    23   12   39 1
    24   12   40 1
    25   13   14 1
    26   13   28 1
    27   14   15 1
    28   14   41 1
    29   14   42 1
    30   15   16 1
    31   15   27 1
    32   15   17 1
    33   17   18 1
    34   17   43 1
    35   17   44 1
    36   18   19 1
    37   18   45 1
    38   18   46 1
    39   19   24 ar
    40   19   20 ar
    41   20   21 ar
    42   20   27 1
    43   21   22 ar
    44   21   26 1
    45   22   23 ar
    46   23   24 ar
    47   23   25 1
    48   25   47 1
    49   25   48 1
    50   26   49 1
    51   26   50 1
    52   27   51 1
    53   27   52 1
    54   28   29 3
    55   29   53 1
@<TRIPOS>MOLECULE
ZINC03814885
   54    56     0     0     0
SMALL
USER_CHARGES

@<TRIPOS>ATOM
      1 C1          1.2839   -0.6354   -0.0136 C.3       1 <0>         0.0229
      2 O1          0.0021   -0.0041    0.0020 O.3       1 <0>        -0.2951
      3 C2         -0.0164    1.3557    0.0095 C.ar      1 <0>         0.1950
      4 C3          1.1743    2.0651    0.0019 C.ar      1 <0>        -0.2850
      5 C4          1.1557    3.4536    0.0092 C.ar      1 <0>         0.2633
      6 C5         -0.0557    4.1322    0.0249 C.ar      1 <0>        -0.3096
      7 C6         -1.2471    3.4239    0.0329 C.ar      1 <0>         0.1842
      8 C7         -1.2292    2.0343    0.0189 C.ar      1 <0>        -0.0075
      9 O2         -2.3994    1.3379    0.0202 O.3       1 <0>        -0.3060
     10 C8         -2.9511    0.9987    1.2940 C.3       1 <0>         0.0335
     11 O3         -2.4334    4.0887    0.0483 O.3       1 <0>        -0.2933
     12 C9         -2.3769    5.5165    0.0554 C.3       1 <0>         0.0229
     13 N1          2.3580    4.1691    0.0011 N.pl3     1 <0>        -0.4899
     14 C10         2.3387    5.6340    0.0087 C.3       1 <0>         0.1249
     15 C11         2.3460    6.1366    1.4537 C.3       1 <0>        -0.1104
     16 H1          3.1936    5.7062    1.9870 H         1 <0>         0.0932
     17 C12         2.4518    7.6661    1.4668 C.3       1 <0>        -0.1144
     18 C13         2.6922    8.1231    2.9049 C.3       1 <0>        -0.1048
     19 C14         1.6762    7.5091    3.8295 C.ar      1 <0>         0.2374
     20 C15         0.9267    6.4120    3.4817 C.ar      1 <0>        -0.2188
     21 C16         0.0105    5.9051    4.4120 C.ar      1 <0>         0.5356
     22 N2         -0.1095    6.4985    5.5937 N.ar      1 <0>        -0.5690
     23 C17         0.6283    7.5577    5.8902 C.ar      1 <0>         0.6721
     24 N3          0.4815    8.1583    7.1284 N.pl3     1 <0>        -0.7921
     25 N4         -0.7613    4.7971    4.1028 N.pl3     1 <0>        -0.7746
     26 C18         1.0425    5.7362    2.1435 C.3       1 <0>        -0.0738
     27 C19         3.5403    3.5072   -0.0138 C.1       1 <0>         0.0143
     28 C20         4.5646    2.9337   -0.0267 C.1       1 <0>        -0.1908
     29 H2          1.8454   -0.3398    0.8726 H         1 <0>         0.0578
     30 H3          1.1558   -1.7179   -0.0182 H         1 <0>         0.1086
     31 H4          1.8284   -0.3302   -0.9072 H         1 <0>         0.0612
     32 H5          2.1168    1.5379   -0.0099 H         1 <0>         0.1413
     33 H6         -0.0695    5.2121    0.0312 H         1 <0>         0.1412
     34 H7         -2.2418    0.3805    1.8442 H         1 <0>         0.0436
     35 H8         -3.1520    1.9101    1.8572 H         1 <0>         0.0400
     36 H9         -3.8804    0.4470    1.1522 H         1 <0>         0.0947
     37 H10        -3.3893    5.9202    0.0676 H         1 <0>         0.1077
     38 H11        -1.8402    5.8545    0.9419 H         1 <0>         0.0471
     39 H12        -1.8579    5.8641   -0.8379 H         1 <0>         0.0621
     40 H13         3.2188    6.0117   -0.5119 H         1 <0>         0.0983
     41 H14         1.4390    5.9881   -0.4946 H         1 <0>         0.0954
     42 H15         3.2848    7.9810    0.8384 H         1 <0>         0.1003
     43 H16         1.5252    8.1005    1.0915 H         1 <0>         0.0853
     44 H17         3.6920    7.8208    3.2166 H         1 <0>         0.1197
     45 H18         2.6154    9.2092    2.9554 H         1 <0>         0.1131
     46 H19        -0.1560    7.8030    7.7673 H         1 <0>         0.4428
     47 H20         1.0162    8.9347    7.3573 H         1 <0>         0.4302
     48 H21        -0.6690    4.3677    3.2380 H         1 <0>         0.4310
     49 H22        -1.3942    4.4506    4.7512 H         1 <0>         0.4295
     50 H23         0.1991    6.0287    1.5179 H         1 <0>         0.0972
     51 H24         1.0259    4.6553    2.2831 H         1 <0>         0.0934
     52 H25         5.4807    2.4208   -0.0383 H         1 <0>         0.2375
     53 N5          1.5441    8.1162    5.0506 N.ar      1 <0>        -0.6012
     54 H26         2.1016    8.9157    5.2744 H         1 <0>         0.4583
@<TRIPOS>BOND
     1    1    2 1
     2    1   29 1
     3    1   30 1
     4    1   31 1
     5    2    3 1
     6    3    8 ar
     7    3    4 ar
     8    4    5 ar
     9    4   32 1
    10    5    6 ar
    11    5   13 1
    12    6    7 ar
    13    6   33 1
    14    7    8 ar
    15    7   11 1
    16    8    9 1
    17    9   10 1
    18   10   34 1
    19   10   35 1
    20   10   36 1
    21   11   12 1
    22   12   37 1
    23   12   38 1
    24   12   39 1
    25   13   14 1
    26   13   27 1
    27   14   15 1
    28   14   40 1
    29   14   41 1
    30   15   16 1
    31   15   26 1
    32   15   17 1
    33   17   18 1
    34   17   42 1
    35   17   43 1
    36   18   19 1
    37   18   44 1
    38   18   45 1
    39   19   20 ar
    40   19   53 ar
    41   20   21 ar
    42   20   26 1
    43   21   22 ar
    44   21   25 1
    45   22   23 ar
    46   23   24 1
    47   23   53 ar
    48   24   46 1
    49   24   47 1
    50   25   48 1
    51   25   49 1
    52   26   50 1
    53   26   51 1
    54   27   28 3
    55   28   52 1
    56   53   54 1
@<TRIPOS>MOLECULE
ZINC03814886
   47    49     0     0     0
SMALL
USER_CHARGES

@<TRIPOS>ATOM
      1 C1          2.6535   -0.7383    5.9763 C.3       1 <0>         0.0287
      2 O1          1.4760    0.0705    6.0151 O.3       1 <0>        -0.3179
      3 C2          0.9396    0.4375    4.8207 C.ar      1 <0>         0.1429
      4 C3          1.5355    0.0262    3.6377 C.ar      1 <0>        -0.2304
      5 C4          0.9896    0.3932    2.4215 C.ar      1 <0>        -0.1224
      6 C5         -0.1480    1.1816    2.3813 C.ar      1 <0>         0.0178
      7 C6         -0.7493    1.5960    3.5675 C.ar      1 <0>         0.2352
      8 C7         -0.2029    1.2222    4.7864 C.ar      1 <0>        -0.2022
      9 N1         -1.9027    2.3876    3.5296 N.pl3     1 <0>        -0.7375
     10 C8         -2.5339    2.8227    4.7780 C.3       1 <0>         0.1289
     11 C9         -3.7676    3.6690    4.4578 C.3       1 <0>        -0.0961
     12 H1         -4.4342    3.1109    3.8003 H         1 <0>         0.0827
     13 C10        -4.5017    4.0221    5.7567 C.3       1 <0>        -0.1095
     14 C11        -5.8428    4.6601    5.3975 C.3       1 <0>        -0.0698
     15 C12        -5.6467    5.7770    4.4084 C.ar      1 <0>         0.2483
     16 C13        -4.5015    5.9122    3.6625 C.ar      1 <0>        -0.3004
     17 C14        -4.4125    6.9800    2.7604 C.ar      1 <0>         0.4815
     18 N2         -5.4292    7.8276    2.6563 N.ar      1 <0>        -0.6303
     19 C15        -6.5155    7.6660    3.3967 C.ar      1 <0>         0.6036
     20 N3         -6.6260    6.6647    4.2542 N.ar      1 <0>        -0.6108
     21 N4         -7.5596    8.5654    3.2699 N.pl3     1 <0>        -0.8229
     22 N5         -3.2768    7.1496    1.9854 N.pl3     1 <0>        -0.8346
     23 C16        -3.3370    4.9679    3.7774 C.3       1 <0>        -0.0471
     24 O2         -0.6816    1.5467    1.1837 O.3       1 <0>        -0.3235
     25 C17        -0.0127    1.0858    0.0080 C.3       1 <0>         0.0325
     26 H2          2.9764   -0.9589    6.9938 H         1 <0>         0.0991
     27 H3          2.4372   -1.6701    5.4537 H         1 <0>         0.0550
     28 H4          3.4449   -0.2029    5.4520 H         1 <0>         0.0549
     29 H5          2.4255   -0.5850    3.6666 H         1 <0>         0.1264
     30 H6          1.4532    0.0678    1.5019 H         1 <0>         0.1291
     31 H7         -0.6671    1.5417    5.7077 H         1 <0>         0.1363
     32 H8         -2.2842    2.6483    2.6767 H         1 <0>         0.4062
     33 H9         -2.8329    1.9493    5.3576 H         1 <0>         0.0648
     34 H10        -1.8256    3.4168    5.3555 H         1 <0>         0.0637
     35 H11        -4.6712    3.1166    6.3393 H         1 <0>         0.0797
     36 H12        -3.9026    4.7240    6.3368 H         1 <0>         0.0727
     37 H13        -6.4964    3.9041    4.9623 H         1 <0>         0.0903
     38 H14        -6.3068    5.0562    6.3008 H         1 <0>         0.0920
     39 H15        -7.4907    9.3035    2.6443 H         1 <0>         0.4125
     40 H16        -8.3604    8.4577    3.8066 H         1 <0>         0.4146
     41 H17        -2.5374    6.5269    2.0657 H         1 <0>         0.4120
     42 H18        -3.2210    7.8911    1.3625 H         1 <0>         0.4065
     43 H19        -2.5484    5.4381    4.3648 H         1 <0>         0.0713
     44 H20        -2.9553    4.7436    2.7814 H         1 <0>         0.0650
     45 H21         0.0021   -0.0041    0.0020 H         1 <0>         0.0522
     46 H22         1.0099    1.4631    0.0003 H         1 <0>         0.0521
     47 H23        -0.5399    1.4469   -0.8751 H         1 <0>         0.0969
@<TRIPOS>BOND
     1    1    2 1
     2    1   26 1
     3    1   27 1
     4    1   28 1
     5    2    3 1
     6    3    8 ar
     7    3    4 ar
     8    4    5 ar
     9    4   29 1
    10    5    6 ar
    11    5   30 1
    12    6    7 ar
    13    6   24 1
    14    7    8 ar
    15    7    9 1
    16    8   31 1
    17    9   10 1
    18    9   32 1
    19   10   11 1
    20   10   33 1
    21   10   34 1
    22   11   12 1
    23   11   23 1
    24   11   13 1
    25   13   14 1
    26   13   35 1
    27   13   36 1
    28   14   15 1
    29   14   37 1
    30   14   38 1
    31   15   20 ar
    32   15   16 ar
    33   16   17 ar
    34   16   23 1
    35   17   18 ar
    36   17   22 1
    37   18   19 ar
    38   19   20 ar
    39   19   21 1
    40   21   39 1
    41   21   40 1
    42   22   41 1
    43   22   42 1
    44   23   43 1
    45   23   44 1
    46   24   25 1
    47   25   45 1
    48   25   46 1
    49   25   47 1
@<TRIPOS>MOLECULE
ZINC03814886
   48    50     0     0     0
SMALL
USER_CHARGES

@<TRIPOS>ATOM
      1 C1          2.6535   -0.7383    5.9763 C.3       1 <0>         0.0271
      2 O1          1.4760    0.0705    6.0151 O.3       1 <0>        -0.3174
      3 C2          0.9396    0.4375    4.8207 C.ar      1 <0>         0.1435
      4 C3          1.5355    0.0262    3.6377 C.ar      1 <0>        -0.2221
      5 C4          0.9896    0.3932    2.4215 C.ar      1 <0>        -0.1209
      6 C5         -0.1480    1.1816    2.3813 C.ar      1 <0>         0.0204
      7 C6         -0.7493    1.5960    3.5675 C.ar      1 <0>         0.2264
      8 C7         -0.2029    1.2222    4.7864 C.ar      1 <0>        -0.1988
      9 N1         -1.9027    2.3876    3.5296 N.pl3     1 <0>        -0.7443
     10 C8         -2.5339    2.8227    4.7780 C.3       1 <0>         0.1290
     11 C9         -3.7676    3.6690    4.4578 C.3       1 <0>        -0.0997
     12 H1         -4.4342    3.1109    3.8003 H         1 <0>         0.0922
     13 C10        -4.5017    4.0221    5.7567 C.3       1 <0>        -0.1136
     14 C11        -5.8428    4.6601    5.3975 C.3       1 <0>        -0.1056
     15 C12        -5.6467    5.7770    4.4084 C.ar      1 <0>         0.2370
     16 C13        -4.5015    5.9122    3.6625 C.ar      1 <0>        -0.2178
     17 C14        -4.4125    6.9800    2.7604 C.ar      1 <0>         0.5349
     18 N2         -5.4292    7.8276    2.6563 N.ar      1 <0>        -0.5708
     19 C15        -6.5155    7.6660    3.3967 C.ar      1 <0>         0.6720
     20 N3         -7.5596    8.5654    3.2699 N.pl3     1 <0>        -0.7928
     21 N4         -3.2768    7.1496    1.9854 N.pl3     1 <0>        -0.7749
     22 C16        -3.3370    4.9679    3.7774 C.3       1 <0>        -0.0691
     23 O2         -0.6816    1.5467    1.1837 O.3       1 <0>        -0.3269
     24 C17        -0.0127    1.0858    0.0080 C.3       1 <0>         0.0310
     25 H2          2.9764   -0.9589    6.9938 H         1 <0>         0.1021
     26 H3          2.4372   -1.6701    5.4537 H         1 <0>         0.0570
     27 H4          3.4449   -0.2029    5.4520 H         1 <0>         0.0568
     28 H5          2.4255   -0.5850    3.6666 H         1 <0>         0.1299
     29 H6          1.4532    0.0678    1.5019 H         1 <0>         0.1318
     30 H7         -0.6671    1.5417    5.7077 H         1 <0>         0.1356
     31 H8         -2.2842    2.6483    2.6767 H         1 <0>         0.4041
     32 H9         -2.8329    1.9493    5.3576 H         1 <0>         0.0708
     33 H10        -1.8256    3.4168    5.3555 H         1 <0>         0.0677
     34 H11        -4.6712    3.1166    6.3393 H         1 <0>         0.1000
     35 H12        -3.9026    4.7240    6.3368 H         1 <0>         0.0855
     36 H13        -6.4964    3.9041    4.9623 H         1 <0>         0.1196
     37 H14        -6.3068    5.0562    6.3008 H         1 <0>         0.1120
     38 H15        -7.4907    9.3035    2.6443 H         1 <0>         0.4425
     39 H16        -8.3604    8.4577    3.8066 H         1 <0>         0.4300
     40 H17        -2.5374    6.5269    2.0657 H         1 <0>         0.4327
     41 H18        -3.2210    7.8911    1.3625 H         1 <0>         0.4289
     42 H19        -2.5484    5.4381    4.3648 H         1 <0>         0.1004
     43 H20        -2.9553    4.7436    2.7814 H         1 <0>         0.0903
     44 H21         0.0021   -0.0041    0.0020 H         1 <0>         0.0546
     45 H22         1.0099    1.4631    0.0003 H         1 <0>         0.0541
     46 H23        -0.5399    1.4469   -0.8751 H         1 <0>         0.0980
     47 N5         -6.6901    6.6578    4.2958 N.ar      1 <0>        -0.6012
     48 H24        -7.5104    6.5353    4.8545 H         1 <0>         0.4582
@<TRIPOS>BOND
     1    1    2 1
     2    1   25 1
     3    1   26 1
     4    1   27 1
     5    2    3 1
     6    3    8 ar
     7    3    4 ar
     8    4    5 ar
     9    4   28 1
    10    5    6 ar
    11    5   29 1
    12    6    7 ar
    13    6   23 1
    14    7    8 ar
    15    7    9 1
    16    8   30 1
    17    9   10 1
    18    9   31 1
    19   10   11 1
    20   10   32 1
    21   10   33 1
    22   11   12 1
    23   11   22 1
    24   11   13 1
    25   13   14 1
    26   13   34 1
    27   13   35 1
    28   14   15 1
    29   14   36 1
    30   14   37 1
    31   15   16 ar
    32   15   47 ar
    33   16   17 ar
    34   16   22 1
    35   17   18 ar
    36   17   21 1
    37   18   19 ar
    38   19   20 1
    39   19   47 ar
    40   20   38 1
    41   20   39 1
    42   21   40 1
    43   21   41 1
    44   22   42 1
    45   22   43 1
    46   23   24 1
    47   24   44 1
    48   24   45 1
    49   24   46 1
    50   47   48 1
@<TRIPOS>MOLECULE
ZINC03814887
   50    52     0     0     0
SMALL
USER_CHARGES

@<TRIPOS>ATOM
      1 C1         -3.0470    1.6815    4.1180 C.3       1 <0>         0.0241
      2 N1         -1.9019    2.3888    3.5296 N.pl3     1 <0>        -0.4874
      3 C2         -1.6774    3.6765    4.2001 C.3       1 <0>         0.0634
      4 C3         -2.8603    4.6073    3.9259 C.3       1 <0>        -0.0813
      5 H1         -3.7884    4.1162    4.2183 H         1 <0>         0.0781
      6 C4         -2.6904    5.9054    4.7239 C.3       1 <0>        -0.1131
      7 C5         -3.9843    6.7114    4.6190 C.3       1 <0>        -0.0682
      8 C6         -4.4005    6.8542    3.1801 C.ar      1 <0>         0.2437
      9 C7         -3.9105    6.0452    2.1843 C.ar      1 <0>        -0.2961
     10 C8         -4.3624    6.2480    0.8741 C.ar      1 <0>         0.4805
     11 N2         -5.2423    7.2128    0.6335 N.ar      1 <0>        -0.6314
     12 C9         -5.6880    7.9752    1.6205 C.ar      1 <0>         0.6010
     13 N3         -5.2796    7.8029    2.8670 N.ar      1 <0>        -0.6121
     14 N4         -6.6030    8.9754    1.3414 N.pl3     1 <0>        -0.8247
     15 N5         -3.8970    5.4506   -0.1587 N.pl3     1 <0>        -0.8339
     16 C10        -2.9051    4.9564    2.4387 C.3       1 <0>        -0.0384
     17 C11        -0.7493    1.5960    3.5675 C.ar      1 <0>         0.0955
     18 C12        -0.2032    1.2218    4.7864 C.ar      1 <0>        -0.1428
     19 C13         0.9390    0.4366    4.8207 C.ar      1 <0>         0.1007
     20 C14         1.5352    0.0257    3.6377 C.ar      1 <0>        -0.1697
     21 C15         0.9896    0.3932    2.4215 C.ar      1 <0>        -0.1662
     22 C16        -0.1480    1.1816    2.3813 C.ar      1 <0>         0.1178
     23 O1         -0.6816    1.5467    1.1837 O.3       1 <0>        -0.2942
     24 C17        -0.0127    1.0858    0.0080 C.3       1 <0>         0.0230
     25 O2          1.4754    0.0696    6.0151 O.3       1 <0>        -0.3185
     26 C18         2.6525   -0.7397    5.9763 C.3       1 <0>         0.0275
     27 H2         -2.8268    1.4343    5.1565 H         1 <0>         0.0315
     28 H3         -3.9293    2.3201    4.0757 H         1 <0>         0.0772
     29 H4         -3.2346    0.7651    3.5584 H         1 <0>         0.0696
     30 H5         -1.5833    3.5153    5.2740 H         1 <0>         0.0423
     31 H6         -0.7623    4.1299    3.8192 H         1 <0>         0.0781
     32 H7         -2.4897    5.6692    5.7689 H         1 <0>         0.0745
     33 H8         -1.8640    6.4838    4.3109 H         1 <0>         0.0698
     34 H9         -4.7723    6.2016    5.1732 H         1 <0>         0.0880
     35 H10        -3.8281    7.7009    5.0488 H         1 <0>         0.0891
     36 H11        -6.9372    9.5401    2.0558 H         1 <0>         0.4137
     37 H12        -6.9102    9.1116    0.4315 H         1 <0>         0.4117
     38 H13        -4.2139    5.5956   -1.0639 H         1 <0>         0.4048
     39 H14        -3.2543    4.7473    0.0233 H         1 <0>         0.4144
     40 H15        -1.9196    5.2938    2.1179 H         1 <0>         0.0658
     41 H16        -3.1823    4.0697    1.8686 H         1 <0>         0.0770
     42 H17        -0.6674    1.5413    5.7077 H         1 <0>         0.1346
     43 H18         2.4249   -0.5859    3.6666 H         1 <0>         0.1314
     44 H19         1.4534    0.0681    1.5019 H         1 <0>         0.1342
     45 H20         0.0021   -0.0041    0.0020 H         1 <0>         0.0522
     46 H21         1.0099    1.4631    0.0003 H         1 <0>         0.0524
     47 H22        -0.5399    1.4469   -0.8751 H         1 <0>         0.0997
     48 H23         2.9755   -0.9603    6.9938 H         1 <0>         0.1007
     49 H24         2.4358   -1.6714    5.4539 H         1 <0>         0.0549
     50 H25         3.4442   -0.2046    5.4518 H         1 <0>         0.0551
@<TRIPOS>BOND
     1    1    2 1
     2    1   27 1
     3    1   28 1
     4    1   29 1
     5    2    3 1
     6    2   17 1
     7    3    4 1
     8    3   30 1
     9    3   31 1
    10    4    5 1
    11    4   16 1
    12    4    6 1
    13    6    7 1
    14    6   32 1
    15    6   33 1
    16    7    8 1
    17    7   34 1
    18    7   35 1
    19    8   13 ar
    20    8    9 ar
    21    9   10 ar
    22    9   16 1
    23   10   11 ar
    24   10   15 1
    25   11   12 ar
    26   12   13 ar
    27   12   14 1
    28   14   36 1
    29   14   37 1
    30   15   38 1
    31   15   39 1
    32   16   40 1
    33   16   41 1
    34   17   22 ar
    35   17   18 ar
    36   18   19 ar
    37   18   42 1
    38   19   20 ar
    39   19   25 1
    40   20   21 ar
    41   20   43 1
    42   21   22 ar
    43   21   44 1
    44   22   23 1
    45   23   24 1
    46   24   45 1
    47   24   46 1
    48   24   47 1
    49   25   26 1
    50   26   48 1
    51   26   49 1
    52   26   50 1
@<TRIPOS>MOLECULE
ZINC03814887
   51    53     0     0     0
SMALL
USER_CHARGES

@<TRIPOS>ATOM
      1 C1         -3.0470    1.6815    4.1180 C.3       1 <0>         0.0210
      2 N1         -1.9019    2.3888    3.5296 N.pl3     1 <0>        -0.4871
      3 C2         -1.6774    3.6765    4.2001 C.3       1 <0>         0.0590
      4 C3         -2.8603    4.6073    3.9259 C.3       1 <0>        -0.0856
      5 H1         -3.7884    4.1162    4.2183 H         1 <0>         0.0876
      6 C4         -2.6904    5.9054    4.7239 C.3       1 <0>        -0.1169
      7 C5         -3.9843    6.7114    4.6190 C.3       1 <0>        -0.1039
      8 C6         -4.4005    6.8542    3.1801 C.ar      1 <0>         0.2304
      9 C7         -3.9105    6.0452    2.1843 C.ar      1 <0>        -0.2133
     10 C8         -4.3624    6.2480    0.8741 C.ar      1 <0>         0.5342
     11 N2         -5.2423    7.2128    0.6335 N.ar      1 <0>        -0.5722
     12 C9         -5.6880    7.9752    1.6205 C.ar      1 <0>         0.6709
     13 N3         -6.6030    8.9754    1.3414 N.pl3     1 <0>        -0.7949
     14 N4         -3.8970    5.4506   -0.1587 N.pl3     1 <0>        -0.7736
     15 C10        -2.9051    4.9564    2.4387 C.3       1 <0>        -0.0607
     16 C11        -0.7493    1.5960    3.5675 C.ar      1 <0>         0.0865
     17 C12        -0.2032    1.2218    4.7864 C.ar      1 <0>        -0.1434
     18 C13         0.9390    0.4366    4.8207 C.ar      1 <0>         0.1052
     19 C14         1.5352    0.0257    3.6377 C.ar      1 <0>        -0.1651
     20 C15         0.9896    0.3932    2.4215 C.ar      1 <0>        -0.1627
     21 C16        -0.1480    1.1816    2.3813 C.ar      1 <0>         0.1170
     22 O1         -0.6816    1.5467    1.1837 O.3       1 <0>        -0.3001
     23 C17        -0.0127    1.0858    0.0080 C.3       1 <0>         0.0216
     24 O2          1.4754    0.0696    6.0151 O.3       1 <0>        -0.3176
     25 C18         2.6525   -0.7397    5.9763 C.3       1 <0>         0.0259
     26 H2         -2.8268    1.4343    5.1565 H         1 <0>         0.0356
     27 H3         -3.9293    2.3201    4.0757 H         1 <0>         0.0729
     28 H4         -3.2346    0.7651    3.5584 H         1 <0>         0.0740
     29 H5         -1.5833    3.5153    5.2740 H         1 <0>         0.0502
     30 H6         -0.7623    4.1299    3.8192 H         1 <0>         0.0834
     31 H7         -2.4897    5.6692    5.7689 H         1 <0>         0.0949
     32 H8         -1.8640    6.4838    4.3109 H         1 <0>         0.0825
     33 H9         -4.7723    6.2016    5.1732 H         1 <0>         0.1170
     34 H10        -3.8281    7.7009    5.0488 H         1 <0>         0.1091
     35 H11        -6.9372    9.5401    2.0558 H         1 <0>         0.4292
     36 H12        -6.9102    9.1116    0.4315 H         1 <0>         0.4418
     37 H13        -4.2139    5.5956   -1.0639 H         1 <0>         0.4275
     38 H14        -3.2543    4.7473    0.0233 H         1 <0>         0.4349
     39 H15        -1.9196    5.2938    2.1179 H         1 <0>         0.0955
     40 H16        -3.1823    4.0697    1.8686 H         1 <0>         0.1020
     41 H17        -0.6674    1.5413    5.7077 H         1 <0>         0.1345
     42 H18         2.4249   -0.5859    3.6666 H         1 <0>         0.1346
     43 H19         1.4534    0.0681    1.5019 H         1 <0>         0.1364
     44 H20         0.0021   -0.0041    0.0020 H         1 <0>         0.0550
     45 H21         1.0099    1.4631    0.0003 H         1 <0>         0.0543
     46 H22        -0.5399    1.4469   -0.8751 H         1 <0>         0.0998
     47 H23         2.9755   -0.9603    6.9938 H         1 <0>         0.1037
     48 H24         2.4358   -1.6714    5.4539 H         1 <0>         0.0571
     49 H25         3.4442   -0.2046    5.4518 H         1 <0>         0.0568
     50 N5         -5.3072    7.8485    2.9221 N.ar      1 <0>        -0.6017
     51 H26        -5.6443    8.4234    3.6676 H         1 <0>         0.4570
@<TRIPOS>BOND
     1    1    2 1
     2    1   26 1
     3    1   27 1
     4    1   28 1
     5    2    3 1
     6    2   16 1
     7    3    4 1
     8    3   29 1
     9    3   30 1
    10    4    5 1
    11    4   15 1
    12    4    6 1
    13    6    7 1
    14    6   31 1
    15    6   32 1
    16    7    8 1
    17    7   33 1
    18    7   34 1
    19    8    9 ar
    20    8   50 ar
    21    9   10 ar
    22    9   15 1
    23   10   11 ar
    24   10   14 1
    25   11   12 ar
    26   12   13 1
    27   12   50 ar
    28   13   35 1
    29   13   36 1
    30   14   37 1
    31   14   38 1
    32   15   39 1
    33   15   40 1
    34   16   21 ar
    35   16   17 ar
    36   17   18 ar
    37   17   41 1
    38   18   19 ar
    39   18   24 1
    40   19   20 ar
    41   19   42 1
    42   20   21 ar
    43   20   43 1
    44   21   22 1
    45   22   23 1
    46   23   44 1
    47   23   45 1
    48   23   46 1
    49   24   25 1
    50   25   47 1
    51   25   48 1
    52   25   49 1
    53   50   51 1
@<TRIPOS>MOLECULE
ZINC03814888
   53    55     0     0     0
SMALL
USER_CHARGES

@<TRIPOS>ATOM
      1 C1         -2.2989    0.5754   -2.2632 C.3       1 <0>        -0.1428
      2 C2         -2.9140   -0.2934   -1.1643 C.3       1 <0>         0.0502
      3 N1         -2.3431    0.0841    0.1355 N.pl3     1 <0>        -0.4846
      4 C3         -3.2004   -0.3694    1.2388 C.3       1 <0>         0.0641
      5 C4         -4.4652    0.4901    1.2882 C.3       1 <0>        -0.0788
      6 H1         -4.9784    0.4422    0.3278 H         1 <0>         0.0766
      7 C5         -5.3940   -0.0230    2.3949 C.3       1 <0>        -0.1133
      8 C6         -6.7376    0.6940    2.2712 C.3       1 <0>        -0.0678
      9 C7         -6.5351    2.1832    2.1969 C.ar      1 <0>         0.2433
     10 C8         -5.3240    2.7506    1.8844 C.ar      1 <0>        -0.2953
     11 C9         -5.2331    4.1473    1.8311 C.ar      1 <0>         0.4804
     12 N2         -6.3121    4.8777    2.0869 N.ar      1 <0>        -0.6316
     13 C10        -7.4614    4.2931    2.3891 C.ar      1 <0>         0.6008
     14 N3         -7.5749    2.9761    2.4438 N.ar      1 <0>        -0.6123
     15 N4         -8.5700    5.0783    2.6536 N.pl3     1 <0>        -0.8249
     16 N5         -4.0314    4.7595    1.5148 N.pl3     1 <0>        -0.8339
     17 C11        -4.0906    1.9376    1.6039 C.3       1 <0>        -0.0370
     18 C12        -1.0419   -0.4121    0.2749 C.ar      1 <0>         0.0999
     19 C13        -0.8188   -1.7809    0.2950 C.ar      1 <0>        -0.1439
     20 C14         0.4708   -2.2695    0.4385 C.ar      1 <0>         0.1008
     21 C15         1.5374   -1.3907    0.5565 C.ar      1 <0>        -0.1705
     22 C16         1.3178   -0.0257    0.5319 C.ar      1 <0>        -0.1670
     23 C17         0.0319    0.4678    0.3888 C.ar      1 <0>         0.1185
     24 O1         -0.1831    1.8114    0.3651 O.3       1 <0>        -0.2929
     25 C18         0.9637    2.6543    0.4929 C.3       1 <0>         0.0228
     26 O2          0.6900   -3.6112    0.4641 O.3       1 <0>        -0.3186
     27 C19         2.0433   -4.0447    0.6151 C.3       1 <0>         0.0277
     28 H2         -2.4347    1.6276   -2.0133 H         1 <0>         0.0648
     29 H3         -1.2344    0.3562   -2.3465 H         1 <0>         0.0498
     30 H4         -2.7893    0.3613   -3.2129 H         1 <0>         0.0567
     31 H5         -2.6965   -1.3423   -1.3659 H         1 <0>         0.0403
     32 H6         -3.9935   -0.1436   -1.1443 H         1 <0>         0.0801
     33 H7         -3.4756   -1.4121    1.0801 H         1 <0>         0.0428
     34 H8         -2.6603   -0.2755    2.1809 H         1 <0>         0.0774
     35 H9         -5.5403   -1.0972    2.2815 H         1 <0>         0.0740
     36 H10        -4.9526    0.1856    3.3695 H         1 <0>         0.0695
     37 H11        -7.2457    0.3540    1.3688 H         1 <0>         0.0878
     38 H12        -7.3536    0.4570    3.1387 H         1 <0>         0.0888
     39 H13        -8.4995    6.0451    2.6164 H         1 <0>         0.4116
     40 H14        -9.4173    4.6620    2.8761 H         1 <0>         0.4136
     41 H15        -3.2467    4.2206    1.3286 H         1 <0>         0.4145
     42 H16        -3.9747    5.7272    1.4794 H         1 <0>         0.4045
     43 H17        -3.4387    1.9589    2.4772 H         1 <0>         0.0646
     44 H18        -3.5620    2.3669    0.7528 H         1 <0>         0.0782
     45 H19        -1.6491   -2.4654    0.2035 H         1 <0>         0.1340
     46 H20         2.5411   -1.7732    0.6682 H         1 <0>         0.1308
     47 H21         2.1501    0.6563    0.6246 H         1 <0>         0.1335
     48 H22         1.4580    2.4535    1.4434 H         1 <0>         0.0520
     49 H23         1.6550    2.4538   -0.3256 H         1 <0>         0.0518
     50 H24         0.6528    3.6984    0.4585 H         1 <0>         0.0992
     51 H25         2.4438   -3.6645    1.5549 H         1 <0>         0.0549
     52 H26         2.0774   -5.1342    0.6198 H         1 <0>         0.1005
     53 H27         2.6408   -3.6661   -0.2142 H         1 <0>         0.0548
@<TRIPOS>BOND
     1    1    2 1
     2    1   28 1
     3    1   29 1
     4    1   30 1
     5    2    3 1
     6    2   31 1
     7    2   32 1
     8    3    4 1
     9    3   18 1
    10    4    5 1
    11    4   33 1
    12    4   34 1
    13    5    6 1
    14    5   17 1
    15    5    7 1
    16    7    8 1
    17    7   35 1
    18    7   36 1
    19    8    9 1
    20    8   37 1
    21    8   38 1
    22    9   14 ar
    23    9   10 ar
    24   10   11 ar
    25   10   17 1
    26   11   12 ar
    27   11   16 1
    28   12   13 ar
    29   13   14 ar
    30   13   15 1
    31   15   39 1
    32   15   40 1
    33   16   41 1
    34   16   42 1
    35   17   43 1
    36   17   44 1
    37   18   23 ar
    38   18   19 ar
    39   19   20 ar
    40   19   45 1
    41   20   21 ar
    42   20   26 1
    43   21   22 ar
    44   21   46 1
    45   22   23 ar
    46   22   47 1
    47   23   24 1
    48   24   25 1
    49   25   48 1
    50   25   49 1
    51   25   50 1
    52   26   27 1
    53   27   51 1
    54   27   52 1
    55   27   53 1
@<TRIPOS>MOLECULE
ZINC03814888
   54    56     0     0     0
SMALL
USER_CHARGES

@<TRIPOS>ATOM
      1 C1         -2.2989    0.5754   -2.2632 C.3       1 <0>        -0.1441
      2 C2         -2.9140   -0.2934   -1.1643 C.3       1 <0>         0.0486
      3 N1         -2.3431    0.0841    0.1355 N.pl3     1 <0>        -0.4850
      4 C3         -3.2004   -0.3694    1.2388 C.3       1 <0>         0.0597
      5 C4         -4.4652    0.4901    1.2882 C.3       1 <0>        -0.0830
      6 H1         -4.9784    0.4422    0.3278 H         1 <0>         0.0862
      7 C5         -5.3940   -0.0230    2.3949 C.3       1 <0>        -0.1173
      8 C6         -6.7376    0.6940    2.2712 C.3       1 <0>        -0.1035
      9 C7         -6.5351    2.1832    2.1969 C.ar      1 <0>         0.2298
     10 C8         -5.3240    2.7506    1.8844 C.ar      1 <0>        -0.2127
     11 C9         -5.2331    4.1473    1.8311 C.ar      1 <0>         0.5341
     12 N2         -6.3121    4.8777    2.0869 N.ar      1 <0>        -0.5723
     13 C10        -7.4614    4.2931    2.3891 C.ar      1 <0>         0.6708
     14 N3         -8.5700    5.0783    2.6536 N.pl3     1 <0>        -0.7952
     15 N4         -4.0314    4.7595    1.5148 N.pl3     1 <0>        -0.7737
     16 C11        -4.0906    1.9376    1.6039 C.3       1 <0>        -0.0596
     17 C12        -1.0419   -0.4121    0.2749 C.ar      1 <0>         0.0912
     18 C13        -0.8188   -1.7809    0.2950 C.ar      1 <0>        -0.1444
     19 C14         0.4708   -2.2695    0.4385 C.ar      1 <0>         0.1056
     20 C15         1.5374   -1.3907    0.5565 C.ar      1 <0>        -0.1662
     21 C16         1.3178   -0.0257    0.5319 C.ar      1 <0>        -0.1634
     22 C17         0.0319    0.4678    0.3888 C.ar      1 <0>         0.1171
     23 O1         -0.1831    1.8114    0.3651 O.3       1 <0>        -0.2992
     24 C18         0.9637    2.6543    0.4929 C.3       1 <0>         0.0214
     25 O2          0.6900   -3.6112    0.4641 O.3       1 <0>        -0.3176
     26 C19         2.0433   -4.0447    0.6151 C.3       1 <0>         0.0261
     27 H2         -2.4347    1.6276   -2.0133 H         1 <0>         0.0625
     28 H3         -1.2344    0.3562   -2.3465 H         1 <0>         0.0537
     29 H4         -2.7893    0.3613   -3.2129 H         1 <0>         0.0593
     30 H5         -2.6965   -1.3423   -1.3659 H         1 <0>         0.0448
     31 H6         -3.9935   -0.1436   -1.1443 H         1 <0>         0.0765
     32 H7         -3.4756   -1.4121    1.0801 H         1 <0>         0.0508
     33 H8         -2.6603   -0.2755    2.1809 H         1 <0>         0.0828
     34 H9         -5.5403   -1.0972    2.2815 H         1 <0>         0.0945
     35 H10        -4.9526    0.1856    3.3695 H         1 <0>         0.0823
     36 H11        -7.2457    0.3540    1.3688 H         1 <0>         0.1169
     37 H12        -7.3536    0.4570    3.1387 H         1 <0>         0.1087
     38 H13        -8.4995    6.0451    2.6164 H         1 <0>         0.4417
     39 H14        -9.4173    4.6620    2.8761 H         1 <0>         0.4292
     40 H15        -3.2467    4.2206    1.3286 H         1 <0>         0.4350
     41 H16        -3.9747    5.7272    1.4794 H         1 <0>         0.4273
     42 H17        -3.4387    1.9589    2.4772 H         1 <0>         0.0945
     43 H18        -3.5620    2.3669    0.7528 H         1 <0>         0.1031
     44 H19        -1.6491   -2.4654    0.2035 H         1 <0>         0.1341
     45 H20         2.5411   -1.7732    0.6682 H         1 <0>         0.1340
     46 H21         2.1501    0.6563    0.6246 H         1 <0>         0.1356
     47 H22         1.4580    2.4535    1.4434 H         1 <0>         0.0538
     48 H23         1.6550    2.4538   -0.3256 H         1 <0>         0.0547
     49 H24         0.6528    3.6984    0.4585 H         1 <0>         0.0990
     50 H25         2.4438   -3.6645    1.5549 H         1 <0>         0.0566
     51 H26         2.0774   -5.1342    0.6198 H         1 <0>         0.1036
     52 H27         2.6408   -3.6661   -0.2142 H         1 <0>         0.0569
     53 N5         -7.6427    2.9450    2.4615 N.ar      1 <0>        -0.6018
     54 H28        -8.5105    2.5034    2.6894 H         1 <0>         0.4569
@<TRIPOS>BOND
     1    1    2 1
     2    1   27 1
     3    1   28 1
     4    1   29 1
     5    2    3 1
     6    2   30 1
     7    2   31 1
     8    3    4 1
     9    3   17 1
    10    4    5 1
    11    4   32 1
    12    4   33 1
    13    5    6 1
    14    5   16 1
    15    5    7 1
    16    7    8 1
    17    7   34 1
    18    7   35 1
    19    8    9 1
    20    8   36 1
    21    8   37 1
    22    9   10 ar
    23    9   53 ar
    24   10   11 ar
    25   10   16 1
    26   11   12 ar
    27   11   15 1
    28   12   13 ar
    29   13   14 1
    30   13   53 ar
    31   14   38 1
    32   14   39 1
    33   15   40 1
    34   15   41 1
    35   16   42 1
    36   16   43 1
    37   17   22 ar
    38   17   18 ar
    39   18   19 ar
    40   18   44 1
    41   19   20 ar
    42   19   25 1
    43   20   21 ar
    44   20   45 1
    45   21   22 ar
    46   21   46 1
    47   22   23 1
    48   23   24 1
    49   24   47 1
    50   24   48 1
    51   24   49 1
    52   25   26 1
    53   26   50 1
    54   26   51 1
    55   26   52 1
    56   53   54 1
@<TRIPOS>MOLECULE
ZINC03814889
   56    58     0     0     0
SMALL
USER_CHARGES

@<TRIPOS>ATOM
      1 C1         -0.0187    1.5258    0.0104 C.3       1 <0>        -0.1532
      2 C2          0.0021   -0.0041    0.0020 C.3       1 <0>         0.0552
      3 O1          0.6709   -0.4649   -1.1737 O.3       1 <0>        -0.3172
      4 C3          0.7768   -1.8108   -1.3362 C.ar      1 <0>         0.1037
      5 C4          0.2523   -2.6677   -0.3800 C.ar      1 <0>        -0.1700
      6 C5          0.3532   -4.0368   -0.5450 C.ar      1 <0>        -0.1668
      7 C6          0.9886   -4.5563   -1.6603 C.ar      1 <0>         0.1207
      8 C7          1.5215   -3.6984   -2.6197 C.ar      1 <0>         0.0951
      9 C8          1.4140   -2.3254   -2.4549 C.ar      1 <0>        -0.1430
     10 N1          2.1645   -4.2209   -3.7476 N.pl3     1 <0>        -0.4866
     11 C9          1.4400   -3.8699   -4.9764 C.3       1 <0>         0.0243
     12 C10         3.5612   -3.7705   -3.8131 C.3       1 <0>         0.0636
     13 C11         4.2976   -4.5495   -4.9048 C.3       1 <0>        -0.0811
     14 H1          3.7609   -4.4536   -5.8486 H         1 <0>         0.0780
     15 C12         5.7193   -3.9976   -5.0620 C.3       1 <0>        -0.1130
     16 C13         6.3486   -4.6266   -6.3042 C.3       1 <0>        -0.0682
     17 C14         6.2072   -6.1242   -6.2652 C.ar      1 <0>         0.2436
     18 C15         5.3059   -6.7613   -5.4479 C.ar      1 <0>        -0.2958
     19 C16         5.2404   -8.1599   -5.4858 C.ar      1 <0>         0.4805
     20 N2          6.0492   -8.8253   -6.3020 N.ar      1 <0>        -0.6315
     21 C17         6.9083   -8.1746   -7.0719 C.ar      1 <0>         0.6010
     22 N3          6.9885   -6.8542   -7.0574 N.ar      1 <0>        -0.6121
     23 N4          7.7416   -8.8930   -7.9115 N.pl3     1 <0>        -0.8247
     24 N5          4.3416   -8.8412   -4.6813 N.pl3     1 <0>        -0.8339
     25 C18         4.3918   -6.0228   -4.5099 C.3       1 <0>        -0.0382
     26 O2          1.0919   -5.9039   -1.8192 O.3       1 <0>        -0.2925
     27 C19         0.5227   -6.7233   -0.7962 C.3       1 <0>         0.0505
     28 C20         0.7352   -8.1975   -1.1463 C.3       1 <0>        -0.1504
     29 H2          1.0039    1.9031    0.0027 H         1 <0>         0.0666
     30 H3         -0.5459    1.8868   -0.8726 H         1 <0>         0.0665
     31 H4         -0.5289    1.8773    0.9072 H         1 <0>         0.0789
     32 H5          0.5293   -0.3651    0.8851 H         1 <0>         0.0611
     33 H6         -1.0205   -0.3814    0.0098 H         1 <0>         0.0610
     34 H7         -0.2395   -2.2648    0.4931 H         1 <0>         0.1304
     35 H8         -0.0604   -4.7017    0.1988 H         1 <0>         0.1332
     36 H9          1.8259   -1.6579   -3.1973 H         1 <0>         0.1341
     37 H10         1.3919   -2.7852   -5.0726 H         1 <0>         0.0312
     38 H11         1.9612   -4.2883   -5.8375 H         1 <0>         0.0769
     39 H12         0.4294   -4.2758   -4.9308 H         1 <0>         0.0694
     40 H13         3.5892   -2.7058   -4.0447 H         1 <0>         0.0420
     41 H14         4.0450   -3.9462   -2.8522 H         1 <0>         0.0778
     42 H15         5.6808   -2.9146   -5.1793 H         1 <0>         0.0744
     43 H16         6.3106   -4.2529   -4.1826 H         1 <0>         0.0697
     44 H17         5.8519   -4.2408   -7.1944 H         1 <0>         0.0879
     45 H18         7.4062   -4.3655   -6.3437 H         1 <0>         0.0890
     46 H19         8.3748   -8.4279   -8.4804 H         1 <0>         0.4137
     47 H20         7.6923   -9.8615   -7.9312 H         1 <0>         0.4117
     48 H21         4.3007   -9.8098   -4.7122 H         1 <0>         0.4047
     49 H22         3.7533   -8.3495   -4.0871 H         1 <0>         0.4142
     50 H23         4.7796   -6.0995   -3.4940 H         1 <0>         0.0655
     51 H24         3.3986   -6.4703   -4.5479 H         1 <0>         0.0770
     52 H25         1.0049   -6.5029    0.1562 H         1 <0>         0.0583
     53 H26        -0.5451   -6.5186   -0.7188 H         1 <0>         0.0581
     54 H27         0.2530   -8.4179   -2.0987 H         1 <0>         0.0665
     55 H28         1.8030   -8.4023   -1.2237 H         1 <0>         0.0660
     56 H29         0.3011   -8.8225   -0.3660 H         1 <0>         0.0760
@<TRIPOS>BOND
     1    1    2 1
     2    1   29 1
     3    1   30 1
     4    1   31 1
     5    2    3 1
     6    2   32 1
     7    2   33 1
     8    3    4 1
     9    4    9 ar
    10    4    5 ar
    11    5    6 ar
    12    5   34 1
    13    6    7 ar
    14    6   35 1
    15    7    8 ar
    16    7   26 1
    17    8    9 ar
    18    8   10 1
    19    9   36 1
    20   10   11 1
    21   10   12 1
    22   11   37 1
    23   11   38 1
    24   11   39 1
    25   12   13 1
    26   12   40 1
    27   12   41 1
    28   13   14 1
    29   13   25 1
    30   13   15 1
    31   15   16 1
    32   15   42 1
    33   15   43 1
    34   16   17 1
    35   16   44 1
    36   16   45 1
    37   17   22 ar
    38   17   18 ar
    39   18   19 ar
    40   18   25 1
    41   19   20 ar
    42   19   24 1
    43   20   21 ar
    44   21   22 ar
    45   21   23 1
    46   23   46 1
    47   23   47 1
    48   24   48 1
    49   24   49 1
    50   25   50 1
    51   25   51 1
    52   26   27 1
    53   27   28 1
    54   27   52 1
    55   27   53 1
    56   28   54 1
    57   28   55 1
    58   28   56 1
@<TRIPOS>MOLECULE
ZINC03814889
   57    59     0     0     0
SMALL
USER_CHARGES

@<TRIPOS>ATOM
      1 C1         -0.0187    1.5258    0.0104 C.3       1 <0>        -0.1540
      2 C2          0.0021   -0.0041    0.0020 C.3       1 <0>         0.0546
      3 O1          0.6709   -0.4649   -1.1737 O.3       1 <0>        -0.3166
      4 C3          0.7768   -1.8108   -1.3362 C.ar      1 <0>         0.1082
      5 C4          0.2523   -2.6677   -0.3800 C.ar      1 <0>        -0.1655
      6 C5          0.3532   -4.0368   -0.5450 C.ar      1 <0>        -0.1634
      7 C6          0.9886   -4.5563   -1.6603 C.ar      1 <0>         0.1199
      8 C7          1.5215   -3.6984   -2.6197 C.ar      1 <0>         0.0862
      9 C8          1.4140   -2.3254   -2.4549 C.ar      1 <0>        -0.1437
     10 N1          2.1645   -4.2209   -3.7476 N.pl3     1 <0>        -0.4864
     11 C9          1.4400   -3.8699   -4.9764 C.3       1 <0>         0.0212
     12 C10         3.5612   -3.7705   -3.8131 C.3       1 <0>         0.0592
     13 C11         4.2976   -4.5495   -4.9048 C.3       1 <0>        -0.0854
     14 H1          3.7609   -4.4536   -5.8486 H         1 <0>         0.0875
     15 C12         5.7193   -3.9976   -5.0620 C.3       1 <0>        -0.1169
     16 C13         6.3486   -4.6266   -6.3042 C.3       1 <0>        -0.1038
     17 C14         6.2072   -6.1242   -6.2652 C.ar      1 <0>         0.2304
     18 C15         5.3059   -6.7613   -5.4479 C.ar      1 <0>        -0.2132
     19 C16         5.2404   -8.1599   -5.4858 C.ar      1 <0>         0.5342
     20 N2          6.0492   -8.8253   -6.3020 N.ar      1 <0>        -0.5721
     21 C17         6.9083   -8.1746   -7.0719 C.ar      1 <0>         0.6708
     22 N3          7.7416   -8.8930   -7.9115 N.pl3     1 <0>        -0.7949
     23 N4          4.3416   -8.8412   -4.6813 N.pl3     1 <0>        -0.7737
     24 C18         4.3918   -6.0228   -4.5099 C.3       1 <0>        -0.0606
     25 O2          1.0919   -5.9039   -1.8192 O.3       1 <0>        -0.2982
     26 C19         0.5227   -6.7233   -0.7962 C.3       1 <0>         0.0486
     27 C20         0.7352   -8.1975   -1.1463 C.3       1 <0>        -0.1492
     28 H2          1.0039    1.9031    0.0027 H         1 <0>         0.0670
     29 H3         -0.5459    1.8868   -0.8726 H         1 <0>         0.0673
     30 H4         -0.5289    1.8773    0.9072 H         1 <0>         0.0814
     31 H5          0.5293   -0.3651    0.8851 H         1 <0>         0.0626
     32 H6         -1.0205   -0.3814    0.0098 H         1 <0>         0.0629
     33 H7         -0.2395   -2.2648    0.4931 H         1 <0>         0.1335
     34 H8         -0.0604   -4.7017    0.1988 H         1 <0>         0.1353
     35 H9          1.8259   -1.6579   -3.1973 H         1 <0>         0.1340
     36 H10         1.3919   -2.7852   -5.0726 H         1 <0>         0.0354
     37 H11         1.9612   -4.2883   -5.8375 H         1 <0>         0.0725
     38 H12         0.4294   -4.2758   -4.9308 H         1 <0>         0.0737
     39 H13         3.5892   -2.7058   -4.0447 H         1 <0>         0.0499
     40 H14         4.0450   -3.9462   -2.8522 H         1 <0>         0.0832
     41 H15         5.6808   -2.9146   -5.1793 H         1 <0>         0.0949
     42 H16         6.3106   -4.2529   -4.1826 H         1 <0>         0.0825
     43 H17         5.8519   -4.2408   -7.1944 H         1 <0>         0.1170
     44 H18         7.4062   -4.3655   -6.3437 H         1 <0>         0.1090
     45 H19         8.3748   -8.4279   -8.4804 H         1 <0>         0.4292
     46 H20         7.6923   -9.8615   -7.9312 H         1 <0>         0.4417
     47 H21         4.3007   -9.8098   -4.7122 H         1 <0>         0.4275
     48 H22         3.7533   -8.3495   -4.0871 H         1 <0>         0.4348
     49 H23         4.7796   -6.0995   -3.4940 H         1 <0>         0.0953
     50 H24         3.3986   -6.4703   -4.5479 H         1 <0>         0.1020
     51 H25         1.0049   -6.5029    0.1562 H         1 <0>         0.0604
     52 H26        -0.5451   -6.5186   -0.7188 H         1 <0>         0.0611
     53 H27         0.2530   -8.4179   -2.0987 H         1 <0>         0.0658
     54 H28         1.8030   -8.4023   -1.2237 H         1 <0>         0.0625
     55 H29         0.3011   -8.8225   -0.3660 H         1 <0>         0.0790
     56 N5          7.0391   -6.8192   -7.1031 N.ar      1 <0>        -0.6017
     57 H30         7.6872   -6.3277   -7.6849 H         1 <0>         0.4570
@<TRIPOS>BOND
     1    1    2 1
     2    1   28 1
     3    1   29 1
     4    1   30 1
     5    2    3 1
     6    2   31 1
     7    2   32 1
     8    3    4 1
     9    4    9 ar
    10    4    5 ar
    11    5    6 ar
    12    5   33 1
    13    6    7 ar
    14    6   34 1
    15    7    8 ar
    16    7   25 1
    17    8    9 ar
    18    8   10 1
    19    9   35 1
    20   10   11 1
    21   10   12 1
    22   11   36 1
    23   11   37 1
    24   11   38 1
    25   12   13 1
    26   12   39 1
    27   12   40 1
    28   13   14 1
    29   13   24 1
    30   13   15 1
    31   15   16 1
    32   15   41 1
    33   15   42 1
    34   16   17 1
    35   16   43 1
    36   16   44 1
    37   17   18 ar
    38   17   56 ar
    39   18   19 ar
    40   18   24 1
    41   19   20 ar
    42   19   23 1
    43   20   21 ar
    44   21   22 1
    45   21   56 ar
    46   22   45 1
    47   22   46 1
    48   23   47 1
    49   23   48 1
    50   24   49 1
    51   24   50 1
    52   25   26 1
    53   26   27 1
    54   26   51 1
    55   26   52 1
    56   27   53 1
    57   27   54 1
    58   27   55 1
    59   56   57 1
@<TRIPOS>MOLECULE
ZINC03814890
   39    41     0     0     0
SMALL
USER_CHARGES

@<TRIPOS>ATOM
      1 C1          0.0021   -0.0041    0.0020 C.ar      1 <0>        -0.1818
      2 C2         -0.0167    1.3772    0.0096 C.ar      1 <0>        -0.0482
      3 C3          1.1709    2.0866    0.0021 C.ar      1 <0>        -0.0916
      4 C4          2.3819    1.4144   -0.0132 C.ar      1 <0>         0.0204
      5 C5          2.4060    0.0327   -0.0208 C.ar      1 <0>        -0.1821
      6 C6          1.2145   -0.6812   -0.0132 C.ar      1 <0>         0.2348
      7 N1          1.2357   -2.0784   -0.0214 N.pl3     1 <0>        -0.7388
      8 C7          2.5154   -2.7915   -0.0375 C.3       1 <0>         0.1245
      9 C8          2.2587   -4.2998   -0.0437 C.3       1 <0>        -0.0965
     10 H1          1.6029   -4.5564   -0.8757 H         1 <0>         0.0838
     11 C9          3.5891   -5.0484   -0.1863 C.3       1 <0>        -0.1097
     12 C10         3.2898   -6.5277   -0.4245 C.3       1 <0>        -0.0703
     13 C11         2.3324   -7.0453    0.6146 C.ar      1 <0>         0.2493
     14 C12         1.5585   -6.2143    1.3872 C.ar      1 <0>        -0.3032
     15 C13         0.6897   -6.7882    2.3239 C.ar      1 <0>         0.4819
     16 N2          0.6426   -8.1100    2.4404 N.ar      1 <0>        -0.6298
     17 C14         1.4084   -8.8778    1.6799 C.ar      1 <0>         0.6049
     18 N3          2.2356   -8.3614    0.7859 N.ar      1 <0>        -0.6104
     19 N4          1.3412  -10.2527    1.8235 N.pl3     1 <0>        -0.8221
     20 N5         -0.1118   -5.9858    3.1195 N.pl3     1 <0>        -0.8349
     21 C15         1.6089   -4.7157    1.2755 C.3       1 <0>        -0.0466
     22 Cl1         3.8702    2.3081   -0.0227 Cl        1 <0>        -0.0489
     23 Cl2         1.1434    3.8224    0.0112 Cl        1 <0>        -0.0580
     24 H2         -0.9256   -0.5570    0.0083 H         1 <0>         0.1349
     25 H3         -0.9595    1.9038    0.0169 H         1 <0>         0.1415
     26 H4          3.3502   -0.4915   -0.0331 H         1 <0>         0.1402
     27 H5          0.4032   -2.5762   -0.0164 H         1 <0>         0.4036
     28 H6          3.0745   -2.5144   -0.9312 H         1 <0>         0.0677
     29 H7          3.0912   -2.5246    0.8486 H         1 <0>         0.0667
     30 H8          4.1465   -4.6467   -1.0325 H         1 <0>         0.0801
     31 H9          4.1742   -4.9324    0.7259 H         1 <0>         0.0733
     32 H10         2.8491   -6.6514   -1.4138 H         1 <0>         0.0908
     33 H11         4.2185   -7.0960   -0.3736 H         1 <0>         0.0929
     34 H12         0.7383  -10.6434    2.4753 H         1 <0>         0.4130
     35 H13         1.8970  -10.8256    1.2724 H         1 <0>         0.4150
     36 H14        -0.0733   -5.0208    3.0296 H         1 <0>         0.4113
     37 H15        -0.7116   -6.3891    3.7665 H         1 <0>         0.4071
     38 H16         2.1883   -4.3118    2.1057 H         1 <0>         0.0718
     39 H17         0.5955   -4.3168    1.3196 H         1 <0>         0.0636
@<TRIPOS>BOND
     1    1    6 ar
     2    1    2 ar
     3    1   24 1
     4    2    3 ar
     5    2   25 1
     6    3    4 ar
     7    3   23 1
     8    4    5 ar
     9    4   22 1
    10    5    6 ar
    11    5   26 1
    12    6    7 1
    13    7    8 1
    14    7   27 1
    15    8    9 1
    16    8   28 1
    17    8   29 1
    18    9   10 1
    19    9   21 1
    20    9   11 1
    21   11   12 1
    22   11   30 1
    23   11   31 1
    24   12   13 1
    25   12   32 1
    26   12   33 1
    27   13   18 ar
    28   13   14 ar
    29   14   15 ar
    30   14   21 1
    31   15   16 ar
    32   15   20 1
    33   16   17 ar
    34   17   18 ar
    35   17   19 1
    36   19   34 1
    37   19   35 1
    38   20   36 1
    39   20   37 1
    40   21   38 1
    41   21   39 1
@<TRIPOS>MOLECULE
ZINC03814890
   40    42     0     0     0
SMALL
USER_CHARGES

@<TRIPOS>ATOM
      1 C1          0.0021   -0.0041    0.0020 C.ar      1 <0>        -0.1773
      2 C2         -0.0167    1.3772    0.0096 C.ar      1 <0>        -0.0487
      3 C3          1.1709    2.0866    0.0021 C.ar      1 <0>        -0.0845
      4 C4          2.3819    1.4144   -0.0132 C.ar      1 <0>         0.0173
      5 C5          2.4060    0.0327   -0.0208 C.ar      1 <0>        -0.1788
      6 C6          1.2145   -0.6812   -0.0132 C.ar      1 <0>         0.2258
      7 N1          1.2357   -2.0784   -0.0214 N.pl3     1 <0>        -0.7461
      8 C7          2.5154   -2.7915   -0.0375 C.3       1 <0>         0.1247
      9 C8          2.2587   -4.2998   -0.0437 C.3       1 <0>        -0.1000
     10 H1          1.6029   -4.5564   -0.8757 H         1 <0>         0.0932
     11 C9          3.5891   -5.0484   -0.1863 C.3       1 <0>        -0.1140
     12 C10         3.2898   -6.5277   -0.4245 C.3       1 <0>        -0.1061
     13 C11         2.3324   -7.0453    0.6146 C.ar      1 <0>         0.2386
     14 C12         1.5585   -6.2143    1.3872 C.ar      1 <0>        -0.2203
     15 C13         0.6897   -6.7882    2.3239 C.ar      1 <0>         0.5351
     16 N2          0.6426   -8.1100    2.4404 N.ar      1 <0>        -0.5702
     17 C14         1.4084   -8.8778    1.6799 C.ar      1 <0>         0.6725
     18 N3          1.3412  -10.2527    1.8235 N.pl3     1 <0>        -0.7917
     19 N4         -0.1118   -5.9858    3.1195 N.pl3     1 <0>        -0.7755
     20 C15         1.6089   -4.7157    1.2755 C.3       1 <0>        -0.0687
     21 Cl1         3.8702    2.3081   -0.0227 Cl        1 <0>        -0.0422
     22 Cl2         1.1434    3.8224    0.0112 Cl        1 <0>        -0.0488
     23 H2         -0.9256   -0.5570    0.0083 H         1 <0>         0.1350
     24 H3         -0.9595    1.9038    0.0169 H         1 <0>         0.1442
     25 H4          3.3502   -0.4915   -0.0331 H         1 <0>         0.1393
     26 H5          0.4032   -2.5762   -0.0164 H         1 <0>         0.4013
     27 H6          3.0745   -2.5144   -0.9312 H         1 <0>         0.0737
     28 H7          3.0912   -2.5246    0.8486 H         1 <0>         0.0706
     29 H8          4.1465   -4.6467   -1.0325 H         1 <0>         0.1004
     30 H9          4.1742   -4.9324    0.7259 H         1 <0>         0.0861
     31 H10         2.8491   -6.6514   -1.4138 H         1 <0>         0.1201
     32 H11         4.2185   -7.0960   -0.3736 H         1 <0>         0.1129
     33 H12         0.7383  -10.6434    2.4753 H         1 <0>         0.4429
     34 H13         1.8970  -10.8256    1.2724 H         1 <0>         0.4304
     35 H14        -0.0733   -5.0208    3.0296 H         1 <0>         0.4319
     36 H15        -0.7116   -6.3891    3.7665 H         1 <0>         0.4295
     37 H16         2.1883   -4.3118    2.1057 H         1 <0>         0.1007
     38 H17         0.5955   -4.3168    1.3196 H         1 <0>         0.0889
     39 N5          2.2787   -8.4083    0.7432 N.ar      1 <0>        -0.6012
     40 H18         2.8566   -8.9878    0.1686 H         1 <0>         0.4587
@<TRIPOS>BOND
     1    1    6 ar
     2    1    2 ar
     3    1   23 1
     4    2    3 ar
     5    2   24 1
     6    3    4 ar
     7    3   22 1
     8    4    5 ar
     9    4   21 1
    10    5    6 ar
    11    5   25 1
    12    6    7 1
    13    7    8 1
    14    7   26 1
    15    8    9 1
    16    8   27 1
    17    8   28 1
    18    9   10 1
    19    9   20 1
    20    9   11 1
    21   11   12 1
    22   11   29 1
    23   11   30 1
    24   12   13 1
    25   12   31 1
    26   12   32 1
    27   13   14 ar
    28   13   39 ar
    29   14   15 ar
    30   14   20 1
    31   15   16 ar
    32   15   19 1
    33   16   17 ar
    34   17   18 1
    35   17   39 ar
    36   18   33 1
    37   18   34 1
    38   19   35 1
    39   19   36 1
    40   20   37 1
    41   20   38 1
    42   39   40 1
@<TRIPOS>MOLECULE
ZINC03814891
   37    39     0     0     0
SMALL
USER_CHARGES

@<TRIPOS>ATOM
      1 C1          2.3773    1.4107   -0.0145 C.ar      1 <0>        -0.1259
      2 C2          1.1710    2.0855    0.0021 C.ar      1 <0>        -0.1190
      3 C3         -0.0167    1.3781    0.0096 C.ar      1 <0>        -0.1198
      4 C4          0.0021   -0.0041    0.0020 C.ar      1 <0>        -0.0782
      5 C5          1.2084   -0.6789   -0.0132 C.ar      1 <0>        -0.1179
      6 C6          2.3960    0.0285   -0.0217 C.ar      1 <0>        -0.1173
      7 C7         -1.2926   -0.7753    0.0108 C.3       1 <0>        -0.0775
      8 C8         -1.7452   -1.0285   -1.4286 C.3       1 <0>        -0.0792
      9 H1         -0.9455   -1.5198   -1.9830 H         1 <0>         0.0768
     10 C9         -2.9936   -1.9185   -1.4274 C.3       1 <0>        -0.1130
     11 C10        -3.2849   -2.3466   -2.8649 C.3       1 <0>        -0.0707
     12 C11        -3.3114   -1.1492   -3.7758 C.ar      1 <0>         0.2474
     13 C12        -2.7617    0.0596   -3.4252 C.ar      1 <0>        -0.2982
     14 C13        -2.8276    1.1160   -4.3424 C.ar      1 <0>         0.4805
     15 N1         -3.4196    0.9211   -5.5149 N.ar      1 <0>        -0.6306
     16 C14        -3.9419   -0.2586   -5.8145 C.ar      1 <0>         0.6026
     17 N2         -3.8907   -1.2735   -4.9674 N.ar      1 <0>        -0.6112
     18 N3         -4.5552   -0.4338   -7.0426 N.pl3     1 <0>        -0.8233
     19 N4         -2.2811    2.3501   -4.0302 N.pl3     1 <0>        -0.8349
     20 C15        -2.0988    0.2995   -2.0971 C.3       1 <0>        -0.0489
     21 H2          3.3051    1.9634   -0.0205 H         1 <0>         0.1198
     22 H3          1.1563    3.1654    0.0077 H         1 <0>         0.1206
     23 H4         -0.9592    1.9054    0.0170 H         1 <0>         0.1203
     24 H5          1.2231   -1.7588   -0.0188 H         1 <0>         0.1209
     25 H6          3.3385   -0.4987   -0.0335 H         1 <0>         0.1207
     26 H7         -1.1443   -1.7285    0.5181 H         1 <0>         0.0765
     27 H8         -2.0550   -0.1993    0.5353 H         1 <0>         0.0747
     28 H9         -2.8143   -2.8001   -0.8119 H         1 <0>         0.0767
     29 H10        -3.8418   -1.3591   -1.0328 H         1 <0>         0.0695
     30 H11        -2.5102   -3.0367   -3.1994 H         1 <0>         0.0890
     31 H12        -4.2513   -2.8493   -2.9023 H         1 <0>         0.0899
     32 H13        -4.9412   -1.2932   -7.2738 H         1 <0>         0.4144
     33 H14        -4.5992    0.3027   -7.6723 H         1 <0>         0.4123
     34 H15        -2.3296    3.0778   -4.6696 H         1 <0>         0.4062
     35 H16        -1.8500    2.4864   -3.1720 H         1 <0>         0.4116
     36 H17        -2.7765    0.8585   -1.4518 H         1 <0>         0.0678
     37 H18        -1.1889    0.8803   -2.2483 H         1 <0>         0.0677
@<TRIPOS>BOND
     1    1    6 ar
     2    1    2 ar
     3    1   21 1
     4    2    3 ar
     5    2   22 1
     6    3    4 ar
     7    3   23 1
     8    4    5 ar
     9    4    7 1
    10    5    6 ar
    11    5   24 1
    12    6   25 1
    13    7    8 1
    14    7   26 1
    15    7   27 1
    16    8    9 1
    17    8   20 1
    18    8   10 1
    19   10   11 1
    20   10   28 1
    21   10   29 1
    22   11   12 1
    23   11   30 1
    24   11   31 1
    25   12   17 ar
    26   12   13 ar
    27   13   14 ar
    28   13   20 1
    29   14   15 ar
    30   14   19 1
    31   15   16 ar
    32   16   17 ar
    33   16   18 1
    34   18   32 1
    35   18   33 1
    36   19   34 1
    37   19   35 1
    38   20   36 1
    39   20   37 1
@<TRIPOS>MOLECULE
ZINC03814891
   38    40     0     0     0
SMALL
USER_CHARGES

@<TRIPOS>ATOM
      1 C1          2.3773    1.4107   -0.0145 C.ar      1 <0>        -0.1191
      2 C2          1.1710    2.0855    0.0021 C.ar      1 <0>        -0.1177
      3 C3         -0.0167    1.3781    0.0096 C.ar      1 <0>        -0.1250
      4 C4          0.0021   -0.0041    0.0020 C.ar      1 <0>        -0.0901
      5 C5          1.2084   -0.6789   -0.0132 C.ar      1 <0>        -0.1159
      6 C6          2.3960    0.0285   -0.0217 C.ar      1 <0>        -0.1137
      7 C7         -1.2926   -0.7753    0.0108 C.3       1 <0>        -0.0768
      8 C8         -1.7452   -1.0285   -1.4286 C.3       1 <0>        -0.0828
      9 H1         -0.9455   -1.5198   -1.9830 H         1 <0>         0.0865
     10 C9         -2.9936   -1.9185   -1.4274 C.3       1 <0>        -0.1170
     11 C10        -3.2849   -2.3466   -2.8649 C.3       1 <0>        -0.1066
     12 C11        -3.3114   -1.1492   -3.7758 C.ar      1 <0>         0.2360
     13 C12        -2.7617    0.0596   -3.4252 C.ar      1 <0>        -0.2163
     14 C13        -2.8276    1.1160   -4.3424 C.ar      1 <0>         0.5344
     15 N1         -3.4196    0.9211   -5.5149 N.ar      1 <0>        -0.5711
     16 C14        -3.9419   -0.2586   -5.8145 C.ar      1 <0>         0.6715
     17 N2         -4.5552   -0.4338   -7.0426 N.pl3     1 <0>        -0.7933
     18 N3         -2.2811    2.3501   -4.0302 N.pl3     1 <0>        -0.7755
     19 C15        -2.0988    0.2995   -2.0971 C.3       1 <0>        -0.0713
     20 H2          3.3051    1.9634   -0.0205 H         1 <0>         0.1239
     21 H3          1.1563    3.1654    0.0077 H         1 <0>         0.1234
     22 H4         -0.9592    1.9054    0.0170 H         1 <0>         0.1197
     23 H5          1.2231   -1.7588   -0.0188 H         1 <0>         0.1222
     24 H6          3.3385   -0.4987   -0.0335 H         1 <0>         0.1243
     25 H7         -1.1443   -1.7285    0.5181 H         1 <0>         0.0840
     26 H8         -2.0550   -0.1993    0.5353 H         1 <0>         0.0798
     27 H9         -2.8143   -2.8001   -0.8119 H         1 <0>         0.0970
     28 H10        -3.8418   -1.3591   -1.0328 H         1 <0>         0.0822
     29 H11        -2.5102   -3.0367   -3.1994 H         1 <0>         0.1183
     30 H12        -4.2513   -2.8493   -2.9023 H         1 <0>         0.1099
     31 H13        -4.9412   -1.2932   -7.2738 H         1 <0>         0.4299
     32 H14        -4.5992    0.3027   -7.6723 H         1 <0>         0.4423
     33 H15        -2.3296    3.0778   -4.6696 H         1 <0>         0.4287
     34 H16        -1.8500    2.4864   -3.1720 H         1 <0>         0.4321
     35 H17        -2.7765    0.8585   -1.4518 H         1 <0>         0.0970
     36 H18        -1.1889    0.8803   -2.2483 H         1 <0>         0.0926
     37 N4         -3.9217   -1.3407   -4.9874 N.ar      1 <0>        -0.6013
     38 H19        -4.3153   -2.2317   -5.2138 H         1 <0>         0.4579
@<TRIPOS>BOND
     1    1    6 ar
     2    1    2 ar
     3    1   20 1
     4    2    3 ar
     5    2   21 1
     6    3    4 ar
     7    3   22 1
     8    4    5 ar
     9    4    7 1
    10    5    6 ar
    11    5   23 1
    12    6   24 1
    13    7    8 1
    14    7   25 1
    15    7   26 1
    16    8    9 1
    17    8   19 1
    18    8   10 1
    19   10   11 1
    20   10   27 1
    21   10   28 1
    22   11   12 1
    23   11   29 1
    24   11   30 1
    25   12   13 ar
    26   12   37 ar
    27   13   14 ar
    28   13   19 1
    29   14   15 ar
    30   14   18 1
    31   15   16 ar
    32   16   17 1
    33   16   37 ar
    34   17   31 1
    35   17   32 1
    36   18   33 1
    37   18   34 1
    38   19   35 1
    39   19   36 1
    40   37   38 1
@<TRIPOS>MOLECULE
ZINC03814892
   40    42     0     0     0
SMALL
USER_CHARGES

@<TRIPOS>ATOM
      1 C1          0.7071    3.6844    0.7765 C.3       1 <0>        -0.1185
      2 C2          1.0240    2.2619    0.3927 C.ar      1 <0>        -0.0824
      3 C3          2.3377    1.8710    0.2118 C.ar      1 <0>        -0.1187
      4 C4          2.6283    0.5662   -0.1397 C.ar      1 <0>        -0.1216
      5 C5          1.6053   -0.3478   -0.3108 C.ar      1 <0>        -0.1247
      6 C6          0.2919    0.0430   -0.1299 C.ar      1 <0>        -0.1155
      7 C7          0.0013    1.3480    0.2222 C.ar      1 <0>        -0.0794
      8 C8         -1.4303    1.7724    0.4260 C.3       1 <0>        -0.0779
      9 C9         -1.7504    1.7850    1.9221 C.3       1 <0>        -0.0794
     10 H1         -1.0214    2.4020    2.4475 H         1 <0>         0.0774
     11 C10        -3.1584    2.3501    2.1431 C.3       1 <0>        -0.1130
     12 C11        -3.3625    2.5703    3.6413 C.3       1 <0>        -0.0703
     13 C12        -3.0068    1.3264    4.4097 C.ar      1 <0>         0.2472
     14 C13        -2.2448    0.3177    3.8730 C.ar      1 <0>        -0.2978
     15 C14        -1.9583   -0.7998    4.6674 C.ar      1 <0>         0.4804
     16 N1         -2.4323   -0.8535    5.9065 N.ar      1 <0>        -0.6307
     17 C15        -3.1676    0.1380    6.3867 C.ar      1 <0>         0.6024
     18 N2         -3.4503    1.2057    5.6585 N.ar      1 <0>        -0.6112
     19 N3         -3.6511    0.0553    7.6808 N.pl3     1 <0>        -0.8235
     20 N4         -1.1897   -1.8374    4.1658 N.pl3     1 <0>        -0.8348
     21 C16        -1.7056    0.3587    2.4691 C.3       1 <0>        -0.0473
     22 H2          0.5976    3.7529    1.8588 H         1 <0>         0.0708
     23 H3          1.5169    4.3374    0.4511 H         1 <0>         0.0640
     24 H4         -0.2224    3.9916    0.2971 H         1 <0>         0.0705
     25 H5          3.1369    2.5850    0.3454 H         1 <0>         0.1199
     26 H6          3.6546    0.2609   -0.2811 H         1 <0>         0.1196
     27 H7          1.8323   -1.3672   -0.5861 H         1 <0>         0.1198
     28 H8         -0.5072   -0.6712   -0.2633 H         1 <0>         0.1202
     29 H9         -1.5751    2.7715    0.0150 H         1 <0>         0.0788
     30 H10        -2.0929    1.0712   -0.0814 H         1 <0>         0.0730
     31 H11        -3.2591    3.2990    1.6164 H         1 <0>         0.0762
     32 H12        -3.8995    1.6434    1.7695 H         1 <0>         0.0694
     33 H13        -2.7292    3.3927    3.9741 H         1 <0>         0.0888
     34 H14        -4.4057    2.8241    3.8294 H         1 <0>         0.0897
     35 H15        -4.1905    0.7751    8.0439 H         1 <0>         0.4143
     36 H16        -3.4506   -0.7224    8.2247 H         1 <0>         0.4122
     37 H17        -0.9949   -2.6089    4.7206 H         1 <0>         0.4061
     38 H18        -0.8462   -1.7925    3.2597 H         1 <0>         0.4118
     39 H19        -2.3101   -0.2896    1.8347 H         1 <0>         0.0672
     40 H20        -0.6752    0.0032    2.4645 H         1 <0>         0.0668
@<TRIPOS>BOND
     1    1    2 1
     2    1   22 1
     3    1   23 1
     4    1   24 1
     5    2    7 ar
     6    2    3 ar
     7    3    4 ar
     8    3   25 1
     9    4    5 ar
    10    4   26 1
    11    5    6 ar
    12    5   27 1
    13    6    7 ar
    14    6   28 1
    15    7    8 1
    16    8    9 1
    17    8   29 1
    18    8   30 1
    19    9   10 1
    20    9   21 1
    21    9   11 1
    22   11   12 1
    23   11   31 1
    24   11   32 1
    25   12   13 1
    26   12   33 1
    27   12   34 1
    28   13   18 ar
    29   13   14 ar
    30   14   15 ar
    31   14   21 1
    32   15   16 ar
    33   15   20 1
    34   16   17 ar
    35   17   18 ar
    36   17   19 1
    37   19   35 1
    38   19   36 1
    39   20   37 1
    40   20   38 1
    41   21   39 1
    42   21   40 1
@<TRIPOS>MOLECULE
ZINC03814892
   41    43     0     0     0
SMALL
USER_CHARGES

@<TRIPOS>ATOM
      1 C1          0.7071    3.6844    0.7765 C.3       1 <0>        -0.1196
      2 C2          1.0240    2.2619    0.3927 C.ar      1 <0>        -0.0816
      3 C3          2.3377    1.8710    0.2118 C.ar      1 <0>        -0.1159
      4 C4          2.6283    0.5662   -0.1397 C.ar      1 <0>        -0.1150
      5 C5          1.6053   -0.3478   -0.3108 C.ar      1 <0>        -0.1229
      6 C6          0.2919    0.0430   -0.1299 C.ar      1 <0>        -0.1189
      7 C7          0.0013    1.3480    0.2222 C.ar      1 <0>        -0.0915
      8 C8         -1.4303    1.7724    0.4260 C.3       1 <0>        -0.0772
      9 C9         -1.7504    1.7850    1.9221 C.3       1 <0>        -0.0841
     10 H1         -1.0214    2.4020    2.4475 H         1 <0>         0.0870
     11 C10        -3.1584    2.3501    2.1431 C.3       1 <0>        -0.1170
     12 C11        -3.3625    2.5703    3.6413 C.3       1 <0>        -0.1063
     13 C12        -3.0068    1.3264    4.4097 C.ar      1 <0>         0.2355
     14 C13        -2.2448    0.3177    3.8730 C.ar      1 <0>        -0.2158
     15 C14        -1.9583   -0.7998    4.6674 C.ar      1 <0>         0.5342
     16 N1         -2.4323   -0.8535    5.9065 N.ar      1 <0>        -0.5712
     17 C15        -3.1676    0.1380    6.3867 C.ar      1 <0>         0.6714
     18 N2         -3.6511    0.0553    7.6808 N.pl3     1 <0>        -0.7934
     19 N3         -1.1897   -1.8374    4.1658 N.pl3     1 <0>        -0.7754
     20 C16        -1.7056    0.3587    2.4691 C.3       1 <0>        -0.0694
     21 H2          0.5976    3.7529    1.8588 H         1 <0>         0.0679
     22 H3          1.5169    4.3374    0.4511 H         1 <0>         0.0682
     23 H4         -0.2224    3.9916    0.2971 H         1 <0>         0.0708
     24 H5          3.1369    2.5850    0.3454 H         1 <0>         0.1232
     25 H6          3.6546    0.2609   -0.2811 H         1 <0>         0.1237
     26 H7          1.8323   -1.3672   -0.5861 H         1 <0>         0.1230
     27 H8         -0.5072   -0.6712   -0.2633 H         1 <0>         0.1207
     28 H9         -1.5751    2.7715    0.0150 H         1 <0>         0.0861
     29 H10        -2.0929    1.0712   -0.0814 H         1 <0>         0.0783
     30 H11        -3.2591    3.2990    1.6164 H         1 <0>         0.0966
     31 H12        -3.8995    1.6434    1.7695 H         1 <0>         0.0822
     32 H13        -2.7292    3.3927    3.9741 H         1 <0>         0.1181
     33 H14        -4.4057    2.8241    3.8294 H         1 <0>         0.1098
     34 H15        -4.1905    0.7751    8.0439 H         1 <0>         0.4298
     35 H16        -3.4506   -0.7224    8.2247 H         1 <0>         0.4422
     36 H17        -0.9949   -2.6089    4.7206 H         1 <0>         0.4286
     37 H18        -0.8462   -1.7925    3.2597 H         1 <0>         0.4324
     38 H19        -2.3101   -0.2896    1.8347 H         1 <0>         0.0965
     39 H20        -0.6752    0.0032    2.4645 H         1 <0>         0.0921
     40 N4         -3.4931    1.2616    5.6889 N.ar      1 <0>        -0.6013
     41 H21        -4.0475    2.0107    6.0516 H         1 <0>         0.4578
@<TRIPOS>BOND
     1    1    2 1
     2    1   21 1
     3    1   22 1
     4    1   23 1
     5    2    7 ar
     6    2    3 ar
     7    3    4 ar
     8    3   24 1
     9    4    5 ar
    10    4   25 1
    11    5    6 ar
    12    5   26 1
    13    6    7 ar
    14    6   27 1
    15    7    8 1
    16    8    9 1
    17    8   28 1
    18    8   29 1
    19    9   10 1
    20    9   20 1
    21    9   11 1
    22   11   12 1
    23   11   30 1
    24   11   31 1
    25   12   13 1
    26   12   32 1
    27   12   33 1
    28   13   14 ar
    29   13   40 ar
    30   14   15 ar
    31   14   20 1
    32   15   16 ar
    33   15   19 1
    34   16   17 ar
    35   17   18 1
    36   17   40 ar
    37   18   34 1
    38   18   35 1
    39   19   36 1
    40   19   37 1
    41   20   38 1
    42   20   39 1
    43   40   41 1
@<TRIPOS>MOLECULE
ZINC03814893
   40    42     0     0     0
SMALL
USER_CHARGES

@<TRIPOS>ATOM
      1 C1          1.1503    3.5925    0.0104 C.3       1 <0>        -0.1165
      2 C2          1.1708    2.0856    0.0021 C.ar      1 <0>        -0.0844
      3 C3          2.3773    1.4107   -0.0150 C.ar      1 <0>        -0.1268
      4 C4          2.3960    0.0288   -0.0217 C.ar      1 <0>        -0.1128
      5 C5          1.2082   -0.6788   -0.0132 C.ar      1 <0>        -0.1236
      6 C6          0.0021   -0.0041    0.0020 C.ar      1 <0>        -0.0738
      7 C7         -0.0167    1.3783    0.0096 C.ar      1 <0>        -0.1202
      8 C8         -1.2926   -0.7753    0.0108 C.3       1 <0>        -0.0771
      9 C9         -1.7452   -1.0285   -1.4286 C.3       1 <0>        -0.0790
     10 H1         -0.9509   -1.5330   -1.9789 H         1 <0>         0.0767
     11 C10        -3.0084   -1.8972   -1.4263 C.3       1 <0>        -0.1128
     12 C11        -3.3028   -2.3278   -2.8626 C.3       1 <0>        -0.0707
     13 C12        -3.3076   -1.1345   -3.7792 C.ar      1 <0>         0.2473
     14 C13        -2.7380    0.0664   -3.4336 C.ar      1 <0>        -0.2982
     15 C14        -2.7787    1.1173   -4.3586 C.ar      1 <0>         0.4806
     16 N1         -3.3668    0.9249   -5.5334 N.ar      1 <0>        -0.6306
     17 C15        -3.9089   -0.2471   -5.8281 C.ar      1 <0>         0.6025
     18 N2         -3.8824   -1.2564   -4.9732 N.ar      1 <0>        -0.6112
     19 N3         -4.5177   -0.4198   -7.0589 N.pl3     1 <0>        -0.8234
     20 N4         -2.2131    2.3439   -4.0509 N.pl3     1 <0>        -0.8348
     21 C16        -2.0738    0.3017   -2.1053 C.3       1 <0>        -0.0488
     22 H2          1.1552    3.9502    1.0400 H         1 <0>         0.0706
     23 H3          2.0303    3.9707   -0.5098 H         1 <0>         0.0659
     24 H4          0.2506    3.9464   -0.4929 H         1 <0>         0.0653
     25 H5          3.3051    1.9634   -0.0216 H         1 <0>         0.1193
     26 H6          3.3385   -0.4984   -0.0339 H         1 <0>         0.1207
     27 H7          1.2229   -1.7586   -0.0188 H         1 <0>         0.1203
     28 H8         -0.9592    1.9056    0.0170 H         1 <0>         0.1199
     29 H9         -1.1443   -1.7285    0.5181 H         1 <0>         0.0765
     30 H10        -2.0550   -0.1993    0.5353 H         1 <0>         0.0744
     31 H11        -2.8458   -2.7785   -0.8058 H         1 <0>         0.0767
     32 H12        -3.8481   -1.3215   -1.0371 H         1 <0>         0.0695
     33 H13        -4.2771   -2.8150   -2.9002 H         1 <0>         0.0898
     34 H14        -2.5384   -3.0318   -3.1916 H         1 <0>         0.0890
     35 H15        -4.9186   -1.2733   -7.2862 H         1 <0>         0.4143
     36 H16        -4.5436    0.3128   -7.6942 H         1 <0>         0.4123
     37 H17        -1.7857    2.4787   -3.1906 H         1 <0>         0.4114
     38 H18        -2.2445    3.0679   -4.6956 H         1 <0>         0.4061
     39 H19        -2.7430    0.8761   -1.4646 H         1 <0>         0.0676
     40 H20        -1.1531    0.8640   -2.2607 H         1 <0>         0.0678
@<TRIPOS>BOND
     1    1    2 1
     2    1   22 1
     3    1   23 1
     4    1   24 1
     5    2    7 ar
     6    2    3 ar
     7    3    4 ar
     8    3   25 1
     9    4    5 ar
    10    4   26 1
    11    5    6 ar
    12    5   27 1
    13    6    7 ar
    14    6    8 1
    15    7   28 1
    16    8    9 1
    17    8   29 1
    18    8   30 1
    19    9   10 1
    20    9   21 1
    21    9   11 1
    22   11   12 1
    23   11   31 1
    24   11   32 1
    25   12   13 1
    26   12   33 1
    27   12   34 1
    28   13   18 ar
    29   13   14 ar
    30   14   15 ar
    31   14   21 1
    32   15   16 ar
    33   15   20 1
    34   16   17 ar
    35   17   18 ar
    36   17   19 1
    37   19   35 1
    38   19   36 1
    39   20   37 1
    40   20   38 1
    41   21   39 1
    42   21   40 1
@<TRIPOS>MOLECULE
ZINC03814893
   41    43     0     0     0
SMALL
USER_CHARGES

@<TRIPOS>ATOM
      1 C1          1.1503    3.5925    0.0104 C.3       1 <0>        -0.1195
      2 C2          1.1708    2.0856    0.0021 C.ar      1 <0>        -0.0815
      3 C3          2.3773    1.4107   -0.0150 C.ar      1 <0>        -0.1209
      4 C4          2.3960    0.0288   -0.0217 C.ar      1 <0>        -0.1089
      5 C5          1.2082   -0.6788   -0.0132 C.ar      1 <0>        -0.1220
      6 C6          0.0021   -0.0041    0.0020 C.ar      1 <0>        -0.0853
      7 C7         -0.0167    1.3783    0.0096 C.ar      1 <0>        -0.1262
      8 C8         -1.2926   -0.7753    0.0108 C.3       1 <0>        -0.0765
      9 C9         -1.7452   -1.0285   -1.4286 C.3       1 <0>        -0.0826
     10 H1         -0.9509   -1.5330   -1.9789 H         1 <0>         0.0865
     11 C10        -3.0084   -1.8972   -1.4263 C.3       1 <0>        -0.1168
     12 C11        -3.3028   -2.3278   -2.8626 C.3       1 <0>        -0.1066
     13 C12        -3.3076   -1.1345   -3.7792 C.ar      1 <0>         0.2359
     14 C13        -2.7380    0.0664   -3.4336 C.ar      1 <0>        -0.2163
     15 C14        -2.7787    1.1173   -4.3586 C.ar      1 <0>         0.5345
     16 N1         -3.3668    0.9249   -5.5334 N.ar      1 <0>        -0.5710
     17 C15        -3.9089   -0.2471   -5.8281 C.ar      1 <0>         0.6714
     18 N2         -4.5177   -0.4198   -7.0589 N.pl3     1 <0>        -0.7933
     19 N3         -2.2131    2.3439   -4.0509 N.pl3     1 <0>        -0.7756
     20 C16        -2.0738    0.3017   -2.1053 C.3       1 <0>        -0.0712
     21 H2          1.1552    3.9502    1.0400 H         1 <0>         0.0746
     22 H3          2.0303    3.9707   -0.5098 H         1 <0>         0.0687
     23 H4          0.2506    3.9464   -0.4929 H         1 <0>         0.0643
     24 H5          3.3051    1.9634   -0.0216 H         1 <0>         0.1233
     25 H6          3.3385   -0.4984   -0.0339 H         1 <0>         0.1243
     26 H7          1.2229   -1.7586   -0.0188 H         1 <0>         0.1217
     27 H8         -0.9592    1.9056    0.0170 H         1 <0>         0.1194
     28 H9         -1.1443   -1.7285    0.5181 H         1 <0>         0.0841
     29 H10        -2.0550   -0.1993    0.5353 H         1 <0>         0.0795
     30 H11        -2.8458   -2.7785   -0.8058 H         1 <0>         0.0970
     31 H12        -3.8481   -1.3215   -1.0371 H         1 <0>         0.0822
     32 H13        -4.2771   -2.8150   -2.9002 H         1 <0>         0.1098
     33 H14        -2.5384   -3.0318   -3.1916 H         1 <0>         0.1183
     34 H15        -4.9186   -1.2733   -7.2862 H         1 <0>         0.4298
     35 H16        -4.5436    0.3128   -7.6942 H         1 <0>         0.4423
     36 H17        -1.7857    2.4787   -3.1906 H         1 <0>         0.4320
     37 H18        -2.2445    3.0679   -4.6956 H         1 <0>         0.4286
     38 H19        -2.7430    0.8761   -1.4646 H         1 <0>         0.0969
     39 H20        -1.1531    0.8640   -2.2607 H         1 <0>         0.0926
     40 N4         -3.9146   -1.3232   -4.9929 N.ar      1 <0>        -0.6013
     41 H21        -4.3243   -2.2080   -5.2149 H         1 <0>         0.4578
@<TRIPOS>BOND
     1    1    2 1
     2    1   21 1
     3    1   22 1
     4    1   23 1
     5    2    7 ar
     6    2    3 ar
     7    3    4 ar
     8    3   24 1
     9    4    5 ar
    10    4   25 1
    11    5    6 ar
    12    5   26 1
    13    6    7 ar
    14    6    8 1
    15    7   27 1
    16    8    9 1
    17    8   28 1
    18    8   29 1
    19    9   10 1
    20    9   20 1
    21    9   11 1
    22   11   12 1
    23   11   30 1
    24   11   31 1
    25   12   13 1
    26   12   32 1
    27   12   33 1
    28   13   14 ar
    29   13   40 ar
    30   14   15 ar
    31   14   20 1
    32   15   16 ar
    33   15   19 1
    34   16   17 ar
    35   17   18 1
    36   17   40 ar
    37   18   34 1
    38   18   35 1
    39   19   36 1
    40   19   37 1
    41   20   38 1
    42   20   39 1
    43   40   41 1
@<TRIPOS>MOLECULE
ZINC03814895
   41    43     0     0     0
SMALL
USER_CHARGES

@<TRIPOS>ATOM
      1 C1         -0.0127    1.0858    0.0080 C.3       1 <0>         0.0270
      2 O1         -0.6816    1.5467    1.1837 O.3       1 <0>        -0.3185
      3 C2         -1.9749    1.1630    1.3482 C.ar      1 <0>         0.1279
      4 C3         -2.5894    0.3641    0.3946 C.ar      1 <0>        -0.2140
      5 C4         -3.9023   -0.0288    0.5668 C.ar      1 <0>        -0.0767
      6 C5         -4.6076    0.3820    1.6831 C.ar      1 <0>        -0.1544
      7 C6         -3.9993    1.1827    2.6318 C.ar      1 <0>        -0.0388
      8 C7         -2.6845    1.5741    2.4669 C.ar      1 <0>        -0.1518
      9 C8         -4.7708    1.6286    3.8472 C.3       1 <0>        -0.0775
     10 C9         -5.4711    2.9556    3.5482 C.3       1 <0>        -0.0789
     11 H1         -6.0955    2.8485    2.6612 H         1 <0>         0.0777
     12 C10        -6.3363    3.3631    4.7465 C.3       1 <0>        -0.1129
     13 C11        -7.1991    4.5560    4.3376 C.3       1 <0>        -0.0704
     14 C12        -6.3487    5.6346    3.7230 C.ar      1 <0>         0.2468
     15 C13        -5.0823    5.3974    3.2475 C.ar      1 <0>        -0.2977
     16 C14        -4.3709    6.4615    2.6786 C.ar      1 <0>         0.4807
     17 N1         -4.9359    7.6616    2.6198 N.ar      1 <0>        -0.6307
     18 C15        -6.1582    7.8514    3.0933 C.ar      1 <0>         0.6024
     19 N2         -6.8522    6.8632    3.6338 N.ar      1 <0>        -0.6115
     20 N3         -6.7224    9.1130    3.0216 N.pl3     1 <0>        -0.8236
     21 N4         -3.0921    6.2641    2.1837 N.pl3     1 <0>        -0.8345
     22 C16        -4.4266    4.0459    3.3124 C.3       1 <0>        -0.0501
     23 H2          0.0021   -0.0041    0.0020 H         1 <0>         0.0557
     24 H3          1.0099    1.4631    0.0003 H         1 <0>         0.1007
     25 H4         -0.5399    1.4469   -0.8751 H         1 <0>         0.0554
     26 H5         -2.0405    0.0467   -0.4796 H         1 <0>         0.1260
     27 H6         -4.3799   -0.6541   -0.1731 H         1 <0>         0.1241
     28 H7         -5.6353    0.0771    1.8139 H         1 <0>         0.1236
     29 H8         -2.2097    2.1994    3.2085 H         1 <0>         0.1293
     30 H9         -5.5151    0.8742    4.1020 H         1 <0>         0.0800
     31 H10        -4.0854    1.7601    4.6845 H         1 <0>         0.0772
     32 H11        -6.9767    2.5300    5.0360 H         1 <0>         0.0771
     33 H12        -5.6954    3.6439    5.5823 H         1 <0>         0.0700
     34 H13        -7.7048    4.9535    5.2176 H         1 <0>         0.0900
     35 H14        -7.9433    4.2269    3.6123 H         1 <0>         0.0890
     36 H15        -7.6167    9.2647    3.3652 H         1 <0>         0.4142
     37 H16        -6.2235    9.8457    2.6276 H         1 <0>         0.4121
     38 H17        -2.6844    5.3852    2.2300 H         1 <0>         0.4123
     39 H18        -2.6045    7.0049    1.7908 H         1 <0>         0.4059
     40 H19        -3.7038    4.0349    4.1282 H         1 <0>         0.0688
     41 H20        -3.9109    3.8534    2.3715 H         1 <0>         0.0681
@<TRIPOS>BOND
     1    1    2 1
     2    1   23 1
     3    1   24 1
     4    1   25 1
     5    2    3 1
     6    3    8 ar
     7    3    4 ar
     8    4    5 ar
     9    4   26 1
    10    5    6 ar
    11    5   27 1
    12    6    7 ar
    13    6   28 1
    14    7    8 ar
    15    7    9 1
    16    8   29 1
    17    9   10 1
    18    9   30 1
    19    9   31 1
    20   10   11 1
    21   10   22 1
    22   10   12 1
    23   12   13 1
    24   12   32 1
    25   12   33 1
    26   13   14 1
    27   13   34 1
    28   13   35 1
    29   14   19 ar
    30   14   15 ar
    31   15   16 ar
    32   15   22 1
    33   16   17 ar
    34   16   21 1
    35   17   18 ar
    36   18   19 ar
    37   18   20 1
    38   20   36 1
    39   20   37 1
    40   21   38 1
    41   21   39 1
    42   22   40 1
    43   22   41 1
@<TRIPOS>MOLECULE
ZINC03814895
   42    44     0     0     0
SMALL
USER_CHARGES

@<TRIPOS>ATOM
      1 C1         -0.0127    1.0858    0.0080 C.3       1 <0>         0.0250
      2 O1         -0.6816    1.5467    1.1837 O.3       1 <0>        -0.3188
      3 C2         -1.9749    1.1630    1.3482 C.ar      1 <0>         0.1305
      4 C3         -2.5894    0.3641    0.3946 C.ar      1 <0>        -0.2089
      5 C4         -3.9023   -0.0288    0.5668 C.ar      1 <0>        -0.0724
      6 C5         -4.6076    0.3820    1.6831 C.ar      1 <0>        -0.1537
      7 C6         -3.9993    1.1827    2.6318 C.ar      1 <0>        -0.0499
      8 C7         -2.6845    1.5741    2.4669 C.ar      1 <0>        -0.1588
      9 C8         -4.7708    1.6286    3.8472 C.3       1 <0>        -0.0769
     10 C9         -5.4711    2.9556    3.5482 C.3       1 <0>        -0.0825
     11 H1         -6.0955    2.8485    2.6612 H         1 <0>         0.0875
     12 C10        -6.3363    3.3631    4.7465 C.3       1 <0>        -0.1168
     13 C11        -7.1991    4.5560    4.3376 C.3       1 <0>        -0.1063
     14 C12        -6.3487    5.6346    3.7230 C.ar      1 <0>         0.2350
     15 C13        -5.0823    5.3974    3.2475 C.ar      1 <0>        -0.2155
     16 C14        -4.3709    6.4615    2.6786 C.ar      1 <0>         0.5343
     17 N1         -4.9359    7.6616    2.6198 N.ar      1 <0>        -0.5713
     18 C15        -6.1582    7.8514    3.0933 C.ar      1 <0>         0.6714
     19 N2         -6.7224    9.1130    3.0216 N.pl3     1 <0>        -0.7937
     20 N3         -3.0921    6.2641    2.1837 N.pl3     1 <0>        -0.7748
     21 C16        -4.4266    4.0459    3.3124 C.3       1 <0>        -0.0725
     22 H2          0.0021   -0.0041    0.0020 H         1 <0>         0.0591
     23 H3          1.0099    1.4631    0.0003 H         1 <0>         0.1041
     24 H4         -0.5399    1.4469   -0.8751 H         1 <0>         0.0569
     25 H5         -2.0405    0.0467   -0.4796 H         1 <0>         0.1296
     26 H6         -4.3799   -0.6541   -0.1731 H         1 <0>         0.1275
     27 H7         -5.6353    0.0771    1.8139 H         1 <0>         0.1248
     28 H8         -2.2097    2.1994    3.2085 H         1 <0>         0.1286
     29 H9         -5.5151    0.8742    4.1020 H         1 <0>         0.0874
     30 H10        -4.0854    1.7601    4.6845 H         1 <0>         0.0823
     31 H11        -6.9767    2.5300    5.0360 H         1 <0>         0.0974
     32 H12        -5.6954    3.6439    5.5823 H         1 <0>         0.0826
     33 H13        -7.7048    4.9535    5.2176 H         1 <0>         0.1100
     34 H14        -7.9433    4.2269    3.6123 H         1 <0>         0.1183
     35 H15        -7.6167    9.2647    3.3652 H         1 <0>         0.4297
     36 H16        -6.2235    9.8457    2.6276 H         1 <0>         0.4421
     37 H17        -2.6844    5.3852    2.2300 H         1 <0>         0.4330
     38 H18        -2.6045    7.0049    1.7908 H         1 <0>         0.4285
     39 H19        -3.7038    4.0349    4.1282 H         1 <0>         0.0980
     40 H20        -3.9109    3.8534    2.3715 H         1 <0>         0.0929
     41 N4         -6.9228    6.8771    3.6605 N.ar      1 <0>        -0.6015
     42 H21        -7.8454    7.0202    4.0186 H         1 <0>         0.4577
@<TRIPOS>BOND
     1    1    2 1
     2    1   22 1
     3    1   23 1
     4    1   24 1
     5    2    3 1
     6    3    8 ar
     7    3    4 ar
     8    4    5 ar
     9    4   25 1
    10    5    6 ar
    11    5   26 1
    12    6    7 ar
    13    6   27 1
    14    7    8 ar
    15    7    9 1
    16    8   28 1
    17    9   10 1
    18    9   29 1
    19    9   30 1
    20   10   11 1
    21   10   21 1
    22   10   12 1
    23   12   13 1
    24   12   31 1
    25   12   32 1
    26   13   14 1
    27   13   33 1
    28   13   34 1
    29   14   15 ar
    30   14   41 ar
    31   15   16 ar
    32   15   21 1
    33   16   17 ar
    34   16   20 1
    35   17   18 ar
    36   18   19 1
    37   18   41 ar
    38   19   35 1
    39   19   36 1
    40   20   37 1
    41   20   38 1
    42   21   39 1
    43   21   40 1
    44   41   42 1
@<TRIPOS>MOLECULE
ZINC03814896
   41    43     0     0     0
SMALL
USER_CHARGES

@<TRIPOS>ATOM
      1 C1          2.0055   -9.1370   -4.9118 C.3       1 <0>         0.0270
      2 O1          2.4838   -8.7146   -3.6332 O.3       1 <0>        -0.3190
      3 C2          1.5827   -8.1323   -2.7990 C.ar      1 <0>         0.1218
      4 C3          1.9787   -7.6983   -1.5422 C.ar      1 <0>        -0.1505
      5 C4          1.0609   -7.1063   -0.6963 C.ar      1 <0>        -0.0790
      6 C5         -0.2514   -6.9460   -1.1013 C.ar      1 <0>        -0.1156
      7 C6         -0.6498   -7.3828   -2.3512 C.ar      1 <0>        -0.0764
      8 C7          0.2654   -7.9703   -3.2030 C.ar      1 <0>        -0.2053
      9 C8         -1.2505   -6.2999   -0.1764 C.3       1 <0>        -0.0718
     10 C9         -1.2611   -4.7883   -0.4130 C.3       1 <0>        -0.0798
     11 H1         -1.4437   -4.5839   -1.4680 H         1 <0>         0.0759
     12 C10        -2.3625   -4.1417    0.4352 C.3       1 <0>        -0.1131
     13 C11        -2.5109   -2.6828    0.0060 C.3       1 <0>        -0.0707
     14 C12        -1.1720   -1.9961    0.0037 C.ar      1 <0>         0.2471
     15 C13         0.0144   -2.6879   -0.0065 C.ar      1 <0>        -0.2980
     16 C14         1.2122   -1.9620   -0.0171 C.ar      1 <0>         0.4805
     17 N1          1.1665   -0.6350   -0.0125 N.ar      1 <0>        -0.6307
     18 C15         0.0021   -0.0041    0.0020 C.ar      1 <0>         0.6024
     19 N2         -1.1435   -0.6657    0.0149 N.ar      1 <0>        -0.6114
     20 N3         -0.0167    1.3797    0.0096 N.pl3     1 <0>        -0.8235
     21 N4          2.4307   -2.6210   -0.0318 N.pl3     1 <0>        -0.8347
     22 C16         0.0827   -4.1899    0.0009 C.3       1 <0>        -0.0491
     23 H2          1.2122   -9.8724   -4.7782 H         1 <0>         0.0557
     24 H3          1.6157   -8.2769   -5.4562 H         1 <0>         0.0554
     25 H4          2.8239   -9.5838   -5.4763 H         1 <0>         0.1007
     26 H5          3.0036   -7.8230   -1.2255 H         1 <0>         0.1296
     27 H6          1.3687   -6.7680    0.2821 H         1 <0>         0.1281
     28 H7         -1.6765   -7.2608   -2.6634 H         1 <0>         0.1241
     29 H8         -0.0453   -8.3073   -4.1809 H         1 <0>         0.1267
     30 H9         -0.9731   -6.5038    0.8578 H         1 <0>         0.0742
     31 H10        -2.2429   -6.7054   -0.3732 H         1 <0>         0.0753
     32 H11        -2.0875   -4.1873    1.4890 H         1 <0>         0.0695
     33 H12        -3.3037   -4.6679    0.2762 H         1 <0>         0.0763
     34 H13        -3.1780   -2.1695    0.6986 H         1 <0>         0.0895
     35 H14        -2.9377   -2.6437   -0.9962 H         1 <0>         0.0886
     36 H15         0.8167    1.8761    0.0043 H         1 <0>         0.4122
     37 H16        -0.8632    1.8533    0.0162 H         1 <0>         0.4142
     38 H17         3.2569   -2.1128   -0.0388 H         1 <0>         0.4062
     39 H18         2.4576   -3.5906   -0.0351 H         1 <0>         0.4118
     40 H19         0.8536   -4.5189   -0.6959 H         1 <0>         0.0677
     41 H20         0.3369   -4.5340    1.0034 H         1 <0>         0.0681
@<TRIPOS>BOND
     1    1    2 1
     2    1   23 1
     3    1   24 1
     4    1   25 1
     5    2    3 1
     6    3    8 ar
     7    3    4 ar
     8    4    5 ar
     9    4   26 1
    10    5    6 ar
    11    5   27 1
    12    6    7 ar
    13    6    9 1
    14    7    8 ar
    15    7   28 1
    16    8   29 1
    17    9   10 1
    18    9   30 1
    19    9   31 1
    20   10   11 1
    21   10   22 1
    22   10   12 1
    23   12   13 1
    24   12   32 1
    25   12   33 1
    26   13   14 1
    27   13   34 1
    28   13   35 1
    29   14   19 ar
    30   14   15 ar
    31   15   16 ar
    32   15   22 1
    33   16   17 ar
    34   16   21 1
    35   17   18 ar
    36   18   19 ar
    37   18   20 1
    38   20   36 1
    39   20   37 1
    40   21   38 1
    41   21   39 1
    42   22   40 1
    43   22   41 1
@<TRIPOS>MOLECULE
ZINC03814896
   42    44     0     0     0
SMALL
USER_CHARGES

@<TRIPOS>ATOM
      1 C1          2.0055   -9.1370   -4.9118 C.3       1 <0>         0.0253
      2 O1          2.4838   -8.7146   -3.6332 O.3       1 <0>        -0.3165
      3 C2          1.5827   -8.1323   -2.7990 C.ar      1 <0>         0.1305
      4 C3          1.9787   -7.6983   -1.5422 C.ar      1 <0>        -0.1516
      5 C4          1.0609   -7.1063   -0.6963 C.ar      1 <0>        -0.0832
      6 C5         -0.2514   -6.9460   -1.1013 C.ar      1 <0>        -0.1298
      7 C6         -0.6498   -7.3828   -2.3512 C.ar      1 <0>        -0.0730
      8 C7          0.2654   -7.9703   -3.2030 C.ar      1 <0>        -0.2045
      9 C8         -1.2505   -6.2999   -0.1764 C.3       1 <0>        -0.0707
     10 C9         -1.2611   -4.7883   -0.4130 C.3       1 <0>        -0.0834
     11 H1         -1.4437   -4.5839   -1.4680 H         1 <0>         0.0855
     12 C10        -2.3625   -4.1417    0.4352 C.3       1 <0>        -0.1171
     13 C11        -2.5109   -2.6828    0.0060 C.3       1 <0>        -0.1065
     14 C12        -1.1720   -1.9961    0.0037 C.ar      1 <0>         0.2355
     15 C13         0.0144   -2.6879   -0.0065 C.ar      1 <0>        -0.2157
     16 C14         1.2122   -1.9620   -0.0171 C.ar      1 <0>         0.5342
     17 N1          1.1665   -0.6350   -0.0125 N.ar      1 <0>        -0.5712
     18 C15         0.0021   -0.0041    0.0020 C.ar      1 <0>         0.6714
     19 N2         -0.0167    1.3797    0.0096 N.pl3     1 <0>        -0.7936
     20 N3          2.4307   -2.6210   -0.0318 N.pl3     1 <0>        -0.7752
     21 C16         0.0827   -4.1899    0.0009 C.3       1 <0>        -0.0716
     22 H2          1.2122   -9.8724   -4.7782 H         1 <0>         0.0584
     23 H3          1.6157   -8.2769   -5.4562 H         1 <0>         0.0565
     24 H4          2.8239   -9.5838   -5.4763 H         1 <0>         0.1047
     25 H5          3.0036   -7.8230   -1.2255 H         1 <0>         0.1321
     26 H6          1.3687   -6.7680    0.2821 H         1 <0>         0.1273
     27 H7         -1.6765   -7.2608   -2.6634 H         1 <0>         0.1251
     28 H8         -0.0453   -8.3073   -4.1809 H         1 <0>         0.1300
     29 H9         -0.9731   -6.5038    0.8578 H         1 <0>         0.0790
     30 H10        -2.2429   -6.7054   -0.3732 H         1 <0>         0.0826
     31 H11        -2.0875   -4.1873    1.4890 H         1 <0>         0.0821
     32 H12        -3.3037   -4.6679    0.2762 H         1 <0>         0.0966
     33 H13        -3.1780   -2.1695    0.6986 H         1 <0>         0.1094
     34 H14        -2.9377   -2.6437   -0.9962 H         1 <0>         0.1179
     35 H15         0.8167    1.8761    0.0043 H         1 <0>         0.4422
     36 H16        -0.8632    1.8533    0.0162 H         1 <0>         0.4297
     37 H17         3.2569   -2.1128   -0.0388 H         1 <0>         0.4287
     38 H18         2.4576   -3.5906   -0.0351 H         1 <0>         0.4324
     39 H19         0.8536   -4.5189   -0.6959 H         1 <0>         0.0926
     40 H20         0.3369   -4.5340    1.0034 H         1 <0>         0.0973
     41 N4         -1.2094   -0.6266    0.0163 N.ar      1 <0>        -0.6014
     42 H21        -2.0886   -0.1506    0.0348 H         1 <0>         0.4577
@<TRIPOS>BOND
     1    1    2 1
     2    1   22 1
     3    1   23 1
     4    1   24 1
     5    2    3 1
     6    3    8 ar
     7    3    4 ar
     8    4    5 ar
     9    4   25 1
    10    5    6 ar
    11    5   26 1
    12    6    7 ar
    13    6    9 1
    14    7    8 ar
    15    7   27 1
    16    8   28 1
    17    9   10 1
    18    9   29 1
    19    9   30 1
    20   10   11 1
    21   10   21 1
    22   10   12 1
    23   12   13 1
    24   12   31 1
    25   12   32 1
    26   13   14 1
    27   13   33 1
    28   13   34 1
    29   14   15 ar
    30   14   41 ar
    31   15   16 ar
    32   15   21 1
    33   16   17 ar
    34   16   20 1
    35   17   18 ar
    36   18   19 1
    37   18   41 ar
    38   19   35 1
    39   19   36 1
    40   20   37 1
    41   20   38 1
    42   21   39 1
    43   21   40 1
    44   41   42 1
@<TRIPOS>MOLECULE
ZINC03814897
   40    42     0     0     0
SMALL
USER_CHARGES

@<TRIPOS>ATOM
      1 C1          2.3960    0.0288   -0.0217 C.ar      1 <0>        -0.1154
      2 C2          1.2082   -0.6788   -0.0132 C.ar      1 <0>        -0.0842
      3 C3          0.0021   -0.0041    0.0020 C.ar      1 <0>        -0.0781
      4 C4         -0.0167    1.3783    0.0096 C.ar      1 <0>        -0.0715
      5 C5          1.1708    2.0856    0.0021 C.ar      1 <0>        -0.1802
      6 C6          2.3773    1.4107   -0.0150 C.ar      1 <0>        -0.0761
      7 C7          1.1503    3.5925    0.0104 C.3       1 <0>         0.5073
      8 F1          1.1566    4.0516    1.3319 F         1 <0>        -0.1756
      9 F2          2.2798    4.0779   -0.6573 F         1 <0>        -0.1765
     10 F3         -0.0044    4.0468   -0.6356 F         1 <0>        -0.1782
     11 C8         -1.2926   -0.7753    0.0108 C.3       1 <0>        -0.0781
     12 C9         -1.7452   -1.0285   -1.4286 C.3       1 <0>        -0.0804
     13 H1         -0.9509   -1.5330   -1.9789 H         1 <0>         0.0785
     14 C10        -3.0084   -1.8972   -1.4263 C.3       1 <0>        -0.1124
     15 C11        -3.3028   -2.3278   -2.8626 C.3       1 <0>        -0.0707
     16 C12        -3.3076   -1.1345   -3.7792 C.ar      1 <0>         0.2478
     17 C13        -2.7380    0.0664   -3.4336 C.ar      1 <0>        -0.2999
     18 C14        -2.7787    1.1173   -4.3586 C.ar      1 <0>         0.4817
     19 N1         -3.3668    0.9249   -5.5334 N.ar      1 <0>        -0.6302
     20 C15        -3.9089   -0.2471   -5.8281 C.ar      1 <0>         0.6035
     21 N2         -3.8824   -1.2564   -4.9732 N.ar      1 <0>        -0.6115
     22 N3         -4.5177   -0.4198   -7.0589 N.pl3     1 <0>        -0.8230
     23 N4         -2.2131    2.3439   -4.0509 N.pl3     1 <0>        -0.8342
     24 C16        -2.0738    0.3017   -2.1053 C.3       1 <0>        -0.0511
     25 H2          3.3385   -0.4984   -0.0339 H         1 <0>         0.1354
     26 H3          1.2229   -1.7586   -0.0188 H         1 <0>         0.1330
     27 H4         -0.9592    1.9056    0.0170 H         1 <0>         0.1348
     28 H5          3.3051    1.9634   -0.0216 H         1 <0>         0.1349
     29 H6         -1.1443   -1.7285    0.5181 H         1 <0>         0.0826
     30 H7         -2.0550   -0.1993    0.5353 H         1 <0>         0.0794
     31 H8         -2.8458   -2.7785   -0.8058 H         1 <0>         0.0776
     32 H9         -3.8481   -1.3215   -1.0371 H         1 <0>         0.0706
     33 H10        -4.2771   -2.8150   -2.9002 H         1 <0>         0.0904
     34 H11        -2.5384   -3.0318   -3.1916 H         1 <0>         0.0893
     35 H12        -4.9186   -1.2733   -7.2862 H         1 <0>         0.4144
     36 H13        -4.5436    0.3128   -7.6942 H         1 <0>         0.4125
     37 H14        -1.7857    2.4787   -3.1906 H         1 <0>         0.4115
     38 H15        -2.2445    3.0679   -4.6956 H         1 <0>         0.4067
     39 H16        -2.7430    0.8761   -1.4646 H         1 <0>         0.0693
     40 H17        -1.1531    0.8640   -2.2607 H         1 <0>         0.0658
@<TRIPOS>BOND
     1    1    6 ar
     2    1    2 ar
     3    1   25 1
     4    2    3 ar
     5    2   26 1
     6    3    4 ar
     7    3   11 1
     8    4    5 ar
     9    4   27 1
    10    5    6 ar
    11    5    7 1
    12    6   28 1
    13    7    8 1
    14    7    9 1
    15    7   10 1
    16   11   12 1
    17   11   29 1
    18   11   30 1
    19   12   13 1
    20   12   24 1
    21   12   14 1
    22   14   15 1
    23   14   31 1
    24   14   32 1
    25   15   16 1
    26   15   33 1
    27   15   34 1
    28   16   21 ar
    29   16   17 ar
    30   17   18 ar
    31   17   24 1
    32   18   19 ar
    33   18   23 1
    34   19   20 ar
    35   20   21 ar
    36   20   22 1
    37   22   35 1
    38   22   36 1
    39   23   37 1
    40   23   38 1
    41   24   39 1
    42   24   40 1
@<TRIPOS>MOLECULE
ZINC03814897
   41    43     0     0     0
SMALL
USER_CHARGES

@<TRIPOS>ATOM
      1 C1          2.3960    0.0288   -0.0217 C.ar      1 <0>        -0.1116
      2 C2          1.2082   -0.6788   -0.0132 C.ar      1 <0>        -0.0823
      3 C3          0.0021   -0.0041    0.0020 C.ar      1 <0>        -0.0896
      4 C4         -0.0167    1.3783    0.0096 C.ar      1 <0>        -0.0771
      5 C5          1.1708    2.0856    0.0021 C.ar      1 <0>        -0.1782
      6 C6          2.3773    1.4107   -0.0150 C.ar      1 <0>        -0.0698
      7 C7          1.1503    3.5925    0.0104 C.3       1 <0>         0.5069
      8 F1          1.1566    4.0516    1.3319 F         1 <0>        -0.1716
      9 F2          2.2798    4.0779   -0.6573 F         1 <0>        -0.1739
     10 F3         -0.0044    4.0468   -0.6356 F         1 <0>        -0.1821
     11 C8         -1.2926   -0.7753    0.0108 C.3       1 <0>        -0.0774
     12 C9         -1.7452   -1.0285   -1.4286 C.3       1 <0>        -0.0840
     13 H1         -0.9509   -1.5330   -1.9789 H         1 <0>         0.0883
     14 C10        -3.0084   -1.8972   -1.4263 C.3       1 <0>        -0.1164
     15 C11        -3.3028   -2.3278   -2.8626 C.3       1 <0>        -0.1066
     16 C12        -3.3076   -1.1345   -3.7792 C.ar      1 <0>         0.2365
     17 C13        -2.7380    0.0664   -3.4336 C.ar      1 <0>        -0.2172
     18 C14        -2.7787    1.1173   -4.3586 C.ar      1 <0>         0.5346
     19 N1         -3.3668    0.9249   -5.5334 N.ar      1 <0>        -0.5705
     20 C15        -3.9089   -0.2471   -5.8281 C.ar      1 <0>         0.6718
     21 N2         -4.5177   -0.4198   -7.0589 N.pl3     1 <0>        -0.7929
     22 N3         -2.2131    2.3439   -4.0509 N.pl3     1 <0>        -0.7746
     23 C16        -2.0738    0.3017   -2.1053 C.3       1 <0>        -0.0739
     24 H2          3.3385   -0.4984   -0.0339 H         1 <0>         0.1390
     25 H3          1.2229   -1.7586   -0.0188 H         1 <0>         0.1344
     26 H4         -0.9592    1.9056    0.0170 H         1 <0>         0.1344
     27 H5          3.3051    1.9634   -0.0216 H         1 <0>         0.1388
     28 H6         -1.1443   -1.7285    0.5181 H         1 <0>         0.0902
     29 H7         -2.0550   -0.1993    0.5353 H         1 <0>         0.0845
     30 H8         -2.8458   -2.7785   -0.8058 H         1 <0>         0.0981
     31 H9         -3.8481   -1.3215   -1.0371 H         1 <0>         0.0833
     32 H10        -4.2771   -2.8150   -2.9002 H         1 <0>         0.1105
     33 H11        -2.5384   -3.0318   -3.1916 H         1 <0>         0.1187
     34 H12        -4.9186   -1.2733   -7.2862 H         1 <0>         0.4299
     35 H13        -4.5436    0.3128   -7.6942 H         1 <0>         0.4425
     36 H14        -1.7857    2.4787   -3.1906 H         1 <0>         0.4321
     37 H15        -2.2445    3.0679   -4.6956 H         1 <0>         0.4293
     38 H16        -2.7430    0.8761   -1.4646 H         1 <0>         0.0986
     39 H17        -1.1531    0.8640   -2.2607 H         1 <0>         0.0906
     40 N4         -3.9146   -1.3232   -4.9929 N.ar      1 <0>        -0.6016
     41 H18        -4.3243   -2.2080   -5.2149 H         1 <0>         0.4580
@<TRIPOS>BOND
     1    1    6 ar
     2    1    2 ar
     3    1   24 1
     4    2    3 ar
     5    2   25 1
     6    3    4 ar
     7    3   11 1
     8    4    5 ar
     9    4   26 1
    10    5    6 ar
    11    5    7 1
    12    6   27 1
    13    7    8 1
    14    7    9 1
    15    7   10 1
    16   11   12 1
    17   11   28 1
    18   11   29 1
    19   12   13 1
    20   12   23 1
    21   12   14 1
    22   14   15 1
    23   14   30 1
    24   14   31 1
    25   15   16 1
    26   15   32 1
    27   15   33 1
    28   16   17 ar
    29   16   40 ar
    30   17   18 ar
    31   17   23 1
    32   18   19 ar
    33   18   22 1
    34   19   20 ar
    35   20   21 1
    36   20   40 ar
    37   21   34 1
    38   21   35 1
    39   22   36 1
    40   22   37 1
    41   23   38 1
    42   23   39 1
    43   40   41 1
@<TRIPOS>MOLECULE
ZINC03814898
   41    43     0     0     0
SMALL
USER_CHARGES

@<TRIPOS>ATOM
      1 C1          1.5296    0.3364    3.6391 C.ar      1 <0>        -0.0739
      2 C2          0.9316    0.7491    4.8157 C.ar      1 <0>        -0.1324
      3 C3         -0.2075    1.5314    4.7775 C.ar      1 <0>        -0.0413
      4 C4         -0.7511    1.9034    3.5629 C.ar      1 <0>        -0.1245
      5 C5         -0.1530    1.4911    2.3813 C.ar      1 <0>         0.1056
      6 C6          0.9870    0.7011    2.4224 C.ar      1 <0>        -0.1957
      7 O1         -0.6858    1.8556    1.1854 O.3       1 <0>        -0.3113
      8 C7         -0.0169    1.3948    0.0097 C.3       1 <0>         0.6039
      9 F1          0.0021   -0.0041    0.0020 F         1 <0>        -0.1646
     10 F2          1.2956    1.8790   -0.0002 F         1 <0>        -0.1643
     11 F3         -0.6935    1.8582   -1.1237 F         1 <0>        -0.1303
     12 C8         -0.8566    1.9794    6.0617 C.3       1 <0>        -0.0779
     13 C9         -1.8933    0.9423    6.4979 C.3       1 <0>        -0.0801
     14 H1         -1.4211   -0.0370    6.5767 H         1 <0>         0.0791
     15 C10        -2.4852    1.3442    7.8539 C.3       1 <0>        -0.1126
     16 C11        -3.3354    0.1859    8.3738 C.3       1 <0>        -0.0707
     17 C12        -4.3105   -0.2654    7.3204 C.ar      1 <0>         0.2476
     18 C13        -4.1630    0.0498    5.9918 C.ar      1 <0>        -0.2993
     19 C14        -5.1142   -0.4275    5.0812 C.ar      1 <0>         0.4812
     20 N1         -6.1267   -1.1622    5.5262 N.ar      1 <0>        -0.6305
     21 C15        -6.2367   -1.4412    6.8163 C.ar      1 <0>         0.6032
     22 N2         -5.3512   -1.0045    7.6968 N.ar      1 <0>        -0.6112
     23 N3         -7.3033   -2.2071    7.2535 N.pl3     1 <0>        -0.8232
     24 N4         -5.0004   -0.1356    3.7318 N.pl3     1 <0>        -0.8346
     25 C16        -3.0257    0.8855    5.4733 C.3       1 <0>        -0.0511
     26 H2          2.4192   -0.2751    3.6715 H         1 <0>         0.1334
     27 H3          1.3550    0.4594    5.7661 H         1 <0>         0.1316
     28 H4         -1.6409    2.5149    3.5336 H         1 <0>         0.1379
     29 H5          1.4518    0.3748    1.5037 H         1 <0>         0.1323
     30 H6         -0.0967    2.0817    6.8364 H         1 <0>         0.0838
     31 H7         -1.3473    2.9400    5.9049 H         1 <0>         0.0802
     32 H8         -1.6796    1.5521    8.5581 H         1 <0>         0.0778
     33 H9         -3.1081    2.2306    7.7334 H         1 <0>         0.0705
     34 H10        -3.8845    0.5103    9.2578 H         1 <0>         0.0905
     35 H11        -2.6825   -0.6452    8.6402 H         1 <0>         0.0894
     36 H12        -7.3949   -2.4179    8.1959 H         1 <0>         0.4144
     37 H13        -7.9591   -2.5332    6.6176 H         1 <0>         0.4124
     38 H14        -4.2589    0.4022    3.4127 H         1 <0>         0.4115
     39 H15        -5.6623   -0.4690    3.1059 H         1 <0>         0.4065
     40 H16        -3.3826    1.8960    5.2744 H         1 <0>         0.0695
     41 H17        -2.6526    0.4466    4.5480 H         1 <0>         0.0668
@<TRIPOS>BOND
     1    1    6 ar
     2    1    2 ar
     3    1   26 1
     4    2    3 ar
     5    2   27 1
     6    3    4 ar
     7    3   12 1
     8    4    5 ar
     9    4   28 1
    10    5    6 ar
    11    5    7 1
    12    6   29 1
    13    7    8 1
    14    8    9 1
    15    8   10 1
    16    8   11 1
    17   12   13 1
    18   12   30 1
    19   12   31 1
    20   13   14 1
    21   13   25 1
    22   13   15 1
    23   15   16 1
    24   15   32 1
    25   15   33 1
    26   16   17 1
    27   16   34 1
    28   16   35 1
    29   17   22 ar
    30   17   18 ar
    31   18   19 ar
    32   18   25 1
    33   19   20 ar
    34   19   24 1
    35   20   21 ar
    36   21   22 ar
    37   21   23 1
    38   23   36 1
    39   23   37 1
    40   24   38 1
    41   24   39 1
    42   25   40 1
    43   25   41 1
@<TRIPOS>MOLECULE
ZINC03814898
   42    44     0     0     0
SMALL
USER_CHARGES

@<TRIPOS>ATOM
      1 C1          1.5296    0.3364    3.6391 C.ar      1 <0>        -0.0696
      2 C2          0.9316    0.7491    4.8157 C.ar      1 <0>        -0.1312
      3 C3         -0.2075    1.5314    4.7775 C.ar      1 <0>        -0.0527
      4 C4         -0.7511    1.9034    3.5629 C.ar      1 <0>        -0.1312
      5 C5         -0.1530    1.4911    2.3813 C.ar      1 <0>         0.1087
      6 C6          0.9870    0.7011    2.4224 C.ar      1 <0>        -0.1909
      7 O1         -0.6858    1.8556    1.1854 O.3       1 <0>        -0.3131
      8 C7         -0.0169    1.3948    0.0097 C.3       1 <0>         0.6045
      9 F1          0.0021   -0.0041    0.0020 F         1 <0>        -0.1644
     10 F2          1.2956    1.8790   -0.0002 F         1 <0>        -0.1611
     11 F3         -0.6935    1.8582   -1.1237 F         1 <0>        -0.1272
     12 C8         -0.8566    1.9794    6.0617 C.3       1 <0>        -0.0771
     13 C9         -1.8933    0.9423    6.4979 C.3       1 <0>        -0.0837
     14 H1         -1.4211   -0.0370    6.5767 H         1 <0>         0.0889
     15 C10        -2.4852    1.3442    7.8539 C.3       1 <0>        -0.1165
     16 C11        -3.3354    0.1859    8.3738 C.3       1 <0>        -0.1066
     17 C12        -4.3105   -0.2654    7.3204 C.ar      1 <0>         0.2363
     18 C13        -4.1630    0.0498    5.9918 C.ar      1 <0>        -0.2169
     19 C14        -5.1142   -0.4275    5.0812 C.ar      1 <0>         0.5345
     20 N1         -6.1267   -1.1622    5.5262 N.ar      1 <0>        -0.5708
     21 C15        -6.2367   -1.4412    6.8163 C.ar      1 <0>         0.6718
     22 N2         -7.3033   -2.2071    7.2535 N.pl3     1 <0>        -0.7931
     23 N3         -5.0004   -0.1356    3.7318 N.pl3     1 <0>        -0.7752
     24 C16        -3.0257    0.8855    5.4733 C.3       1 <0>        -0.0736
     25 H2          2.4192   -0.2751    3.6715 H         1 <0>         0.1368
     26 H3          1.3550    0.4594    5.7661 H         1 <0>         0.1328
     27 H4         -1.6409    2.5149    3.5336 H         1 <0>         0.1373
     28 H5          1.4518    0.3748    1.5037 H         1 <0>         0.1357
     29 H6         -0.0967    2.0817    6.8364 H         1 <0>         0.0912
     30 H7         -1.3473    2.9400    5.9049 H         1 <0>         0.0852
     31 H8         -1.6796    1.5521    8.5581 H         1 <0>         0.0982
     32 H9         -3.1081    2.2306    7.7334 H         1 <0>         0.0832
     33 H10        -3.8845    0.5103    9.2578 H         1 <0>         0.1106
     34 H11        -2.6825   -0.6452    8.6402 H         1 <0>         0.1188
     35 H12        -7.3949   -2.4179    8.1959 H         1 <0>         0.4299
     36 H13        -7.9591   -2.5332    6.6176 H         1 <0>         0.4424
     37 H14        -4.2589    0.4022    3.4127 H         1 <0>         0.4321
     38 H15        -5.6623   -0.4690    3.1059 H         1 <0>         0.4290
     39 H16        -3.3826    1.8960    5.2744 H         1 <0>         0.0987
     40 H17        -2.6526    0.4466    4.5480 H         1 <0>         0.0917
     41 N4         -5.3601   -1.0222    7.7709 N.ar      1 <0>        -0.6015
     42 H18        -5.4432   -1.2323    8.7450 H         1 <0>         0.4580
@<TRIPOS>BOND
     1    1    6 ar
     2    1    2 ar
     3    1   25 1
     4    2    3 ar
     5    2   26 1
     6    3    4 ar
     7    3   12 1
     8    4    5 ar
     9    4   27 1
    10    5    6 ar
    11    5    7 1
    12    6   28 1
    13    7    8 1
    14    8    9 1
    15    8   10 1
    16    8   11 1
    17   12   13 1
    18   12   29 1
    19   12   30 1
    20   13   14 1
    21   13   24 1
    22   13   15 1
    23   15   16 1
    24   15   31 1
    25   15   32 1
    26   16   17 1
    27   16   33 1
    28   16   34 1
    29   17   18 ar
    30   17   41 ar
    31   18   19 ar
    32   18   24 1
    33   19   20 ar
    34   19   23 1
    35   20   21 ar
    36   21   22 1
    37   21   41 ar
    38   22   35 1
    39   22   36 1
    40   23   37 1
    41   23   38 1
    42   24   39 1
    43   24   40 1
    44   41   42 1
@<TRIPOS>MOLECULE
ZINC03814899
   41    43     0     0     0
SMALL
USER_CHARGES

@<TRIPOS>ATOM
      1 C1         -0.6498   -7.3828   -2.3512 C.ar      1 <0>        -0.0752
      2 C2          0.2654   -7.9703   -3.2030 C.ar      1 <0>        -0.1860
      3 C3          1.5827   -8.1323   -2.7990 C.ar      1 <0>         0.0980
      4 C4          1.9787   -7.6983   -1.5422 C.ar      1 <0>        -0.1209
      5 C5          1.0609   -7.1063   -0.6963 C.ar      1 <0>        -0.0828
      6 C6         -0.2514   -6.9460   -1.1013 C.ar      1 <0>        -0.0935
      7 C7         -1.2505   -6.2999   -0.1764 C.3       1 <0>        -0.0755
      8 C8         -1.2611   -4.7883   -0.4130 C.3       1 <0>        -0.0807
      9 H1         -1.4437   -4.5839   -1.4680 H         1 <0>         0.0775
     10 C9         -2.3625   -4.1417    0.4352 C.3       1 <0>        -0.1127
     11 C10        -2.5109   -2.6828    0.0060 C.3       1 <0>        -0.0711
     12 C11        -1.1720   -1.9961    0.0037 C.ar      1 <0>         0.2478
     13 C12         0.0144   -2.6879   -0.0065 C.ar      1 <0>        -0.2992
     14 C13         1.2122   -1.9620   -0.0171 C.ar      1 <0>         0.4808
     15 N1          1.1665   -0.6350   -0.0125 N.ar      1 <0>        -0.6304
     16 C14         0.0021   -0.0041    0.0020 C.ar      1 <0>         0.6032
     17 N2         -1.1435   -0.6657    0.0149 N.ar      1 <0>        -0.6112
     18 N3         -0.0167    1.3797    0.0096 N.pl3     1 <0>        -0.8232
     19 N4          2.4307   -2.6210   -0.0318 N.pl3     1 <0>        -0.8349
     20 C15         0.0827   -4.1899    0.0009 C.3       1 <0>        -0.0498
     21 O1          2.4838   -8.7146   -3.6332 O.3       1 <0>        -0.3114
     22 C16         2.0055   -9.1370   -4.9118 C.3       1 <0>         0.6040
     23 F1          1.5052   -8.0330   -5.6105 F         1 <0>        -0.1648
     24 F2          3.0559   -9.7105   -5.6364 F         1 <0>        -0.1304
     25 F3          0.9873  -10.0809   -4.7403 F         1 <0>        -0.1646
     26 H2         -1.6765   -7.2608   -2.6634 H         1 <0>         0.1332
     27 H3         -0.0453   -8.3073   -4.1809 H         1 <0>         0.1330
     28 H4          3.0036   -7.8230   -1.2255 H         1 <0>         0.1386
     29 H5          1.3687   -6.7680    0.2821 H         1 <0>         0.1370
     30 H6         -0.9731   -6.5038    0.8578 H         1 <0>         0.0783
     31 H7         -2.2429   -6.7054   -0.3732 H         1 <0>         0.0796
     32 H8         -2.0875   -4.1873    1.4890 H         1 <0>         0.0702
     33 H9         -3.3037   -4.6679    0.2762 H         1 <0>         0.0771
     34 H10        -3.1780   -2.1695    0.6986 H         1 <0>         0.0901
     35 H11        -2.9377   -2.6437   -0.9962 H         1 <0>         0.0891
     36 H12         0.8167    1.8761    0.0043 H         1 <0>         0.4125
     37 H13        -0.8632    1.8533    0.0162 H         1 <0>         0.4145
     38 H14         3.2569   -2.1128   -0.0388 H         1 <0>         0.4065
     39 H15         2.4576   -3.5906   -0.0351 H         1 <0>         0.4112
     40 H16         0.8536   -4.5189   -0.6959 H         1 <0>         0.0670
     41 H17         0.3369   -4.5340    1.0034 H         1 <0>         0.0690
@<TRIPOS>BOND
     1    1    6 ar
     2    1    2 ar
     3    1   26 1
     4    2    3 ar
     5    2   27 1
     6    3    4 ar
     7    3   21 1
     8    4    5 ar
     9    4   28 1
    10    5    6 ar
    11    5   29 1
    12    6    7 1
    13    7    8 1
    14    7   30 1
    15    7   31 1
    16    8    9 1
    17    8   20 1
    18    8   10 1
    19   10   11 1
    20   10   32 1
    21   10   33 1
    22   11   12 1
    23   11   34 1
    24   11   35 1
    25   12   17 ar
    26   12   13 ar
    27   13   14 ar
    28   13   20 1
    29   14   15 ar
    30   14   19 1
    31   15   16 ar
    32   16   17 ar
    33   16   18 1
    34   18   36 1
    35   18   37 1
    36   19   38 1
    37   19   39 1
    38   20   40 1
    39   20   41 1
    40   21   22 1
    41   22   23 1
    42   22   24 1
    43   22   25 1
@<TRIPOS>MOLECULE
ZINC03814899
   42    44     0     0     0
SMALL
USER_CHARGES

@<TRIPOS>ATOM
      1 C1         -0.6498   -7.3828   -2.3512 C.ar      1 <0>        -0.0720
      2 C2          0.2654   -7.9703   -3.2030 C.ar      1 <0>        -0.1851
      3 C3          1.5827   -8.1323   -2.7990 C.ar      1 <0>         0.1076
      4 C4          1.9787   -7.6983   -1.5422 C.ar      1 <0>        -0.1220
      5 C5          1.0609   -7.1063   -0.6963 C.ar      1 <0>        -0.0870
      6 C6         -0.2514   -6.9460   -1.1013 C.ar      1 <0>        -0.1071
      7 C7         -1.2505   -6.2999   -0.1764 C.3       1 <0>        -0.0745
      8 C8         -1.2611   -4.7883   -0.4130 C.3       1 <0>        -0.0845
      9 H1         -1.4437   -4.5839   -1.4680 H         1 <0>         0.0872
     10 C9         -2.3625   -4.1417    0.4352 C.3       1 <0>        -0.1167
     11 C10        -2.5109   -2.6828    0.0060 C.3       1 <0>        -0.1070
     12 C11        -1.1720   -1.9961    0.0037 C.ar      1 <0>         0.2365
     13 C12         0.0144   -2.6879   -0.0065 C.ar      1 <0>        -0.2170
     14 C13         1.2122   -1.9620   -0.0171 C.ar      1 <0>         0.5345
     15 N1          1.1665   -0.6350   -0.0125 N.ar      1 <0>        -0.5709
     16 C14         0.0021   -0.0041    0.0020 C.ar      1 <0>         0.6717
     17 N2         -0.0167    1.3797    0.0096 N.pl3     1 <0>        -0.7930
     18 N3          2.4307   -2.6210   -0.0318 N.pl3     1 <0>        -0.7757
     19 C15         0.0827   -4.1899    0.0009 C.3       1 <0>        -0.0723
     20 O1          2.4838   -8.7146   -3.6332 O.3       1 <0>        -0.3108
     21 C16         2.0055   -9.1370   -4.9118 C.3       1 <0>         0.6047
     22 F1          1.5052   -8.0330   -5.6105 F         1 <0>        -0.1651
     23 F2          3.0559   -9.7105   -5.6364 F         1 <0>        -0.1262
     24 F3          0.9873  -10.0809   -4.7403 F         1 <0>        -0.1624
     25 H2         -1.6765   -7.2608   -2.6634 H         1 <0>         0.1343
     26 H3         -0.0453   -8.3073   -4.1809 H         1 <0>         0.1361
     27 H4          3.0036   -7.8230   -1.2255 H         1 <0>         0.1412
     28 H5          1.3687   -6.7680    0.2821 H         1 <0>         0.1363
     29 H6         -0.9731   -6.5038    0.8578 H         1 <0>         0.0832
     30 H7         -2.2429   -6.7054   -0.3732 H         1 <0>         0.0869
     31 H8         -2.0875   -4.1873    1.4890 H         1 <0>         0.0828
     32 H9         -3.3037   -4.6679    0.2762 H         1 <0>         0.0975
     33 H10        -3.1780   -2.1695    0.6986 H         1 <0>         0.1100
     34 H11        -2.9377   -2.6437   -0.9962 H         1 <0>         0.1185
     35 H12         0.8167    1.8761    0.0043 H         1 <0>         0.4424
     36 H13        -0.8632    1.8533    0.0162 H         1 <0>         0.4300
     37 H14         3.2569   -2.1128   -0.0388 H         1 <0>         0.4290
     38 H15         2.4576   -3.5906   -0.0351 H         1 <0>         0.4318
     39 H16         0.8536   -4.5189   -0.6959 H         1 <0>         0.0920
     40 H17         0.3369   -4.5340    1.0034 H         1 <0>         0.0982
     41 N4         -1.2094   -0.6266    0.0163 N.ar      1 <0>        -0.6014
     42 H18        -2.0886   -0.1506    0.0348 H         1 <0>         0.4580
@<TRIPOS>BOND
     1    1    6 ar
     2    1    2 ar
     3    1   25 1
     4    2    3 ar
     5    2   26 1
     6    3    4 ar
     7    3   20 1
     8    4    5 ar
     9    4   27 1
    10    5    6 ar
    11    5   28 1
    12    6    7 1
    13    7    8 1
    14    7   29 1
    15    7   30 1
    16    8    9 1
    17    8   19 1
    18    8   10 1
    19   10   11 1
    20   10   31 1
    21   10   32 1
    22   11   12 1
    23   11   33 1
    24   11   34 1
    25   12   13 ar
    26   12   41 ar
    27   13   14 ar
    28   13   19 1
    29   14   15 ar
    30   14   18 1
    31   15   16 ar
    32   16   17 1
    33   16   41 ar
    34   17   35 1
    35   17   36 1
    36   18   37 1
    37   18   38 1
    38   19   39 1
    39   19   40 1
    40   20   21 1
    41   21   22 1
    42   21   23 1
    43   21   24 1
    44   41   42 1
@<TRIPOS>MOLECULE
ZINC03814902
   36    37     0     0     0
SMALL
USER_CHARGES

@<TRIPOS>ATOM
      1 C1         -0.0127    1.0858    0.0080 C.3       1 <0>        -0.1453
      2 C2         -0.7288    1.5792    1.2668 C.3       1 <0>        -0.0631
      3 C3          0.0111    1.0724    2.5063 C.3       1 <0>        -0.1474
      4 C4         -0.7496    3.1091    1.2752 C.3       1 <0>        -0.1444
      5 C5         -2.1642    1.0497    1.2777 C.3       1 <0>        -0.0739
      6 H1         -2.6963    1.4152    0.3994 H         1 <0>         0.0741
      7 C6         -2.1480   -0.4834    1.2693 C.3       1 <0>        -0.1167
      8 C7         -3.5747   -0.9821    1.0447 C.3       1 <0>        -0.0710
      9 C8         -4.5213   -0.3227    2.0108 C.ar      1 <0>         0.2477
     10 C9         -4.2018    0.8260    2.6925 C.ar      1 <0>        -0.2978
     11 C10        -5.1509    1.3719    3.5659 C.ar      1 <0>         0.4793
     12 N1         -6.3227    0.7649    3.7121 N.ar      1 <0>        -0.6305
     13 C11        -6.5918   -0.3443    3.0401 C.ar      1 <0>         0.6021
     14 N2         -5.7141   -0.8791    2.2072 N.ar      1 <0>        -0.6113
     15 N3         -7.8202   -0.9579    3.2130 N.pl3     1 <0>        -0.8235
     16 N4         -4.8700    2.5317    4.2696 N.pl3     1 <0>        -0.8355
     17 C12        -2.8752    1.5187    2.5465 C.3       1 <0>        -0.0530
     18 H2          0.0021   -0.0041    0.0020 H         1 <0>         0.0595
     19 H3          1.0099    1.4631    0.0003 H         1 <0>         0.0545
     20 H4         -0.5399    1.4469   -0.8751 H         1 <0>         0.0548
     21 H5          1.0337    1.4497    2.4986 H         1 <0>         0.0536
     22 H6         -0.4990    1.4239    3.4031 H         1 <0>         0.0573
     23 H7          0.0259   -0.0175    2.5003 H         1 <0>         0.0582
     24 H8         -1.2768    3.4701    0.3922 H         1 <0>         0.0545
     25 H9         -1.2598    3.4606    2.1720 H         1 <0>         0.0554
     26 H10         0.2730    3.4864    1.2675 H         1 <0>         0.0548
     27 H11        -1.5049   -0.8385    0.4640 H         1 <0>         0.0787
     28 H12        -1.7746   -0.8510    2.2251 H         1 <0>         0.0696
     29 H13        -3.8812   -0.7498    0.0248 H         1 <0>         0.0881
     30 H14        -3.6060   -2.0619    1.1899 H         1 <0>         0.0884
     31 H15        -8.4722   -0.5752    3.8207 H         1 <0>         0.4122
     32 H16        -8.0290   -1.7707    2.7265 H         1 <0>         0.4143
     33 H17        -4.0120    2.9704    4.1589 H         1 <0>         0.4114
     34 H18        -5.5314    2.9050    4.8731 H         1 <0>         0.4062
     35 H19        -2.2534    1.2922    3.4127 H         1 <0>         0.0734
     36 H20        -3.0349    2.5956    2.4930 H         1 <0>         0.0652
@<TRIPOS>BOND
     1    1    2 1
     2    1   18 1
     3    1   19 1
     4    1   20 1
     5    2    3 1
     6    2    4 1
     7    2    5 1
     8    3   21 1
     9    3   22 1
    10    3   23 1
    11    4   24 1
    12    4   25 1
    13    4   26 1
    14    5    6 1
    15    5   17 1
    16    5    7 1
    17    7    8 1
    18    7   27 1
    19    7   28 1
    20    8    9 1
    21    8   29 1
    22    8   30 1
    23    9   14 ar
    24    9   10 ar
    25   10   11 ar
    26   10   17 1
    27   11   12 ar
    28   11   16 1
    29   12   13 ar
    30   13   14 ar
    31   13   15 1
    32   15   31 1
    33   15   32 1
    34   16   33 1
    35   16   34 1
    36   17   35 1
    37   17   36 1
@<TRIPOS>MOLECULE
ZINC03814902
   37    38     0     0     0
SMALL
USER_CHARGES

@<TRIPOS>ATOM
      1 C1         -0.0127    1.0858    0.0080 C.3       1 <0>        -0.1492
      2 C2         -0.7288    1.5792    1.2668 C.3       1 <0>        -0.0615
      3 C3          0.0111    1.0724    2.5063 C.3       1 <0>        -0.1520
      4 C4         -0.7496    3.1091    1.2752 C.3       1 <0>        -0.1489
      5 C5         -2.1642    1.0497    1.2777 C.3       1 <0>        -0.0783
      6 H1         -2.6963    1.4152    0.3994 H         1 <0>         0.0846
      7 C6         -2.1480   -0.4834    1.2693 C.3       1 <0>        -0.1220
      8 C7         -3.5747   -0.9821    1.0447 C.3       1 <0>        -0.1068
      9 C8         -4.5213   -0.3227    2.0108 C.ar      1 <0>         0.2363
     10 C9         -4.2018    0.8260    2.6925 C.ar      1 <0>        -0.2163
     11 C10        -5.1509    1.3719    3.5659 C.ar      1 <0>         0.5339
     12 N1         -6.3227    0.7649    3.7121 N.ar      1 <0>        -0.5711
     13 C11        -6.5918   -0.3443    3.0401 C.ar      1 <0>         0.6712
     14 N2         -7.8202   -0.9579    3.2130 N.pl3     1 <0>        -0.7934
     15 N3         -4.8700    2.5317    4.2696 N.pl3     1 <0>        -0.7763
     16 C12        -2.8752    1.5187    2.5465 C.3       1 <0>        -0.0753
     17 H2          0.0021   -0.0041    0.0020 H         1 <0>         0.0601
     18 H3          1.0099    1.4631    0.0003 H         1 <0>         0.0623
     19 H4         -0.5399    1.4469   -0.8751 H         1 <0>         0.0581
     20 H5          1.0337    1.4497    2.4986 H         1 <0>         0.0625
     21 H6         -0.4990    1.4239    3.4031 H         1 <0>         0.0565
     22 H7          0.0259   -0.0175    2.5003 H         1 <0>         0.0597
     23 H8         -1.2768    3.4701    0.3922 H         1 <0>         0.0581
     24 H9         -1.2598    3.4606    2.1720 H         1 <0>         0.0546
     25 H10         0.2730    3.4864    1.2675 H         1 <0>         0.0629
     26 H11        -1.5049   -0.8385    0.4640 H         1 <0>         0.0992
     27 H12        -1.7746   -0.8510    2.2251 H         1 <0>         0.0826
     28 H13        -3.8812   -0.7498    0.0248 H         1 <0>         0.1177
     29 H14        -3.6060   -2.0619    1.1899 H         1 <0>         0.1088
     30 H15        -8.4722   -0.5752    3.8207 H         1 <0>         0.4423
     31 H16        -8.0290   -1.7707    2.7265 H         1 <0>         0.4298
     32 H17        -4.0120    2.9704    4.1589 H         1 <0>         0.4319
     33 H18        -5.5314    2.9050    4.8731 H         1 <0>         0.4287
     34 H19        -2.2534    1.2922    3.4127 H         1 <0>         0.1014
     35 H20        -3.0349    2.5956    2.4930 H         1 <0>         0.0911
     36 N4         -5.7324   -0.9434    2.1696 N.ar      1 <0>        -0.6012
     37 H21        -5.9356   -1.7806    1.6618 H         1 <0>         0.4578
@<TRIPOS>BOND
     1    1    2 1
     2    1   17 1
     3    1   18 1
     4    1   19 1
     5    2    3 1
     6    2    4 1
     7    2    5 1
     8    3   20 1
     9    3   21 1
    10    3   22 1
    11    4   23 1
    12    4   24 1
    13    4   25 1
    14    5    6 1
    15    5   16 1
    16    5    7 1
    17    7    8 1
    18    7   26 1
    19    7   27 1
    20    8    9 1
    21    8   28 1
    22    8   29 1
    23    9   10 ar
    24    9   36 ar
    25   10   11 ar
    26   10   16 1
    27   11   12 ar
    28   11   15 1
    29   12   13 ar
    30   13   14 1
    31   13   36 ar
    32   14   30 1
    33   14   31 1
    34   15   32 1
    35   15   33 1
    36   16   34 1
    37   16   35 1
    38   36   37 1
@<TRIPOS>MOLECULE
ZINC03814903
   38    40     0     0     0
SMALL
USER_CHARGES

@<TRIPOS>ATOM
      1 C1         -5.9563   -2.0712    0.0490 C.3       1 <0>         0.0293
      2 O1         -4.7474   -2.8331    0.0329 O.3       1 <0>        -0.3223
      3 C2         -3.5790   -2.1371    0.0251 C.ar      1 <0>         0.0690
      4 C3         -2.3688   -2.8146    0.0095 C.ar      1 <0>        -0.1018
      5 C4         -1.1818   -2.1086    0.0020 C.ar      1 <0>        -0.1541
      6 C5         -1.2002   -0.7202    0.0097 C.ar      1 <0>         0.1850
      7 C6         -2.4121   -0.0428    0.0306 C.ar      1 <0>        -0.1587
      8 C7         -3.5983   -0.7503    0.0323 C.ar      1 <0>        -0.1583
      9 N1          0.0021   -0.0041    0.0020 N.pl3     1 <0>        -0.7441
     10 C8         -0.0178    1.4608    0.0101 C.3       1 <0>         0.1863
     11 C9          1.3960    1.9824   -0.0006 C.ar      1 <0>         0.0854
     12 C10         1.9869    2.3181   -1.2168 C.ar      1 <0>        -0.1008
     13 C11         3.2669    2.7970   -1.2456 C.ar      1 <0>        -0.0843
     14 C12         3.9521    2.9251   -0.0254 C.ar      1 <0>         0.1983
     15 C13         3.2904    2.5596    1.1711 C.ar      1 <0>        -0.0496
     16 N2          2.0418    2.1040    1.1356 N.ar      1 <0>        -0.4124
     17 C14         4.0294    2.7039    2.4264 C.ar      1 <0>         0.5344
     18 N3          5.2696    3.1671    2.3623 N.ar      1 <0>        -0.6296
     19 C15         5.8286    3.4912    1.2006 C.ar      1 <0>         0.6233
     20 N4          5.2089    3.3814    0.0427 N.ar      1 <0>        -0.6131
     21 N5          7.1268    3.9686    1.2075 N.pl3     1 <0>        -0.8139
     22 N6          3.4550    2.3690    3.6342 N.pl3     1 <0>        -0.7962
     23 H1         -6.8116   -2.7469    0.0538 H         1 <0>         0.0974
     24 H2         -5.9808   -1.4476    0.9426 H         1 <0>         0.0525
     25 H3         -5.9985   -1.4380   -0.8372 H         1 <0>         0.0527
     26 H4         -2.3547   -3.8945    0.0036 H         1 <0>         0.1296
     27 H5         -0.2396   -2.6363   -0.0101 H         1 <0>         0.1262
     28 H6         -2.4273    1.0371    0.0414 H         1 <0>         0.1237
     29 H7         -4.5410   -0.2235    0.0441 H         1 <0>         0.1264
     30 H8          0.8486   -0.4776   -0.0086 H         1 <0>         0.3996
     31 H9         -0.5450    1.8219   -0.8730 H         1 <0>         0.0764
     32 H10        -0.5280    1.8123    0.9069 H         1 <0>         0.0756
     33 H11         1.4323    2.2035   -2.1365 H         1 <0>         0.1455
     34 H12         3.7391    3.0654   -2.1791 H         1 <0>         0.1507
     35 H13         7.6057    4.0595    2.0461 H         1 <0>         0.4149
     36 H14         7.5584    4.2124    0.3737 H         1 <0>         0.4176
     37 H15         2.5462    2.0311    3.6620 H         1 <0>         0.4253
     38 H16         3.9598    2.4711    4.4562 H         1 <0>         0.4143
@<TRIPOS>BOND
     1    1    2 1
     2    1   23 1
     3    1   24 1
     4    1   25 1
     5    2    3 1
     6    3    8 ar
     7    3    4 ar
     8    4    5 ar
     9    4   26 1
    10    5    6 ar
    11    5   27 1
    12    6    7 ar
    13    6    9 1
    14    7    8 ar
    15    7   28 1
    16    8   29 1
    17    9   10 1
    18    9   30 1
    19   10   11 1
    20   10   31 1
    21   10   32 1
    22   11   16 ar
    23   11   12 ar
    24   12   13 ar
    25   12   33 1
    26   13   14 ar
    27   13   34 1
    28   14   20 ar
    29   14   15 ar
    30   15   16 ar
    31   15   17 ar
    32   17   18 ar
    33   17   22 1
    34   18   19 ar
    35   19   20 ar
    36   19   21 1
    37   21   35 1
    38   21   36 1
    39   22   37 1
    40   22   38 1
@<TRIPOS>MOLECULE
ZINC03814903
   39    41     0     0     0
SMALL
USER_CHARGES

@<TRIPOS>ATOM
      1 C1         -5.9563   -2.0712    0.0490 C.3       1 <0>         0.0276
      2 O1         -4.7474   -2.8331    0.0329 O.3       1 <0>        -0.3193
      3 C2         -3.5790   -2.1371    0.0251 C.ar      1 <0>         0.0830
      4 C3         -2.3688   -2.8146    0.0095 C.ar      1 <0>        -0.1037
      5 C4         -1.1818   -2.1086    0.0020 C.ar      1 <0>        -0.1459
      6 C5         -1.2002   -0.7202    0.0097 C.ar      1 <0>         0.1717
      7 C6         -2.4121   -0.0428    0.0306 C.ar      1 <0>        -0.1530
      8 C7         -3.5983   -0.7503    0.0323 C.ar      1 <0>        -0.1612
      9 N1          0.0021   -0.0041    0.0020 N.pl3     1 <0>        -0.7499
     10 C8         -0.0178    1.4608    0.0101 C.3       1 <0>         0.1753
     11 C9          1.3960    1.9824   -0.0006 C.ar      1 <0>         0.1326
     12 C10         1.9869    2.3181   -1.2168 C.ar      1 <0>        -0.0652
     13 C11         3.2669    2.7970   -1.2456 C.ar      1 <0>        -0.0950
     14 C12         3.9521    2.9251   -0.0254 C.ar      1 <0>         0.1458
     15 C13         3.2904    2.5596    1.1711 C.ar      1 <0>         0.0271
     16 N2          2.0418    2.1040    1.1356 N.ar      1 <0>        -0.3995
     17 C14         4.0294    2.7039    2.4264 C.ar      1 <0>         0.5757
     18 N3          5.2696    3.1671    2.3623 N.ar      1 <0>        -0.5793
     19 C15         5.8286    3.4912    1.2006 C.ar      1 <0>         0.7018
     20 N4          7.1268    3.9686    1.2075 N.pl3     1 <0>        -0.7833
     21 N5          3.4550    2.3690    3.6342 N.pl3     1 <0>        -0.7348
     22 H1         -6.8116   -2.7469    0.0538 H         1 <0>         0.1013
     23 H2         -5.9808   -1.4476    0.9426 H         1 <0>         0.0543
     24 H3         -5.9985   -1.4380   -0.8372 H         1 <0>         0.0545
     25 H4         -2.3547   -3.8945    0.0036 H         1 <0>         0.1334
     26 H5         -0.2396   -2.6363   -0.0101 H         1 <0>         0.1268
     27 H6         -2.4273    1.0371    0.0414 H         1 <0>         0.1231
     28 H7         -4.5410   -0.2235    0.0441 H         1 <0>         0.1298
     29 H8          0.8486   -0.4776   -0.0086 H         1 <0>         0.3988
     30 H9         -0.5450    1.8219   -0.8730 H         1 <0>         0.0887
     31 H10        -0.5280    1.8123    0.9069 H         1 <0>         0.0871
     32 H11         1.4323    2.2035   -2.1365 H         1 <0>         0.1716
     33 H12         3.7391    3.0654   -2.1791 H         1 <0>         0.1724
     34 H13         7.6057    4.0595    2.0461 H         1 <0>         0.4442
     35 H14         7.5584    4.2124    0.3737 H         1 <0>         0.4321
     36 H15         2.5462    2.0311    3.6620 H         1 <0>         0.4436
     37 H16         3.9598    2.4711    4.4562 H         1 <0>         0.4350
     38 N6          5.2448    3.4011   -0.0201 N.ar      1 <0>        -0.6056
     39 H17         5.6885    3.6527   -0.8802 H         1 <0>         0.4580
@<TRIPOS>BOND
     1    1    2 1
     2    1   22 1
     3    1   23 1
     4    1   24 1
     5    2    3 1
     6    3    8 ar
     7    3    4 ar
     8    4    5 ar
     9    4   25 1
    10    5    6 ar
    11    5   26 1
    12    6    7 ar
    13    6    9 1
    14    7    8 ar
    15    7   27 1
    16    8   28 1
    17    9   10 1
    18    9   29 1
    19   10   11 1
    20   10   30 1
    21   10   31 1
    22   11   16 ar
    23   11   12 ar
    24   12   13 ar
    25   12   32 1
    26   13   14 ar
    27   13   33 1
    28   14   15 ar
    29   14   38 ar
    30   15   16 ar
    31   15   17 ar
    32   17   18 ar
    33   17   21 1
    34   18   19 ar
    35   19   20 1
    36   19   38 ar
    37   20   34 1
    38   20   35 1
    39   21   36 1
    40   21   37 1
    41   38   39 1
@<TRIPOS>MOLECULE
ZINC03814904
   41    43     0     0     0
SMALL
USER_CHARGES

@<TRIPOS>ATOM
      1 C1         -0.0001   -0.7297   -1.2707 C.3       1 <0>         0.0932
      2 N1          0.0021   -0.0041    0.0020 N.pl3     1 <0>        -0.6272
      3 C2         -0.0178    1.4608    0.0101 C.3       1 <0>         0.1806
      4 C3          1.3960    1.9824   -0.0006 C.ar      1 <0>         0.0834
      5 C4          1.9869    2.3181   -1.2168 C.ar      1 <0>        -0.1053
      6 C5          3.2669    2.7970   -1.2456 C.ar      1 <0>        -0.0848
      7 C6          3.9521    2.9251   -0.0254 C.ar      1 <0>         0.1928
      8 C7          3.2904    2.5596    1.1711 C.ar      1 <0>        -0.0456
      9 N2          2.0418    2.1040    1.1356 N.ar      1 <0>        -0.4132
     10 C8          4.0294    2.7039    2.4264 C.ar      1 <0>         0.5332
     11 N3          5.2696    3.1671    2.3623 N.ar      1 <0>        -0.6302
     12 C9          5.8286    3.4912    1.2006 C.ar      1 <0>         0.6206
     13 N4          5.2089    3.3814    0.0427 N.ar      1 <0>        -0.6134
     14 N5          7.1268    3.9686    1.2075 N.pl3     1 <0>        -0.8157
     15 N6          3.4550    2.3690    3.6342 N.pl3     1 <0>        -0.7972
     16 C10         0.0231   -0.7102    1.2100 C.ar      1 <0>         0.1815
     17 C11         0.0309   -0.0227    2.4165 C.ar      1 <0>        -0.1408
     18 C12         0.0459   -0.7205    3.6083 C.ar      1 <0>        -0.1639
     19 C13         0.0652   -2.1074    3.6002 C.ar      1 <0>         0.0713
     20 C14         0.0627   -2.7947    2.3955 C.ar      1 <0>        -0.1077
     21 C15         0.0420   -2.0987    1.2028 C.ar      1 <0>        -0.1554
     22 O1          0.0860   -2.7936    4.7742 O.3       1 <0>        -0.3225
     23 C16         0.0873   -2.0218    5.9768 C.3       1 <0>         0.0301
     24 H1          1.0269   -0.8956   -1.5960 H         1 <0>         0.0450
     25 H2         -0.4997   -1.6897   -1.1407 H         1 <0>         0.0696
     26 H3         -0.5291   -0.1436   -2.0222 H         1 <0>         0.0680
     27 H4         -0.5450    1.8219   -0.8730 H         1 <0>         0.0937
     28 H5         -0.5280    1.8123    0.9069 H         1 <0>         0.0916
     29 H6          1.4323    2.2035   -2.1365 H         1 <0>         0.1409
     30 H7          3.7391    3.0654   -2.1791 H         1 <0>         0.1476
     31 H8          7.6057    4.0595    2.0461 H         1 <0>         0.4142
     32 H9          7.5584    4.2124    0.3737 H         1 <0>         0.4168
     33 H10         2.5462    2.0311    3.6620 H         1 <0>         0.4240
     34 H11         3.9598    2.4711    4.4562 H         1 <0>         0.4130
     35 H12         0.0212    1.0572    2.4229 H         1 <0>         0.1312
     36 H13         0.0475   -0.1861    4.5468 H         1 <0>         0.1247
     37 H14         0.0774   -3.8746    2.3901 H         1 <0>         0.1278
     38 H15         0.0400   -2.6340    0.2649 H         1 <0>         0.1278
     39 H16         0.1049   -2.6904    6.8375 H         1 <0>         0.0966
     40 H17         0.9689   -1.3811    5.9964 H         1 <0>         0.0512
     41 H18        -0.8108   -1.4053    6.0139 H         1 <0>         0.0526
@<TRIPOS>BOND
     1    1    2 1
     2    1   24 1
     3    1   25 1
     4    1   26 1
     5    2    3 1
     6    2   16 1
     7    3    4 1
     8    3   27 1
     9    3   28 1
    10    4    9 ar
    11    4    5 ar
    12    5    6 ar
    13    5   29 1
    14    6    7 ar
    15    6   30 1
    16    7   13 ar
    17    7    8 ar
    18    8    9 ar
    19    8   10 ar
    20   10   11 ar
    21   10   15 1
    22   11   12 ar
    23   12   13 ar
    24   12   14 1
    25   14   31 1
    26   14   32 1
    27   15   33 1
    28   15   34 1
    29   16   21 ar
    30   16   17 ar
    31   17   18 ar
    32   17   35 1
    33   18   19 ar
    34   18   36 1
    35   19   20 ar
    36   19   22 1
    37   20   21 ar
    38   20   37 1
    39   21   38 1
    40   22   23 1
    41   23   39 1
    42   23   40 1
    43   23   41 1
@<TRIPOS>MOLECULE
ZINC03814904
   42    44     0     0     0
SMALL
USER_CHARGES

@<TRIPOS>ATOM
      1 C1         -0.0001   -0.7297   -1.2707 C.3       1 <0>         0.0893
      2 N1          0.0021   -0.0041    0.0020 N.pl3     1 <0>        -0.6286
      3 C2         -0.0178    1.4608    0.0101 C.3       1 <0>         0.1691
      4 C3          1.3960    1.9824   -0.0006 C.ar      1 <0>         0.1286
      5 C4          1.9869    2.3181   -1.2168 C.ar      1 <0>        -0.0708
      6 C5          3.2669    2.7970   -1.2456 C.ar      1 <0>        -0.0954
      7 C6          3.9521    2.9251   -0.0254 C.ar      1 <0>         0.1389
      8 C7          3.2904    2.5596    1.1711 C.ar      1 <0>         0.0299
      9 N2          2.0418    2.1040    1.1356 N.ar      1 <0>        -0.4007
     10 C8          4.0294    2.7039    2.4264 C.ar      1 <0>         0.5757
     11 N3          5.2696    3.1671    2.3623 N.ar      1 <0>        -0.5802
     12 C9          5.8286    3.4912    1.2006 C.ar      1 <0>         0.7008
     13 N4          7.1268    3.9686    1.2075 N.pl3     1 <0>        -0.7850
     14 N5          3.4550    2.3690    3.6342 N.pl3     1 <0>        -0.7365
     15 C10         0.0231   -0.7102    1.2100 C.ar      1 <0>         0.1688
     16 C11         0.0309   -0.0227    2.4165 C.ar      1 <0>        -0.1458
     17 C12         0.0459   -0.7205    3.6083 C.ar      1 <0>        -0.1687
     18 C13         0.0652   -2.1074    3.6002 C.ar      1 <0>         0.0831
     19 C14         0.0627   -2.7947    2.3955 C.ar      1 <0>        -0.1059
     20 C15         0.0420   -2.0987    1.2028 C.ar      1 <0>        -0.1460
     21 O1          0.0860   -2.7936    4.7742 O.3       1 <0>        -0.3188
     22 C16         0.0873   -2.0218    5.9768 C.3       1 <0>         0.0290
     23 H1          1.0269   -0.8956   -1.5960 H         1 <0>         0.0457
     24 H2         -0.4997   -1.6897   -1.1407 H         1 <0>         0.0762
     25 H3         -0.5291   -0.1436   -2.0222 H         1 <0>         0.0718
     26 H4         -0.5450    1.8219   -0.8730 H         1 <0>         0.1072
     27 H5         -0.5280    1.8123    0.9069 H         1 <0>         0.1037
     28 H6          1.4323    2.2035   -2.1365 H         1 <0>         0.1669
     29 H7          3.7391    3.0654   -2.1791 H         1 <0>         0.1694
     30 H8          7.6057    4.0595    2.0461 H         1 <0>         0.4436
     31 H9          7.5584    4.2124    0.3737 H         1 <0>         0.4315
     32 H10         2.5462    2.0311    3.6620 H         1 <0>         0.4423
     33 H11         3.9598    2.4711    4.4562 H         1 <0>         0.4340
     34 H12         0.0212    1.0572    2.4229 H         1 <0>         0.1278
     35 H13         0.0475   -0.1861    4.5468 H         1 <0>         0.1272
     36 H14         0.0774   -3.8746    2.3901 H         1 <0>         0.1328
     37 H15         0.0400   -2.6340    0.2649 H         1 <0>         0.1309
     38 H16         0.1049   -2.6904    6.8375 H         1 <0>         0.1011
     39 H17         0.9689   -1.3811    5.9964 H         1 <0>         0.0505
     40 H18        -0.8108   -1.4053    6.0139 H         1 <0>         0.0550
     41 N6          5.2448    3.4011   -0.0201 N.ar      1 <0>        -0.6051
     42 H19         5.6885    3.6527   -0.8802 H         1 <0>         0.4569
@<TRIPOS>BOND
     1    1    2 1
     2    1   23 1
     3    1   24 1
     4    1   25 1
     5    2    3 1
     6    2   15 1
     7    3    4 1
     8    3   26 1
     9    3   27 1
    10    4    9 ar
    11    4    5 ar
    12    5    6 ar
    13    5   28 1
    14    6    7 ar
    15    6   29 1
    16    7    8 ar
    17    7   41 ar
    18    8    9 ar
    19    8   10 ar
    20   10   11 ar
    21   10   14 1
    22   11   12 ar
    23   12   13 1
    24   12   41 ar
    25   13   30 1
    26   13   31 1
    27   14   32 1
    28   14   33 1
    29   15   20 ar
    30   15   16 ar
    31   16   17 ar
    32   16   34 1
    33   17   18 ar
    34   17   35 1
    35   18   19 ar
    36   18   21 1
    37   19   20 ar
    38   19   36 1
    39   20   37 1
    40   21   22 1
    41   22   38 1
    42   22   39 1
    43   22   40 1
    44   41   42 1
@<TRIPOS>MOLECULE
ZINC03814905
   34    36     0     0     0
SMALL
USER_CHARGES

@<TRIPOS>ATOM
      1 C1          2.3998    0.0326   -0.0207 C.ar      1 <0>        -0.0647
      2 C2          2.3781    1.4153   -0.0130 C.ar      1 <0>        -0.1685
      3 C3          1.1718    2.0910    0.0021 C.ar      1 <0>        -0.0618
      4 C4         -0.0168    1.3857    0.0097 C.ar      1 <0>        -0.1140
      5 C5          0.0021   -0.0041    0.0020 C.ar      1 <0>         0.2299
      6 C6          1.2159   -0.6787   -0.0132 C.ar      1 <0>        -0.1889
      7 N1         -1.1976   -0.7208    0.0092 N.pl3     1 <0>        -0.7364
      8 C7         -1.1757   -2.1857    0.0011 C.3       1 <0>         0.1832
      9 C8         -2.5888   -2.7092    0.0112 C.ar      1 <0>         0.0825
     10 C9         -3.2020   -3.0326   -1.1973 C.ar      1 <0>        -0.1004
     11 C10        -4.4817   -3.5131   -1.2073 C.ar      1 <0>        -0.0839
     12 C11        -5.1438   -3.6553    0.0241 C.ar      1 <0>         0.1995
     13 C12        -4.4602   -3.3017    1.2119 C.ar      1 <0>        -0.0495
     14 N2         -3.2131   -2.8440    1.1579 N.ar      1 <0>        -0.4110
     15 C13        -5.1754   -3.4605    2.4791 C.ar      1 <0>         0.5348
     16 N3         -6.4160   -3.9248    2.4333 N.ar      1 <0>        -0.6293
     17 C14        -6.9962   -4.2372    1.2788 C.ar      1 <0>         0.6238
     18 N4         -6.3985   -4.1141    0.1108 N.ar      1 <0>        -0.6129
     19 N5         -8.2936   -4.7165    1.3049 N.pl3     1 <0>        -0.8136
     20 N6         -4.5790   -3.1377    3.6796 N.pl3     1 <0>        -0.7959
     21 Cl1        -1.5311    2.2344    0.0215 Cl        1 <0>        -0.0754
     22 H1          3.3439   -0.4919   -0.0329 H         1 <0>         0.1277
     23 H2          3.3055    1.9687   -0.0193 H         1 <0>         0.1277
     24 H3          1.1584    3.1709    0.0080 H         1 <0>         0.1312
     25 H4          1.2341   -1.7586   -0.0195 H         1 <0>         0.1305
     26 H5         -2.0447   -0.2485    0.0195 H         1 <0>         0.4039
     27 H6         -0.6647   -2.5365   -0.8955 H         1 <0>         0.0812
     28 H7         -0.6484   -2.5460    0.8843 H         1 <0>         0.0805
     29 H8         -2.6649   -2.9074   -2.1258 H         1 <0>         0.1459
     30 H9         -4.9709   -3.7722   -2.1346 H         1 <0>         0.1512
     31 H10        -8.7565   -4.8172    2.1513 H         1 <0>         0.4150
     32 H11        -8.7403   -4.9520    0.4767 H         1 <0>         0.4176
     33 H12        -3.6702   -2.7989    3.6940 H         1 <0>         0.4253
     34 H13        -5.0682   -3.2495    4.5097 H         1 <0>         0.4145
@<TRIPOS>BOND
     1    1    6 ar
     2    1    2 ar
     3    1   22 1
     4    2    3 ar
     5    2   23 1
     6    3    4 ar
     7    3   24 1
     8    4    5 ar
     9    4   21 1
    10    5    6 ar
    11    5    7 1
    12    6   25 1
    13    7    8 1
    14    7   26 1
    15    8    9 1
    16    8   27 1
    17    8   28 1
    18    9   14 ar
    19    9   10 ar
    20   10   11 ar
    21   10   29 1
    22   11   12 ar
    23   11   30 1
    24   12   18 ar
    25   12   13 ar
    26   13   14 ar
    27   13   15 ar
    28   15   16 ar
    29   15   20 1
    30   16   17 ar
    31   17   18 ar
    32   17   19 1
    33   19   31 1
    34   19   32 1
    35   20   33 1
    36   20   34 1
@<TRIPOS>MOLECULE
ZINC03814905
   35    37     0     0     0
SMALL
USER_CHARGES

@<TRIPOS>ATOM
      1 C1          2.3998    0.0326   -0.0207 C.ar      1 <0>        -0.0645
      2 C2          2.3781    1.4153   -0.0130 C.ar      1 <0>        -0.1563
      3 C3          1.1718    2.0910    0.0021 C.ar      1 <0>        -0.0617
      4 C4         -0.0168    1.3857    0.0097 C.ar      1 <0>        -0.1073
      5 C5          0.0021   -0.0041    0.0020 C.ar      1 <0>         0.2201
      6 C6          1.2159   -0.6787   -0.0132 C.ar      1 <0>        -0.1846
      7 N1         -1.1976   -0.7208    0.0092 N.pl3     1 <0>        -0.7440
      8 C7         -1.1757   -2.1857    0.0011 C.3       1 <0>         0.1726
      9 C8         -2.5888   -2.7092    0.0112 C.ar      1 <0>         0.1300
     10 C9         -3.2020   -3.0326   -1.1973 C.ar      1 <0>        -0.0646
     11 C10        -4.4817   -3.5131   -1.2073 C.ar      1 <0>        -0.0945
     12 C11        -5.1438   -3.6553    0.0241 C.ar      1 <0>         0.1471
     13 C12        -4.4602   -3.3017    1.2119 C.ar      1 <0>         0.0272
     14 N2         -3.2131   -2.8440    1.1579 N.ar      1 <0>        -0.3983
     15 C13        -5.1754   -3.4605    2.4791 C.ar      1 <0>         0.5759
     16 N3         -6.4160   -3.9248    2.4333 N.ar      1 <0>        -0.5789
     17 C14        -6.9962   -4.2372    1.2788 C.ar      1 <0>         0.7018
     18 N4         -8.2936   -4.7165    1.3049 N.pl3     1 <0>        -0.7830
     19 N5         -4.5790   -3.1377    3.6796 N.pl3     1 <0>        -0.7345
     20 Cl1        -1.5311    2.2344    0.0215 Cl        1 <0>        -0.0742
     21 H1          3.3439   -0.4919   -0.0329 H         1 <0>         0.1317
     22 H2          3.3055    1.9687   -0.0193 H         1 <0>         0.1326
     23 H3          1.1584    3.1709    0.0080 H         1 <0>         0.1354
     24 H4          1.2341   -1.7586   -0.0195 H         1 <0>         0.1305
     25 H5         -2.0447   -0.2485    0.0195 H         1 <0>         0.4028
     26 H6         -0.6647   -2.5365   -0.8955 H         1 <0>         0.0935
     27 H7         -0.6484   -2.5460    0.8843 H         1 <0>         0.0920
     28 H8         -2.6649   -2.9074   -2.1258 H         1 <0>         0.1721
     29 H9         -4.9709   -3.7722   -2.1346 H         1 <0>         0.1731
     30 H10        -8.7565   -4.8172    2.1513 H         1 <0>         0.4443
     31 H11        -8.7403   -4.9520    0.4767 H         1 <0>         0.4322
     32 H12        -3.6702   -2.7989    3.6940 H         1 <0>         0.4436
     33 H13        -5.0682   -3.2495    4.5097 H         1 <0>         0.4352
     34 N6         -6.4355   -4.1331    0.0485 N.ar      1 <0>        -0.6055
     35 H14        -6.8949   -4.3762   -0.8059 H         1 <0>         0.4582
@<TRIPOS>BOND
     1    1    6 ar
     2    1    2 ar
     3    1   21 1
     4    2    3 ar
     5    2   22 1
     6    3    4 ar
     7    3   23 1
     8    4    5 ar
     9    4   20 1
    10    5    6 ar
    11    5    7 1
    12    6   24 1
    13    7    8 1
    14    7   25 1
    15    8    9 1
    16    8   26 1
    17    8   27 1
    18    9   14 ar
    19    9   10 ar
    20   10   11 ar
    21   10   28 1
    22   11   12 ar
    23   11   29 1
    24   12   13 ar
    25   12   34 ar
    26   13   14 ar
    27   13   15 ar
    28   15   16 ar
    29   15   19 1
    30   16   17 ar
    31   17   18 1
    32   17   34 ar
    33   18   30 1
    34   18   31 1
    35   19   32 1
    36   19   33 1
    37   34   35 1
@<TRIPOS>MOLECULE
ZINC03814906
   37    39     0     0     0
SMALL
USER_CHARGES

@<TRIPOS>ATOM
      1 C1         -1.3520   -1.5012   -1.2258 C.3       1 <0>         0.0248
      2 N1         -1.1976   -0.7208    0.0092 N.pl3     1 <0>        -0.4920
      3 C2         -1.2870   -1.5859    1.1931 C.3       1 <0>         0.1157
      4 C3         -2.6799   -2.1514    1.2981 C.ar      1 <0>         0.1125
      5 C4         -2.9452   -3.4079    0.7581 C.ar      1 <0>        -0.1113
      6 C5         -4.2017   -3.9389    0.8478 C.ar      1 <0>        -0.0837
      7 C6         -5.1968   -3.1777    1.4845 C.ar      1 <0>         0.1927
      8 C7         -4.8559   -1.9065    2.0050 C.ar      1 <0>        -0.0452
      9 N2         -3.6141   -1.4454    1.8912 N.ar      1 <0>        -0.4058
     10 C8         -5.9132   -1.1370    2.6626 C.ar      1 <0>         0.5337
     11 N3         -7.1209   -1.6792    2.7285 N.ar      1 <0>        -0.6307
     12 C9         -7.3693   -2.8807    2.2167 C.ar      1 <0>         0.6209
     13 N4         -6.4553   -3.6152    1.6153 N.ar      1 <0>        -0.6136
     14 N5         -8.6528   -3.3858    2.3212 N.pl3     1 <0>        -0.8159
     15 N6         -5.6616    0.1098    3.1948 N.pl3     1 <0>        -0.7965
     16 C10         0.0021   -0.0041    0.0020 C.ar      1 <0>         0.0951
     17 C11         1.2159   -0.6787   -0.0132 C.ar      1 <0>        -0.1375
     18 C12         2.3998    0.0326   -0.0207 C.ar      1 <0>        -0.1074
     19 C13         2.3781    1.4153   -0.0130 C.ar      1 <0>        -0.1082
     20 C14         1.1718    2.0910    0.0021 C.ar      1 <0>        -0.1087
     21 C15        -0.0168    1.3857    0.0097 C.ar      1 <0>        -0.0104
     22 Cl1        -1.5311    2.2344    0.0215 Cl        1 <0>        -0.0502
     23 H1         -0.5248   -2.2052   -1.3166 H         1 <0>         0.0349
     24 H2         -2.2936   -2.0492   -1.1940 H         1 <0>         0.0761
     25 H3         -1.3521   -0.8282   -2.0832 H         1 <0>         0.0727
     26 H4         -0.5696   -2.4015    1.1021 H         1 <0>         0.0585
     27 H5         -1.0631   -1.0031    2.0866 H         1 <0>         0.0949
     28 H6         -2.1573   -3.9642    0.2721 H         1 <0>         0.1401
     29 H7         -4.4241   -4.9130    0.4379 H         1 <0>         0.1483
     30 H8         -9.3446   -2.8658    2.7594 H         1 <0>         0.4141
     31 H9         -8.8611   -4.2601    1.9562 H         1 <0>         0.4166
     32 H10        -4.7716    0.4912    3.1370 H         1 <0>         0.4259
     33 H11        -6.3746    0.6055    3.6271 H         1 <0>         0.4131
     34 H12         1.2341   -1.7586   -0.0195 H         1 <0>         0.1288
     35 H13         3.3439   -0.4919   -0.0329 H         1 <0>         0.1291
     36 H14         3.3055    1.9687   -0.0193 H         1 <0>         0.1328
     37 H15         1.1584    3.1709    0.0080 H         1 <0>         0.1361
@<TRIPOS>BOND
     1    1    2 1
     2    1   23 1
     3    1   24 1
     4    1   25 1
     5    2    3 1
     6    2   16 1
     7    3    4 1
     8    3   26 1
     9    3   27 1
    10    4    9 ar
    11    4    5 ar
    12    5    6 ar
    13    5   28 1
    14    6    7 ar
    15    6   29 1
    16    7   13 ar
    17    7    8 ar
    18    8    9 ar
    19    8   10 ar
    20   10   11 ar
    21   10   15 1
    22   11   12 ar
    23   12   13 ar
    24   12   14 1
    25   14   30 1
    26   14   31 1
    27   15   32 1
    28   15   33 1
    29   16   21 ar
    30   16   17 ar
    31   17   18 ar
    32   17   34 1
    33   18   19 ar
    34   18   35 1
    35   19   20 ar
    36   19   36 1
    37   20   21 ar
    38   20   37 1
    39   21   22 1
@<TRIPOS>MOLECULE
ZINC03814906
   38    40     0     0     0
SMALL
USER_CHARGES

@<TRIPOS>ATOM
      1 C1         -1.3520   -1.5012   -1.2258 C.3       1 <0>         0.0199
      2 N1         -1.1976   -0.7208    0.0092 N.pl3     1 <0>        -0.4897
      3 C2         -1.2870   -1.5859    1.1931 C.3       1 <0>         0.0989
      4 C3         -2.6799   -2.1514    1.2981 C.ar      1 <0>         0.1596
      5 C4         -2.9452   -3.4079    0.7581 C.ar      1 <0>        -0.0780
      6 C5         -4.2017   -3.9389    0.8478 C.ar      1 <0>        -0.0943
      7 C6         -5.1968   -3.1777    1.4845 C.ar      1 <0>         0.1390
      8 C7         -4.8559   -1.9065    2.0050 C.ar      1 <0>         0.0310
      9 N2         -3.6141   -1.4454    1.8912 N.ar      1 <0>        -0.3929
     10 C8         -5.9132   -1.1370    2.6626 C.ar      1 <0>         0.5757
     11 N3         -7.1209   -1.6792    2.7285 N.ar      1 <0>        -0.5804
     12 C9         -7.3693   -2.8807    2.2167 C.ar      1 <0>         0.7010
     13 N4         -8.6528   -3.3858    2.3212 N.pl3     1 <0>        -0.7854
     14 N5         -5.6616    0.1098    3.1948 N.pl3     1 <0>        -0.7348
     15 C10         0.0021   -0.0041    0.0020 C.ar      1 <0>         0.0828
     16 C11         1.2159   -0.6787   -0.0132 C.ar      1 <0>        -0.1354
     17 C12         2.3998    0.0326   -0.0207 C.ar      1 <0>        -0.1043
     18 C13         2.3781    1.4153   -0.0130 C.ar      1 <0>        -0.0997
     19 C14         1.1718    2.0910    0.0021 C.ar      1 <0>        -0.1061
     20 C15        -0.0168    1.3857    0.0097 C.ar      1 <0>        -0.0073
     21 Cl1        -1.5311    2.2344    0.0215 Cl        1 <0>        -0.0524
     22 H1         -0.5248   -2.2052   -1.3166 H         1 <0>         0.0417
     23 H2         -2.2936   -2.0492   -1.1940 H         1 <0>         0.0687
     24 H3         -1.3521   -0.8282   -2.0832 H         1 <0>         0.0809
     25 H4         -0.5696   -2.4015    1.1021 H         1 <0>         0.0729
     26 H5         -1.0631   -1.0031    2.0866 H         1 <0>         0.1081
     27 H6         -2.1573   -3.9642    0.2721 H         1 <0>         0.1662
     28 H7         -4.4241   -4.9130    0.4379 H         1 <0>         0.1702
     29 H8         -9.3446   -2.8658    2.7594 H         1 <0>         0.4436
     30 H9         -8.8611   -4.2601    1.9562 H         1 <0>         0.4314
     31 H10        -4.7716    0.4912    3.1370 H         1 <0>         0.4442
     32 H11        -6.3746    0.6055    3.6271 H         1 <0>         0.4341
     33 H12         1.2341   -1.7586   -0.0195 H         1 <0>         0.1292
     34 H13         3.3439   -0.4919   -0.0329 H         1 <0>         0.1330
     35 H14         3.3055    1.9687   -0.0193 H         1 <0>         0.1373
     36 H15         1.1584    3.1709    0.0080 H         1 <0>         0.1397
     37 N6         -6.4743   -3.6824    1.5881 N.ar      1 <0>        -0.6053
     38 H16        -6.6877   -4.5841    1.2121 H         1 <0>         0.4568
@<TRIPOS>BOND
     1    1    2 1
     2    1   22 1
     3    1   23 1
     4    1   24 1
     5    2    3 1
     6    2   15 1
     7    3    4 1
     8    3   25 1
     9    3   26 1
    10    4    9 ar
    11    4    5 ar
    12    5    6 ar
    13    5   27 1
    14    6    7 ar
    15    6   28 1
    16    7    8 ar
    17    7   37 ar
    18    8    9 ar
    19    8   10 ar
    20   10   11 ar
    21   10   14 1
    22   11   12 ar
    23   12   13 1
    24   12   37 ar
    25   13   29 1
    26   13   30 1
    27   14   31 1
    28   14   32 1
    29   15   20 ar
    30   15   16 ar
    31   16   17 ar
    32   16   33 1
    33   17   18 ar
    34   17   34 1
    35   18   19 ar
    36   18   35 1
    37   19   20 ar
    38   19   36 1
    39   20   21 1
    40   37   38 1
@<TRIPOS>MOLECULE
ZINC03814907
   34    36     0     0     0
SMALL
USER_CHARGES

@<TRIPOS>ATOM
      1 C1          1.1760    1.7818    0.0004 C.ar      1 <0>        -0.0582
      2 C2          1.1610    3.1631    0.0075 C.ar      1 <0>        -0.1912
      3 C3         -0.0499    3.8434    0.0227 C.ar      1 <0>         0.2311
      4 C4         -1.2430    3.1319    0.0307 C.ar      1 <0>        -0.1926
      5 C5         -1.2215    1.7501    0.0174 C.ar      1 <0>         0.0150
      6 C6         -0.0126    1.0758    0.0080 C.ar      1 <0>        -0.1709
      7 Cl1        -2.7115    0.8594    0.0190 Cl        1 <0>        -0.0715
      8 N1         -0.0679    5.2399    0.0295 N.pl3     1 <0>        -0.7372
      9 C7         -1.3459    5.9560    0.0455 C.3       1 <0>         0.1819
     10 C8         -1.0897    7.4410    0.0500 C.ar      1 <0>         0.0834
     11 C9         -1.0851    8.1330   -1.1592 C.ar      1 <0>        -0.1006
     12 C10        -0.8589    9.4811   -1.1743 C.ar      1 <0>        -0.0839
     13 C11        -0.6261   10.1258    0.0526 C.ar      1 <0>         0.1994
     14 C12        -0.6405    9.3577    1.2413 C.ar      1 <0>        -0.0498
     15 N2         -0.8712    8.0492    1.1924 N.ar      1 <0>        -0.4116
     16 C13        -0.3948   10.0567    2.5036 C.ar      1 <0>         0.5347
     17 N3         -0.1749   11.3628    2.4529 N.ar      1 <0>        -0.6294
     18 C14        -0.1762   12.0209    1.2978 C.ar      1 <0>         0.6239
     19 N4         -0.3919   11.4414    0.1340 N.ar      1 <0>        -0.6131
     20 N5          0.0605   13.3836    1.3186 N.pl3     1 <0>        -0.8134
     21 N6         -0.3917    9.3795    3.7046 N.pl3     1 <0>        -0.7960
     22 H1          2.1174    1.2528   -0.0114 H         1 <0>         0.1311
     23 H2          2.0901    3.7136    0.0009 H         1 <0>         0.1251
     24 H3         -2.1861    3.6579    0.0430 H         1 <0>         0.1317
     25 H4          0.0021   -0.0041    0.0020 H         1 <0>         0.1293
     26 H5          0.7657    5.7358    0.0235 H         1 <0>         0.4031
     27 H6         -1.9229    5.6895   -0.8400 H         1 <0>         0.0802
     28 H7         -1.9052    5.6811    0.9398 H         1 <0>         0.0795
     29 H8         -1.2640    7.6051   -2.0842 H         1 <0>         0.1459
     30 H9         -0.8553   10.0338   -2.1021 H         1 <0>         0.1511
     31 H10         0.2220   13.8350    2.1619 H         1 <0>         0.4151
     32 H11         0.0651   13.8878    0.4900 H         1 <0>         0.4177
     33 H12        -0.5543    8.4234    3.7226 H         1 <0>         0.4253
     34 H13        -0.2271    9.8591    4.5314 H         1 <0>         0.4145
@<TRIPOS>BOND
     1    1    6 ar
     2    1    2 ar
     3    1   22 1
     4    2    3 ar
     5    2   23 1
     6    3    4 ar
     7    3    8 1
     8    4    5 ar
     9    4   24 1
    10    5    6 ar
    11    5    7 1
    12    6   25 1
    13    8    9 1
    14    8   26 1
    15    9   10 1
    16    9   27 1
    17    9   28 1
    18   10   15 ar
    19   10   11 ar
    20   11   12 ar
    21   11   29 1
    22   12   13 ar
    23   12   30 1
    24   13   19 ar
    25   13   14 ar
    26   14   15 ar
    27   14   16 ar
    28   16   17 ar
    29   16   21 1
    30   17   18 ar
    31   18   19 ar
    32   18   20 1
    33   20   31 1
    34   20   32 1
    35   21   33 1
    36   21   34 1
@<TRIPOS>MOLECULE
ZINC03814907
   35    37     0     0     0
SMALL
USER_CHARGES

@<TRIPOS>ATOM
      1 C1          1.1760    1.7818    0.0004 C.ar      1 <0>        -0.0574
      2 C2          1.1610    3.1631    0.0075 C.ar      1 <0>        -0.1847
      3 C3         -0.0499    3.8434    0.0227 C.ar      1 <0>         0.2209
      4 C4         -1.2430    3.1319    0.0307 C.ar      1 <0>        -0.1888
      5 C5         -1.2215    1.7501    0.0174 C.ar      1 <0>         0.0125
      6 C6         -0.0126    1.0758    0.0080 C.ar      1 <0>        -0.1596
      7 Cl1        -2.7115    0.8594    0.0190 Cl        1 <0>        -0.0629
      8 N1         -0.0679    5.2399    0.0295 N.pl3     1 <0>        -0.7441
      9 C7         -1.3459    5.9560    0.0455 C.3       1 <0>         0.1710
     10 C8         -1.0897    7.4410    0.0500 C.ar      1 <0>         0.1309
     11 C9         -1.0851    8.1330   -1.1592 C.ar      1 <0>        -0.0648
     12 C10        -0.8589    9.4811   -1.1743 C.ar      1 <0>        -0.0946
     13 C11        -0.6261   10.1258    0.0526 C.ar      1 <0>         0.1470
     14 C12        -0.6405    9.3577    1.2413 C.ar      1 <0>         0.0271
     15 N2         -0.8712    8.0492    1.1924 N.ar      1 <0>        -0.3989
     16 C13        -0.3948   10.0567    2.5036 C.ar      1 <0>         0.5757
     17 N3         -0.1749   11.3628    2.4529 N.ar      1 <0>        -0.5789
     18 C14        -0.1762   12.0209    1.2978 C.ar      1 <0>         0.7018
     19 N4          0.0605   13.3836    1.3186 N.pl3     1 <0>        -0.7828
     20 N5         -0.3917    9.3795    3.7046 N.pl3     1 <0>        -0.7346
     21 H1          2.1174    1.2528   -0.0114 H         1 <0>         0.1351
     22 H2          2.0901    3.7136    0.0009 H         1 <0>         0.1261
     23 H3         -2.1861    3.6579    0.0430 H         1 <0>         0.1313
     24 H4          0.0021   -0.0041    0.0020 H         1 <0>         0.1338
     25 H5          0.7657    5.7358    0.0235 H         1 <0>         0.4024
     26 H6         -1.9229    5.6895   -0.8400 H         1 <0>         0.0925
     27 H7         -1.9052    5.6811    0.9398 H         1 <0>         0.0909
     28 H8         -1.2640    7.6051   -2.0842 H         1 <0>         0.1720
     29 H9         -0.8553   10.0338   -2.1021 H         1 <0>         0.1729
     30 H10         0.2220   13.8350    2.1619 H         1 <0>         0.4444
     31 H11         0.0651   13.8878    0.4900 H         1 <0>         0.4323
     32 H12        -0.5543    8.4234    3.7226 H         1 <0>         0.4436
     33 H13        -0.2271    9.8591    4.5314 H         1 <0>         0.4353
     34 N6         -0.3910   11.4829    0.0716 N.ar      1 <0>        -0.6056
     35 H14        -0.3871   12.0017   -0.7832 H         1 <0>         0.4582
@<TRIPOS>BOND
     1    1    6 ar
     2    1    2 ar
     3    1   21 1
     4    2    3 ar
     5    2   22 1
     6    3    4 ar
     7    3    8 1
     8    4    5 ar
     9    4   23 1
    10    5    6 ar
    11    5    7 1
    12    6   24 1
    13    8    9 1
    14    8   25 1
    15    9   10 1
    16    9   26 1
    17    9   27 1
    18   10   15 ar
    19   10   11 ar
    20   11   12 ar
    21   11   28 1
    22   12   13 ar
    23   12   29 1
    24   13   14 ar
    25   13   34 ar
    26   14   15 ar
    27   14   16 ar
    28   16   17 ar
    29   16   20 1
    30   17   18 ar
    31   18   19 1
    32   18   34 ar
    33   19   30 1
    34   19   31 1
    35   20   32 1
    36   20   33 1
    37   34   35 1
@<TRIPOS>MOLECULE
ZINC03814908
   42    44     0     0     0
SMALL
USER_CHARGES

@<TRIPOS>ATOM
      1 C1          3.5363    3.0972   -0.0160 C.3       1 <0>         0.0292
      2 O1          2.3295    3.8624   -0.0004 O.3       1 <0>        -0.3208
      3 C2          1.1593    3.1696    0.0076 C.ar      1 <0>         0.1089
      4 C3          1.1752    1.7828    0.0004 C.ar      1 <0>        -0.1930
      5 C4         -0.0126    1.0758    0.0080 C.ar      1 <0>        -0.1282
      6 C5         -1.2230    1.7525    0.0174 C.ar      1 <0>         0.1646
      7 C6         -1.2406    3.1451    0.0303 C.ar      1 <0>         0.0955
      8 C7         -0.0488    3.8506    0.0223 C.ar      1 <0>        -0.1954
      9 O2         -2.4263    3.8112    0.0448 O.3       1 <0>        -0.3173
     10 C8         -2.3682    5.2390    0.0510 C.3       1 <0>         0.0296
     11 N1         -2.4280    1.0353    0.0187 N.pl3     1 <0>        -0.7395
     12 C9         -2.4087   -0.4296    0.0101 C.3       1 <0>         0.1874
     13 C10        -3.8227   -0.9507    0.0134 C.ar      1 <0>         0.0875
     14 C11        -4.4308   -1.2726   -1.1980 C.ar      1 <0>        -0.1002
     15 C12        -5.7112   -1.7509   -1.2141 C.ar      1 <0>        -0.0846
     16 C13        -6.3792   -1.8924    0.0141 C.ar      1 <0>         0.1976
     17 C14        -5.7006   -1.5406    1.2052 C.ar      1 <0>        -0.0489
     18 N2         -4.4524   -1.0849    1.1572 N.ar      1 <0>        -0.4121
     19 C15        -6.4219   -1.6987    2.4690 C.ar      1 <0>         0.5343
     20 N3         -7.6631   -2.1608    2.4173 N.ar      1 <0>        -0.6298
     21 C16        -8.2385   -2.4718    1.2600 C.ar      1 <0>         0.6227
     22 N4         -7.6352   -2.3492    0.0948 N.ar      1 <0>        -0.6130
     23 N5         -9.5367   -2.9489    1.2798 N.pl3     1 <0>        -0.8144
     24 N6         -5.8305   -1.3774    3.6724 N.pl3     1 <0>        -0.7964
     25 H1          3.5593    2.4732   -0.9094 H         1 <0>         0.0545
     26 H2          4.3934    3.7706   -0.0209 H         1 <0>         0.0980
     27 H3          3.5767    2.4642    0.8705 H         1 <0>         0.0544
     28 H4          2.1171    1.2545   -0.0114 H         1 <0>         0.1288
     29 H5          0.0021   -0.0041    0.0020 H         1 <0>         0.1319
     30 H6         -0.0602    4.9305    0.0271 H         1 <0>         0.1356
     31 H7         -1.8316    5.5770    0.9375 H         1 <0>         0.0558
     32 H8         -1.8486    5.5854   -0.8424 H         1 <0>         0.0561
     33 H9         -3.3802    5.6437    0.0626 H         1 <0>         0.0988
     34 H10        -3.2744    1.5091    0.0253 H         1 <0>         0.4048
     35 H11        -1.8941   -0.7809   -0.8843 H         1 <0>         0.0757
     36 H12        -1.8860   -0.7912    0.8956 H         1 <0>         0.0751
     37 H13        -3.8892   -1.1479   -2.1240 H         1 <0>         0.1455
     38 H14        -6.1966   -2.0087   -2.1438 H         1 <0>         0.1504
     39 H15       -10.0038   -3.0491    2.1241 H         1 <0>         0.4147
     40 H16        -9.9801   -3.1833    0.4495 H         1 <0>         0.4173
     41 H17        -4.9212   -1.0402    3.6911 H         1 <0>         0.4254
     42 H18        -6.3237   -1.4886    4.5002 H         1 <0>         0.4140
@<TRIPOS>BOND
     1    1    2 1
     2    1   25 1
     3    1   26 1
     4    1   27 1
     5    2    3 1
     6    3    8 ar
     7    3    4 ar
     8    4    5 ar
     9    4   28 1
    10    5    6 ar
    11    5   29 1
    12    6    7 ar
    13    6   11 1
    14    7    8 ar
    15    7    9 1
    16    8   30 1
    17    9   10 1
    18   10   31 1
    19   10   32 1
    20   10   33 1
    21   11   12 1
    22   11   34 1
    23   12   13 1
    24   12   35 1
    25   12   36 1
    26   13   18 ar
    27   13   14 ar
    28   14   15 ar
    29   14   37 1
    30   15   16 ar
    31   15   38 1
    32   16   22 ar
    33   16   17 ar
    34   17   18 ar
    35   17   19 ar
    36   19   20 ar
    37   19   24 1
    38   20   21 ar
    39   21   22 ar
    40   21   23 1
    41   23   39 1
    42   23   40 1
    43   24   41 1
    44   24   42 1
@<TRIPOS>MOLECULE
ZINC03814908
   43    45     0     0     0
SMALL
USER_CHARGES

@<TRIPOS>ATOM
      1 C1          3.5363    3.0972   -0.0160 C.3       1 <0>         0.0275
      2 O1          2.3295    3.8624   -0.0004 O.3       1 <0>        -0.3178
      3 C2          1.1593    3.1696    0.0076 C.ar      1 <0>         0.1229
      4 C3          1.1752    1.7828    0.0004 C.ar      1 <0>        -0.1966
      5 C4         -0.0126    1.0758    0.0080 C.ar      1 <0>        -0.1207
      6 C5         -1.2230    1.7525    0.0174 C.ar      1 <0>         0.1504
      7 C6         -1.2406    3.1451    0.0303 C.ar      1 <0>         0.1034
      8 C7         -0.0488    3.8506    0.0223 C.ar      1 <0>        -0.1976
      9 O2         -2.4263    3.8112    0.0448 O.3       1 <0>        -0.3209
     10 C8         -2.3682    5.2390    0.0510 C.3       1 <0>         0.0280
     11 N1         -2.4280    1.0353    0.0187 N.pl3     1 <0>        -0.7455
     12 C9         -2.4087   -0.4296    0.0101 C.3       1 <0>         0.1764
     13 C10        -3.8227   -0.9507    0.0134 C.ar      1 <0>         0.1345
     14 C11        -4.4308   -1.2726   -1.1980 C.ar      1 <0>        -0.0646
     15 C12        -5.7112   -1.7509   -1.2141 C.ar      1 <0>        -0.0953
     16 C13        -6.3792   -1.8924    0.0141 C.ar      1 <0>         0.1450
     17 C14        -5.7006   -1.5406    1.2052 C.ar      1 <0>         0.0273
     18 N2         -4.4524   -1.0849    1.1572 N.ar      1 <0>        -0.3990
     19 C15        -6.4219   -1.6987    2.4690 C.ar      1 <0>         0.5759
     20 N3         -7.6631   -2.1608    2.4173 N.ar      1 <0>        -0.5796
     21 C16        -8.2385   -2.4718    1.2600 C.ar      1 <0>         0.7016
     22 N4         -9.5367   -2.9489    1.2798 N.pl3     1 <0>        -0.7839
     23 N5         -5.8305   -1.3774    3.6724 N.pl3     1 <0>        -0.7350
     24 H1          3.5593    2.4732   -0.9094 H         1 <0>         0.0564
     25 H2          4.3934    3.7706   -0.0209 H         1 <0>         0.1020
     26 H3          3.5767    2.4642    0.8705 H         1 <0>         0.0562
     27 H4          2.1171    1.2545   -0.0114 H         1 <0>         0.1322
     28 H5          0.0021   -0.0041    0.0020 H         1 <0>         0.1314
     29 H6         -0.0602    4.9305    0.0271 H         1 <0>         0.1390
     30 H7         -1.8316    5.5770    0.9375 H         1 <0>         0.0584
     31 H8         -1.8486    5.5854   -0.8424 H         1 <0>         0.0588
     32 H9         -3.3802    5.6437    0.0626 H         1 <0>         0.1004
     33 H10        -3.2744    1.5091    0.0253 H         1 <0>         0.4040
     34 H11        -1.8941   -0.7809   -0.8843 H         1 <0>         0.0879
     35 H12        -1.8860   -0.7912    0.8956 H         1 <0>         0.0865
     36 H13        -3.8892   -1.1479   -2.1240 H         1 <0>         0.1716
     37 H14        -6.1966   -2.0087   -2.1438 H         1 <0>         0.1721
     38 H15       -10.0038   -3.0491    2.1241 H         1 <0>         0.4440
     39 H16        -9.9801   -3.1833    0.4495 H         1 <0>         0.4319
     40 H17        -4.9212   -1.0402    3.6911 H         1 <0>         0.4437
     41 H18        -6.3237   -1.4886    4.5002 H         1 <0>         0.4347
     42 N6         -7.6720   -2.3681    0.0323 N.ar      1 <0>        -0.6054
     43 H19        -8.1278   -2.6101   -0.8242 H         1 <0>         0.4578
@<TRIPOS>BOND
     1    1    2 1
     2    1   24 1
     3    1   25 1
     4    1   26 1
     5    2    3 1
     6    3    8 ar
     7    3    4 ar
     8    4    5 ar
     9    4   27 1
    10    5    6 ar
    11    5   28 1
    12    6    7 ar
    13    6   11 1
    14    7    8 ar
    15    7    9 1
    16    8   29 1
    17    9   10 1
    18   10   30 1
    19   10   31 1
    20   10   32 1
    21   11   12 1
    22   11   33 1
    23   12   13 1
    24   12   34 1
    25   12   35 1
    26   13   18 ar
    27   13   14 ar
    28   14   15 ar
    29   14   36 1
    30   15   16 ar
    31   15   37 1
    32   16   17 ar
    33   16   42 ar
    34   17   18 ar
    35   17   19 ar
    36   19   20 ar
    37   19   23 1
    38   20   21 ar
    39   21   22 1
    40   21   42 ar
    41   22   38 1
    42   22   39 1
    43   23   40 1
    44   23   41 1
    45   42   43 1
@<TRIPOS>MOLECULE
ZINC03814909
   45    47     0     0     0
SMALL
USER_CHARGES

@<TRIPOS>ATOM
      1 C1         -2.5781    0.2557   -1.2172 C.3       1 <0>         0.0253
      2 N1         -2.4280    1.0353    0.0187 N.pl3     1 <0>        -0.4786
      3 C2         -2.5243    0.1700    1.2019 C.3       1 <0>         0.1145
      4 C3         -3.9187   -0.3932    1.3003 C.ar      1 <0>         0.1151
      5 C4         -4.1837   -1.6491    0.7587 C.ar      1 <0>        -0.1116
      6 C5         -5.4414   -2.1780    0.8423 C.ar      1 <0>        -0.0843
      7 C6         -6.4381   -1.4154    1.4748 C.ar      1 <0>         0.1909
      8 C7         -6.0975   -0.1449    1.9973 C.ar      1 <0>        -0.0449
      9 N2         -4.8544    0.3141    1.8894 N.ar      1 <0>        -0.4070
     10 C8         -7.1565    0.6262    2.6503 C.ar      1 <0>         0.5333
     11 N3         -8.3654    0.0860    2.7105 N.ar      1 <0>        -0.6310
     12 C9         -8.6135   -1.1148    2.1971 C.ar      1 <0>         0.6198
     13 N4         -7.6980   -1.8508    1.5996 N.ar      1 <0>        -0.6135
     14 N5         -9.8984   -1.6179    2.2955 N.pl3     1 <0>        -0.8166
     15 N6         -6.9052    1.8723    3.1842 N.pl3     1 <0>        -0.7967
     16 C10        -1.2230    1.7525    0.0174 C.ar      1 <0>         0.0164
     17 C11        -0.0126    1.0758    0.0080 C.ar      1 <0>        -0.0686
     18 C12         1.1752    1.7828    0.0004 C.ar      1 <0>        -0.2370
     19 C13         1.1593    3.1696    0.0080 C.ar      1 <0>         0.1677
     20 C14        -0.0488    3.8506    0.0227 C.ar      1 <0>        -0.2423
     21 C15        -1.2406    3.1451    0.0303 C.ar      1 <0>         0.1953
     22 O1         -2.4263    3.8112    0.0448 O.3       1 <0>        -0.2864
     23 C16        -2.3682    5.2390    0.0515 C.3       1 <0>         0.0208
     24 O2          2.3295    3.8624    0.0006 O.3       1 <0>        -0.3160
     25 C17         3.5363    3.0972   -0.0151 C.3       1 <0>         0.0266
     26 H1         -1.7517   -0.4497   -1.3045 H         1 <0>         0.0310
     27 H2         -3.5208   -0.2908   -1.1900 H         1 <0>         0.0720
     28 H3         -2.5731    0.9290   -2.0744 H         1 <0>         0.0706
     29 H4         -1.8080   -0.6469    1.1140 H         1 <0>         0.0549
     30 H5         -2.3036    0.7520    2.0967 H         1 <0>         0.0934
     31 H6         -3.3945   -2.2066    0.2761 H         1 <0>         0.1400
     32 H7         -5.6636   -3.1516    0.4311 H         1 <0>         0.1479
     33 H8        -10.5912   -1.0969    2.7307 H         1 <0>         0.4138
     34 H9        -10.1065   -2.4916    1.9293 H         1 <0>         0.4163
     35 H10        -6.0143    2.2522    3.1306 H         1 <0>         0.4261
     36 H11        -7.6193    2.3691    3.6133 H         1 <0>         0.4127
     37 H12         0.0021   -0.0041    0.0020 H         1 <0>         0.1302
     38 H13         2.1171    1.2545   -0.0118 H         1 <0>         0.1304
     39 H14        -0.0602    4.9305    0.0279 H         1 <0>         0.1398
     40 H15        -1.8484    5.5857   -0.8417 H         1 <0>         0.0555
     41 H16        -3.3802    5.6437    0.0630 H         1 <0>         0.1011
     42 H17        -1.8318    5.5767    0.9382 H         1 <0>         0.0562
     43 H18         4.3934    3.7706   -0.0196 H         1 <0>         0.1018
     44 H19         3.5765    2.4639    0.8712 H         1 <0>         0.0577
     45 H20         3.5595    2.4735   -0.9087 H         1 <0>         0.0575
@<TRIPOS>BOND
     1    1    2 1
     2    1   26 1
     3    1   27 1
     4    1   28 1
     5    2    3 1
     6    2   16 1
     7    3    4 1
     8    3   29 1
     9    3   30 1
    10    4    9 ar
    11    4    5 ar
    12    5    6 ar
    13    5   31 1
    14    6    7 ar
    15    6   32 1
    16    7   13 ar
    17    7    8 ar
    18    8    9 ar
    19    8   10 ar
    20   10   11 ar
    21   10   15 1
    22   11   12 ar
    23   12   13 ar
    24   12   14 1
    25   14   33 1
    26   14   34 1
    27   15   35 1
    28   15   36 1
    29   16   21 ar
    30   16   17 ar
    31   17   18 ar
    32   17   37 1
    33   18   19 ar
    34   18   38 1
    35   19   20 ar
    36   19   24 1
    37   20   21 ar
    38   20   39 1
    39   21   22 1
    40   22   23 1
    41   23   40 1
    42   23   41 1
    43   23   42 1
    44   24   25 1
    45   25   43 1
    46   25   44 1
    47   25   45 1
@<TRIPOS>MOLECULE
ZINC03814909
   46    48     0     0     0
SMALL
USER_CHARGES

@<TRIPOS>ATOM
      1 C1         -2.5781    0.2557   -1.2172 C.3       1 <0>         0.0205
      2 N1         -2.4280    1.0353    0.0187 N.pl3     1 <0>        -0.4751
      3 C2         -2.5243    0.1700    1.2019 C.3       1 <0>         0.0975
      4 C3         -3.9187   -0.3932    1.3003 C.ar      1 <0>         0.1620
      5 C4         -4.1837   -1.6491    0.7587 C.ar      1 <0>        -0.0786
      6 C5         -5.4414   -2.1780    0.8423 C.ar      1 <0>        -0.0949
      7 C6         -6.4381   -1.4154    1.4748 C.ar      1 <0>         0.1368
      8 C7         -6.0975   -0.1449    1.9973 C.ar      1 <0>         0.0310
      9 N2         -4.8544    0.3141    1.8894 N.ar      1 <0>        -0.3935
     10 C8         -7.1565    0.6262    2.6503 C.ar      1 <0>         0.5758
     11 N3         -8.3654    0.0860    2.7105 N.ar      1 <0>        -0.5810
     12 C9         -8.6135   -1.1148    2.1971 C.ar      1 <0>         0.7007
     13 N4         -9.8984   -1.6179    2.2955 N.pl3     1 <0>        -0.7862
     14 N5         -6.9052    1.8723    3.1842 N.pl3     1 <0>        -0.7350
     15 C10        -1.2230    1.7525    0.0174 C.ar      1 <0>         0.0020
     16 C11        -0.0126    1.0758    0.0080 C.ar      1 <0>        -0.0656
     17 C12         1.1752    1.7828    0.0004 C.ar      1 <0>        -0.2357
     18 C13         1.1593    3.1696    0.0080 C.ar      1 <0>         0.1772
     19 C14        -0.0488    3.8506    0.0227 C.ar      1 <0>        -0.2420
     20 C15        -1.2406    3.1451    0.0303 C.ar      1 <0>         0.1988
     21 O1         -2.4263    3.8112    0.0448 O.3       1 <0>        -0.2917
     22 C16        -2.3682    5.2390    0.0515 C.3       1 <0>         0.0194
     23 O2          2.3295    3.8624    0.0006 O.3       1 <0>        -0.3129
     24 C17         3.5363    3.0972   -0.0151 C.3       1 <0>         0.0249
     25 H1         -1.7517   -0.4497   -1.3045 H         1 <0>         0.0375
     26 H2         -3.5208   -0.2908   -1.1900 H         1 <0>         0.0643
     27 H3         -2.5731    0.9290   -2.0744 H         1 <0>         0.0787
     28 H4         -1.8080   -0.6469    1.1140 H         1 <0>         0.0691
     29 H5         -2.3036    0.7520    2.0967 H         1 <0>         0.1064
     30 H6         -3.3945   -2.2066    0.2761 H         1 <0>         0.1659
     31 H7         -5.6636   -3.1516    0.4311 H         1 <0>         0.1696
     32 H8        -10.5912   -1.0969    2.7307 H         1 <0>         0.4433
     33 H9        -10.1065   -2.4916    1.9293 H         1 <0>         0.4311
     34 H10        -6.0143    2.2522    3.1306 H         1 <0>         0.4444
     35 H11        -7.6193    2.3691    3.6133 H         1 <0>         0.4336
     36 H12         0.0021   -0.0041    0.0020 H         1 <0>         0.1302
     37 H13         2.1171    1.2545   -0.0118 H         1 <0>         0.1338
     38 H14        -0.0602    4.9305    0.0279 H         1 <0>         0.1427
     39 H15        -1.8484    5.5857   -0.8417 H         1 <0>         0.0586
     40 H16        -3.3802    5.6437    0.0630 H         1 <0>         0.1021
     41 H17        -1.8318    5.5767    0.9382 H         1 <0>         0.0585
     42 H18         4.3934    3.7706   -0.0196 H         1 <0>         0.1056
     43 H19         3.5765    2.4639    0.8712 H         1 <0>         0.0593
     44 H20         3.5595    2.4735   -0.9087 H         1 <0>         0.0595
     45 N6         -7.7170   -1.9179    1.5723 N.ar      1 <0>        -0.6051
     46 H21        -7.9302   -2.8191    1.1949 H         1 <0>         0.4565
@<TRIPOS>BOND
     1    1    2 1
     2    1   25 1
     3    1   26 1
     4    1   27 1
     5    2    3 1
     6    2   15 1
     7    3    4 1
     8    3   28 1
     9    3   29 1
    10    4    9 ar
    11    4    5 ar
    12    5    6 ar
    13    5   30 1
    14    6    7 ar
    15    6   31 1
    16    7    8 ar
    17    7   45 ar
    18    8    9 ar
    19    8   10 ar
    20   10   11 ar
    21   10   14 1
    22   11   12 ar
    23   12   13 1
    24   12   45 ar
    25   13   32 1
    26   13   33 1
    27   14   34 1
    28   14   35 1
    29   15   20 ar
    30   15   16 ar
    31   16   17 ar
    32   16   36 1
    33   17   18 ar
    34   17   37 1
    35   18   19 ar
    36   18   23 1
    37   19   20 ar
    38   19   38 1
    39   20   21 1
    40   21   22 1
    41   22   39 1
    42   22   40 1
    43   22   41 1
    44   23   24 1
    45   24   42 1
    46   24   43 1
    47   24   44 1
    48   45   46 1
@<TRIPOS>MOLECULE
ZINC03814910
   45    47     0     0     0
SMALL
USER_CHARGES

@<TRIPOS>ATOM
      1 C1         -1.9479   -0.4810    1.2511 C.3       1 <0>         0.0239
      2 N1         -1.1995   -0.7215    0.0101 N.pl3     1 <0>        -0.4809
      3 C2         -2.0148   -0.3963   -1.1678 C.3       1 <0>         0.1137
      4 C3         -3.1740   -1.3551   -1.2567 C.ar      1 <0>         0.1149
      5 C4         -4.4010   -0.9901   -0.7069 C.ar      1 <0>        -0.1112
      6 C5         -5.4649   -1.8451   -0.7819 C.ar      1 <0>        -0.0841
      7 C6         -5.2726   -3.0854   -1.4140 C.ar      1 <0>         0.1914
      8 C7         -3.9968   -3.3908   -1.9451 C.ar      1 <0>        -0.0450
      9 N2         -3.0010   -2.5154   -1.8454 N.ar      1 <0>        -0.4066
     10 C8         -3.8267   -4.6900   -2.5975 C.ar      1 <0>         0.5334
     11 N3         -4.8773   -5.4965   -2.6493 N.ar      1 <0>        -0.6311
     12 C9         -6.0480   -5.1429   -2.1281 C.ar      1 <0>         0.6199
     13 N4         -6.2557   -3.9868   -1.5307 N.ar      1 <0>        -0.6134
     14 N5         -7.1022   -6.0340   -2.2178 N.pl3     1 <0>        -0.8165
     15 N6         -2.6148   -5.0624   -3.1394 N.pl3     1 <0>        -0.7968
     16 C10         0.0021   -0.0041    0.0020 C.ar      1 <0>         0.0941
     17 C11        -0.0167    1.3828    0.0096 C.ar      1 <0>        -0.1423
     18 C12         1.1753    2.0908    0.0021 C.ar      1 <0>         0.1001
     19 C13         2.3855    1.4132   -0.0136 C.ar      1 <0>        -0.1676
     20 C14         2.4067    0.0307   -0.0208 C.ar      1 <0>        -0.1666
     21 C15         1.2191   -0.6815   -0.0132 C.ar      1 <0>         0.1216
     22 O1          1.2411   -2.0422   -0.0212 O.3       1 <0>        -0.2918
     23 C16         2.5246   -2.6702   -0.0368 C.3       1 <0>         0.0235
     24 O2          1.1579    3.4504    0.0095 O.3       1 <0>        -0.3182
     25 C17         2.4228    4.1154    0.0010 C.3       1 <0>         0.0275
     26 H1         -2.1747    0.5816    1.3384 H         1 <0>         0.0347
     27 H2         -2.8772   -1.0504    1.2311 H         1 <0>         0.0742
     28 H3         -1.3472   -0.7956    2.1044 H         1 <0>         0.0720
     29 H4         -2.3919    0.6225   -1.0786 H         1 <0>         0.0583
     30 H5         -1.4041   -0.4802   -2.0668 H         1 <0>         0.0945
     31 H6         -4.5126   -0.0301   -0.2249 H         1 <0>         0.1407
     32 H7         -6.4241   -1.5768   -0.3643 H         1 <0>         0.1482
     33 H8         -6.9765   -6.8919   -2.6527 H         1 <0>         0.4138
     34 H9         -7.9672   -5.8010   -1.8458 H         1 <0>         0.4164
     35 H10        -1.8566   -4.4593   -3.0921 H         1 <0>         0.4260
     36 H11        -2.5205   -5.9274   -3.5681 H         1 <0>         0.4126
     37 H12        -0.9589    1.9106    0.0170 H         1 <0>         0.1358
     38 H13         3.3129    1.9666   -0.0198 H         1 <0>         0.1318
     39 H14         3.3504   -0.4942   -0.0326 H         1 <0>         0.1347
     40 H15         2.3992   -3.7530   -0.0418 H         1 <0>         0.0992
     41 H16         3.0684   -2.3633   -0.9302 H         1 <0>         0.0527
     42 H17         3.0851   -2.3735    0.8497 H         1 <0>         0.0520
     43 H18         2.9919    3.8249    0.8841 H         1 <0>         0.0550
     44 H19         2.9749    3.8345   -0.8958 H         1 <0>         0.0551
     45 H20         2.2662    5.1941    0.0083 H         1 <0>         0.1006
@<TRIPOS>BOND
     1    1    2 1
     2    1   26 1
     3    1   27 1
     4    1   28 1
     5    2    3 1
     6    2   16 1
     7    3    4 1
     8    3   29 1
     9    3   30 1
    10    4    9 ar
    11    4    5 ar
    12    5    6 ar
    13    5   31 1
    14    6    7 ar
    15    6   32 1
    16    7   13 ar
    17    7    8 ar
    18    8    9 ar
    19    8   10 ar
    20   10   11 ar
    21   10   15 1
    22   11   12 ar
    23   12   13 ar
    24   12   14 1
    25   14   33 1
    26   14   34 1
    27   15   35 1
    28   15   36 1
    29   16   21 ar
    30   16   17 ar
    31   17   18 ar
    32   17   37 1
    33   18   19 ar
    34   18   24 1
    35   19   20 ar
    36   19   38 1
    37   20   21 ar
    38   20   39 1
    39   21   22 1
    40   22   23 1
    41   23   40 1
    42   23   41 1
    43   23   42 1
    44   24   25 1
    45   25   43 1
    46   25   44 1
    47   25   45 1
@<TRIPOS>MOLECULE
ZINC03814910
   46    48     0     0     0
SMALL
USER_CHARGES

@<TRIPOS>ATOM
      1 C1         -1.9479   -0.4810    1.2511 C.3       1 <0>         0.0191
      2 N1         -1.1995   -0.7215    0.0101 N.pl3     1 <0>        -0.4779
      3 C2         -2.0148   -0.3963   -1.1678 C.3       1 <0>         0.0969
      4 C3         -3.1740   -1.3551   -1.2567 C.ar      1 <0>         0.1618
      5 C4         -4.4010   -0.9901   -0.7069 C.ar      1 <0>        -0.0780
      6 C5         -5.4649   -1.8451   -0.7819 C.ar      1 <0>        -0.0946
      7 C6         -5.2726   -3.0854   -1.4140 C.ar      1 <0>         0.1373
      8 C7         -3.9968   -3.3908   -1.9451 C.ar      1 <0>         0.0308
      9 N2         -3.0010   -2.5154   -1.8454 N.ar      1 <0>        -0.3931
     10 C8         -3.8267   -4.6900   -2.5975 C.ar      1 <0>         0.5759
     11 N3         -4.8773   -5.4965   -2.6493 N.ar      1 <0>        -0.5811
     12 C9         -6.0480   -5.1429   -2.1281 C.ar      1 <0>         0.7008
     13 N4         -7.1022   -6.0340   -2.2178 N.pl3     1 <0>        -0.7862
     14 N5         -2.6148   -5.0624   -3.1394 N.pl3     1 <0>        -0.7351
     15 C10         0.0021   -0.0041    0.0020 C.ar      1 <0>         0.0818
     16 C11        -0.0167    1.3828    0.0096 C.ar      1 <0>        -0.1425
     17 C12         1.1753    2.0908    0.0021 C.ar      1 <0>         0.1046
     18 C13         2.3855    1.4132   -0.0136 C.ar      1 <0>        -0.1609
     19 C14         2.4067    0.0307   -0.0208 C.ar      1 <0>        -0.1629
     20 C15         1.2191   -0.6815   -0.0132 C.ar      1 <0>         0.1231
     21 O1          1.2411   -2.0422   -0.0212 O.3       1 <0>        -0.2970
     22 C16         2.5246   -2.6702   -0.0368 C.3       1 <0>         0.0220
     23 O2          1.1579    3.4504    0.0095 O.3       1 <0>        -0.3172
     24 C17         2.4228    4.1154    0.0010 C.3       1 <0>         0.0257
     25 H1         -2.1747    0.5816    1.3384 H         1 <0>         0.0412
     26 H2         -2.8772   -1.0504    1.2311 H         1 <0>         0.0666
     27 H3         -1.3472   -0.7956    2.1044 H         1 <0>         0.0800
     28 H4         -2.3919    0.6225   -1.0786 H         1 <0>         0.0724
     29 H5         -1.4041   -0.4802   -2.0668 H         1 <0>         0.1076
     30 H6         -4.5126   -0.0301   -0.2249 H         1 <0>         0.1666
     31 H7         -6.4241   -1.5768   -0.3643 H         1 <0>         0.1699
     32 H8         -6.9765   -6.8919   -2.6527 H         1 <0>         0.4433
     33 H9         -7.9672   -5.8010   -1.8458 H         1 <0>         0.4312
     34 H10        -1.8566   -4.4593   -3.0921 H         1 <0>         0.4444
     35 H11        -2.5205   -5.9274   -3.5681 H         1 <0>         0.4336
     36 H12        -0.9589    1.9106    0.0170 H         1 <0>         0.1359
     37 H13         3.3129    1.9666   -0.0198 H         1 <0>         0.1357
     38 H14         3.3504   -0.4942   -0.0326 H         1 <0>         0.1378
     39 H15         2.3992   -3.7530   -0.0418 H         1 <0>         0.1002
     40 H16         3.0684   -2.3633   -0.9302 H         1 <0>         0.0550
     41 H17         3.0851   -2.3735    0.8497 H         1 <0>         0.0552
     42 H18         2.9919    3.8249    0.8841 H         1 <0>         0.0573
     43 H19         2.9749    3.8345   -0.8958 H         1 <0>         0.0572
     44 H20         2.2662    5.1941    0.0083 H         1 <0>         0.1040
     45 N6         -6.3236   -3.9716   -1.5030 N.ar      1 <0>        -0.6050
     46 H21        -7.2151   -3.7300   -1.1196 H         1 <0>         0.4566
@<TRIPOS>BOND
     1    1    2 1
     2    1   25 1
     3    1   26 1
     4    1   27 1
     5    2    3 1
     6    2   15 1
     7    3    4 1
     8    3   28 1
     9    3   29 1
    10    4    9 ar
    11    4    5 ar
    12    5    6 ar
    13    5   30 1
    14    6    7 ar
    15    6   31 1
    16    7    8 ar
    17    7   45 ar
    18    8    9 ar
    19    8   10 ar
    20   10   11 ar
    21   10   14 1
    22   11   12 ar
    23   12   13 1
    24   12   45 ar
    25   13   32 1
    26   13   33 1
    27   14   34 1
    28   14   35 1
    29   15   20 ar
    30   15   16 ar
    31   16   17 ar
    32   16   36 1
    33   17   18 ar
    34   17   23 1
    35   18   19 ar
    36   18   37 1
    37   19   20 ar
    38   19   38 1
    39   20   21 1
    40   21   22 1
    41   22   39 1
    42   22   40 1
    43   22   41 1
    44   23   24 1
    45   24   42 1
    46   24   43 1
    47   24   44 1
    48   45   46 1
@<TRIPOS>MOLECULE
ZINC03814911
   42    44     0     0     0
SMALL
USER_CHARGES

@<TRIPOS>ATOM
      1 C1          4.7646    1.3379   -0.0372 C.3       1 <0>         0.0285
      2 O1          3.5577    2.1028   -0.0211 O.3       1 <0>        -0.3113
      3 C2          2.3867    1.4092   -0.0132 C.ar      1 <0>         0.0417
      4 C3          2.4022    0.0239   -0.0207 C.ar      1 <0>        -0.1222
      5 C4          1.2139   -0.6819   -0.0132 C.ar      1 <0>        -0.1951
      6 C5          0.0021   -0.0041    0.0020 C.ar      1 <0>         0.2242
      7 C6         -0.0168    1.3840    0.0097 C.ar      1 <0>        -0.2479
      8 C7          1.1742    2.0914    0.0021 C.ar      1 <0>         0.1471
      9 O2          1.1583    3.4512    0.0091 O.3       1 <0>        -0.3046
     10 C8         -0.1224    4.0849    0.0243 C.3       1 <0>         0.0266
     11 N1         -1.2000   -0.7201    0.0092 N.pl3     1 <0>        -0.7407
     12 C9         -1.1801   -2.1850    0.0011 C.3       1 <0>         0.1858
     13 C10        -2.5939   -2.7066    0.0113 C.ar      1 <0>         0.0846
     14 C11        -3.2075   -3.0292   -1.1972 C.ar      1 <0>        -0.1008
     15 C12        -4.4879   -3.5080   -1.2072 C.ar      1 <0>        -0.0843
     16 C13        -5.1501   -3.6492    0.0242 C.ar      1 <0>         0.1986
     17 C14        -4.4661   -3.2966    1.2120 C.ar      1 <0>        -0.0497
     18 N2         -3.2183   -2.8405    1.1580 N.ar      1 <0>        -0.4121
     19 C15        -5.1815   -3.4545    2.4792 C.ar      1 <0>         0.5344
     20 N3         -6.4227   -3.9171    2.4334 N.ar      1 <0>        -0.6295
     21 C16        -7.0034   -4.2287    1.2789 C.ar      1 <0>         0.6235
     22 N4         -6.4055   -4.1064    0.1109 N.ar      1 <0>        -0.6131
     23 N5         -8.3013   -4.7063    1.3050 N.pl3     1 <0>        -0.8138
     24 N6         -4.5846   -3.1324    3.6797 N.pl3     1 <0>        -0.7962
     25 H1          4.7876    0.7142   -0.9308 H         1 <0>         0.0518
     26 H2          5.6216    2.0115   -0.0421 H         1 <0>         0.0973
     27 H3          4.8053    0.7046    0.8491 H         1 <0>         0.0517
     28 H4          3.3437   -0.5050   -0.0329 H         1 <0>         0.1343
     29 H5          1.2280   -1.7618   -0.0188 H         1 <0>         0.1261
     30 H6         -0.9590    1.9119    0.0170 H         1 <0>         0.1321
     31 H7         -0.6843    3.7900   -0.8620 H         1 <0>         0.0545
     32 H8         -0.6676    3.7810    0.9179 H         1 <0>         0.0542
     33 H9          0.0077    5.1671    0.0285 H         1 <0>         0.1000
     34 H10        -2.0466   -0.2466    0.0195 H         1 <0>         0.3994
     35 H11        -0.6696   -2.5365   -0.8955 H         1 <0>         0.0784
     36 H12        -0.6533   -2.5460    0.8844 H         1 <0>         0.0777
     37 H13        -2.6703   -2.9048   -2.1258 H         1 <0>         0.1457
     38 H14        -4.9775   -3.7664   -2.1345 H         1 <0>         0.1507
     39 H15        -8.7644   -4.8063    2.1514 H         1 <0>         0.4150
     40 H16        -8.7484   -4.9412    0.4768 H         1 <0>         0.4176
     41 H17        -3.6754   -2.7948    3.6941 H         1 <0>         0.4253
     42 H18        -5.0740   -3.2435    4.5098 H         1 <0>         0.4143
@<TRIPOS>BOND
     1    1    2 1
     2    1   25 1
     3    1   26 1
     4    1   27 1
     5    2    3 1
     6    3    8 ar
     7    3    4 ar
     8    4    5 ar
     9    4   28 1
    10    5    6 ar
    11    5   29 1
    12    6    7 ar
    13    6   11 1
    14    7    8 ar
    15    7   30 1
    16    8    9 1
    17    9   10 1
    18   10   31 1
    19   10   32 1
    20   10   33 1
    21   11   12 1
    22   11   34 1
    23   12   13 1
    24   12   35 1
    25   12   36 1
    26   13   18 ar
    27   13   14 ar
    28   14   15 ar
    29   14   37 1
    30   15   16 ar
    31   15   38 1
    32   16   22 ar
    33   16   17 ar
    34   17   18 ar
    35   17   19 ar
    36   19   20 ar
    37   19   24 1
    38   20   21 ar
    39   21   22 ar
    40   21   23 1
    41   23   39 1
    42   23   40 1
    43   24   41 1
    44   24   42 1
@<TRIPOS>MOLECULE
ZINC03814911
   43    45     0     0     0
SMALL
USER_CHARGES

@<TRIPOS>ATOM
      1 C1          4.7646    1.3379   -0.0372 C.3       1 <0>         0.0269
      2 O1          3.5577    2.1028   -0.0211 O.3       1 <0>        -0.3085
      3 C2          2.3867    1.4092   -0.0132 C.ar      1 <0>         0.0546
      4 C3          2.4022    0.0239   -0.0207 C.ar      1 <0>        -0.1251
      5 C4          1.2139   -0.6819   -0.0132 C.ar      1 <0>        -0.1907
      6 C5          0.0021   -0.0041    0.0020 C.ar      1 <0>         0.2124
      7 C6         -0.0168    1.3840    0.0097 C.ar      1 <0>        -0.2417
      8 C7          1.1742    2.0914    0.0021 C.ar      1 <0>         0.1473
      9 O2          1.1583    3.4512    0.0091 O.3       1 <0>        -0.3013
     10 C8         -0.1224    4.0849    0.0243 C.3       1 <0>         0.0264
     11 N1         -1.2000   -0.7201    0.0092 N.pl3     1 <0>        -0.7469
     12 C9         -1.1801   -2.1850    0.0011 C.3       1 <0>         0.1749
     13 C10        -2.5939   -2.7066    0.0113 C.ar      1 <0>         0.1319
     14 C11        -3.2075   -3.0292   -1.1972 C.ar      1 <0>        -0.0650
     15 C12        -4.4879   -3.5080   -1.2072 C.ar      1 <0>        -0.0950
     16 C13        -5.1501   -3.6492    0.0242 C.ar      1 <0>         0.1461
     17 C14        -4.4661   -3.2966    1.2120 C.ar      1 <0>         0.0270
     18 N2         -3.2183   -2.8405    1.1580 N.ar      1 <0>        -0.3992
     19 C15        -5.1815   -3.4545    2.4792 C.ar      1 <0>         0.5757
     20 N3         -6.4227   -3.9171    2.4334 N.ar      1 <0>        -0.5792
     21 C16        -7.0034   -4.2287    1.2789 C.ar      1 <0>         0.7017
     22 N4         -8.3013   -4.7063    1.3050 N.pl3     1 <0>        -0.7832
     23 N5         -4.5846   -3.1324    3.6797 N.pl3     1 <0>        -0.7349
     24 H1          4.7876    0.7142   -0.9308 H         1 <0>         0.0537
     25 H2          5.6216    2.0115   -0.0421 H         1 <0>         0.1012
     26 H3          4.8053    0.7046    0.8491 H         1 <0>         0.0535
     27 H4          3.3437   -0.5050   -0.0329 H         1 <0>         0.1375
     28 H5          1.2280   -1.7618   -0.0188 H         1 <0>         0.1254
     29 H6         -0.9590    1.9119    0.0170 H         1 <0>         0.1327
     30 H7         -0.6843    3.7900   -0.8620 H         1 <0>         0.0544
     31 H8         -0.6676    3.7810    0.9179 H         1 <0>         0.0540
     32 H9          0.0077    5.1671    0.0285 H         1 <0>         0.1031
     33 H10        -2.0466   -0.2466    0.0195 H         1 <0>         0.3985
     34 H11        -0.6696   -2.5365   -0.8955 H         1 <0>         0.0908
     35 H12        -0.6533   -2.5460    0.8844 H         1 <0>         0.0892
     36 H13        -2.6703   -2.9048   -2.1258 H         1 <0>         0.1718
     37 H14        -4.9775   -3.7664   -2.1345 H         1 <0>         0.1725
     38 H15        -8.7644   -4.8063    2.1514 H         1 <0>         0.4443
     39 H16        -8.7484   -4.9412    0.4768 H         1 <0>         0.4322
     40 H17        -3.6754   -2.7948    3.6941 H         1 <0>         0.4436
     41 H18        -5.0740   -3.2435    4.5098 H         1 <0>         0.4351
     42 N6         -6.4425   -4.1254    0.0486 N.ar      1 <0>        -0.6056
     43 H19        -6.9023   -4.3679   -0.8058 H         1 <0>         0.4581
@<TRIPOS>BOND
     1    1    2 1
     2    1   24 1
     3    1   25 1
     4    1   26 1
     5    2    3 1
     6    3    8 ar
     7    3    4 ar
     8    4    5 ar
     9    4   27 1
    10    5    6 ar
    11    5   28 1
    12    6    7 ar
    13    6   11 1
    14    7    8 ar
    15    7   29 1
    16    8    9 1
    17    9   10 1
    18   10   30 1
    19   10   31 1
    20   10   32 1
    21   11   12 1
    22   11   33 1
    23   12   13 1
    24   12   34 1
    25   12   35 1
    26   13   18 ar
    27   13   14 ar
    28   14   15 ar
    29   14   36 1
    30   15   16 ar
    31   15   37 1
    32   16   17 ar
    33   16   42 ar
    34   17   18 ar
    35   17   19 ar
    36   19   20 ar
    37   19   23 1
    38   20   21 ar
    39   21   22 1
    40   21   42 ar
    41   22   38 1
    42   22   39 1
    43   23   40 1
    44   23   41 1
    45   42   43 1
@<TRIPOS>MOLECULE
ZINC03814912
   45    47     0     0     0
SMALL
USER_CHARGES

@<TRIPOS>ATOM
      1 C1         -0.0001   -0.7297   -1.2707 C.3       1 <0>         0.0927
      2 N1          0.0021   -0.0041    0.0020 N.pl3     1 <0>        -0.6241
      3 C2         -0.0178    1.4608    0.0101 C.3       1 <0>         0.1804
      4 C3          1.3960    1.9824   -0.0006 C.ar      1 <0>         0.0823
      5 C4          1.9869    2.3181   -1.2168 C.ar      1 <0>        -0.1054
      6 C5          3.2669    2.7970   -1.2456 C.ar      1 <0>        -0.0851
      7 C6          3.9521    2.9251   -0.0254 C.ar      1 <0>         0.1932
      8 C7          3.2904    2.5596    1.1711 C.ar      1 <0>        -0.0457
      9 N2          2.0418    2.1040    1.1356 N.ar      1 <0>        -0.4113
     10 C8          4.0294    2.7039    2.4264 C.ar      1 <0>         0.5336
     11 N3          5.2696    3.1671    2.3623 N.ar      1 <0>        -0.6303
     12 C9          5.8286    3.4912    1.2006 C.ar      1 <0>         0.6210
     13 N4          5.2089    3.3814    0.0427 N.ar      1 <0>        -0.6138
     14 N5          7.1268    3.9686    1.2075 N.pl3     1 <0>        -0.8156
     15 N6          3.4550    2.3690    3.6342 N.pl3     1 <0>        -0.7967
     16 C10         0.0231   -0.7101    1.2099 C.ar      1 <0>         0.2203
     17 C11         0.0309   -0.0223    2.4162 C.ar      1 <0>        -0.1772
     18 C12         0.0464   -0.7183    3.6101 C.ar      1 <0>        -0.1283
     19 C13         0.0647   -2.1035    3.6059 C.ar      1 <0>         0.0437
     20 C14         0.0627   -2.7957    2.3989 C.ar      1 <0>         0.1410
     21 C15         0.0420   -2.0982    1.2023 C.ar      1 <0>        -0.2476
     22 O1          0.0808   -4.1554    2.3939 O.3       1 <0>        -0.3054
     23 C16         0.0770   -4.7997    1.1184 C.3       1 <0>         0.0274
     24 O2          0.0851   -2.7873    4.7824 O.3       1 <0>        -0.3114
     25 C17         0.0859   -2.0126    5.9831 C.3       1 <0>         0.0292
     26 H1          1.0269   -0.8956   -1.5960 H         1 <0>         0.0460
     27 H2         -0.4997   -1.6897   -1.1407 H         1 <0>         0.0674
     28 H3         -0.5291   -0.1436   -2.0222 H         1 <0>         0.0698
     29 H4         -0.5450    1.8219   -0.8730 H         1 <0>         0.0944
     30 H5         -0.5280    1.8123    0.9069 H         1 <0>         0.0938
     31 H6          1.4323    2.2035   -2.1365 H         1 <0>         0.1407
     32 H7          3.7391    3.0654   -2.1791 H         1 <0>         0.1475
     33 H8          7.6057    4.0595    2.0461 H         1 <0>         0.4142
     34 H9          7.5584    4.2124    0.3737 H         1 <0>         0.4167
     35 H10         2.5462    2.0311    3.6620 H         1 <0>         0.4244
     36 H11         3.9598    2.4711    4.4562 H         1 <0>         0.4132
     37 H12         0.0211    1.0577    2.4214 H         1 <0>         0.1335
     38 H13         0.0482   -0.1817    4.5473 H         1 <0>         0.1324
     39 H14         0.0408   -2.6337    0.2644 H         1 <0>         0.1342
     40 H15        -0.8221   -4.5167    0.5711 H         1 <0>         0.0538
     41 H16         0.9576   -4.4931    0.5539 H         1 <0>         0.0530
     42 H17         0.0927   -5.8807    1.2573 H         1 <0>         0.0997
     43 H18        -0.8123   -1.3960    6.0183 H         1 <0>         0.0517
     44 H19         0.1031   -2.6790    6.8455 H         1 <0>         0.0966
     45 H20         0.9675   -1.3718    6.0015 H         1 <0>         0.0503
@<TRIPOS>BOND
     1    1    2 1
     2    1   26 1
     3    1   27 1
     4    1   28 1
     5    2    3 1
     6    2   16 1
     7    3    4 1
     8    3   29 1
     9    3   30 1
    10    4    9 ar
    11    4    5 ar
    12    5    6 ar
    13    5   31 1
    14    6    7 ar
    15    6   32 1
    16    7   13 ar
    17    7    8 ar
    18    8    9 ar
    19    8   10 ar
    20   10   11 ar
    21   10   15 1
    22   11   12 ar
    23   12   13 ar
    24   12   14 1
    25   14   33 1
    26   14   34 1
    27   15   35 1
    28   15   36 1
    29   16   21 ar
    30   16   17 ar
    31   17   18 ar
    32   17   37 1
    33   18   19 ar
    34   18   38 1
    35   19   20 ar
    36   19   24 1
    37   20   21 ar
    38   20   22 1
    39   21   39 1
    40   22   23 1
    41   23   40 1
    42   23   41 1
    43   23   42 1
    44   24   25 1
    45   25   43 1
    46   25   44 1
    47   25   45 1
@<TRIPOS>MOLECULE
ZINC03814912
   46    48     0     0     0
SMALL
USER_CHARGES

@<TRIPOS>ATOM
      1 C1         -0.0001   -0.7297   -1.2707 C.3       1 <0>         0.0889
      2 N1          0.0021   -0.0041    0.0020 N.pl3     1 <0>        -0.6260
      3 C2         -0.0178    1.4608    0.0101 C.3       1 <0>         0.1691
      4 C3          1.3960    1.9824   -0.0006 C.ar      1 <0>         0.1279
      5 C4          1.9869    2.3181   -1.2168 C.ar      1 <0>        -0.0710
      6 C5          3.2669    2.7970   -1.2456 C.ar      1 <0>        -0.0956
      7 C6          3.9521    2.9251   -0.0254 C.ar      1 <0>         0.1393
      8 C7          3.2904    2.5596    1.1711 C.ar      1 <0>         0.0300
      9 N2          2.0418    2.1040    1.1356 N.ar      1 <0>        -0.3989
     10 C8          4.0294    2.7039    2.4264 C.ar      1 <0>         0.5757
     11 N3          5.2696    3.1671    2.3623 N.ar      1 <0>        -0.5802
     12 C9          5.8286    3.4912    1.2006 C.ar      1 <0>         0.7009
     13 N4          7.1268    3.9686    1.2075 N.pl3     1 <0>        -0.7851
     14 N5          3.4550    2.3690    3.6342 N.pl3     1 <0>        -0.7358
     15 C10         0.0231   -0.7101    1.2099 C.ar      1 <0>         0.2092
     16 C11         0.0309   -0.0223    2.4162 C.ar      1 <0>        -0.1842
     17 C12         0.0464   -0.7183    3.6101 C.ar      1 <0>        -0.1327
     18 C13         0.0647   -2.1035    3.6059 C.ar      1 <0>         0.0540
     19 C14         0.0627   -2.7957    2.3989 C.ar      1 <0>         0.1454
     20 C15         0.0420   -2.0982    1.2023 C.ar      1 <0>        -0.2418
     21 O1          0.0808   -4.1554    2.3939 O.3       1 <0>        -0.3019
     22 C16         0.0770   -4.7997    1.1184 C.3       1 <0>         0.0260
     23 O2          0.0851   -2.7873    4.7824 O.3       1 <0>        -0.3080
     24 C17         0.0859   -2.0126    5.9831 C.3       1 <0>         0.0283
     25 H1          1.0269   -0.8956   -1.5960 H         1 <0>         0.0465
     26 H2         -0.4997   -1.6897   -1.1407 H         1 <0>         0.0740
     27 H3         -0.5291   -0.1436   -2.0222 H         1 <0>         0.0734
     28 H4         -0.5450    1.8219   -0.8730 H         1 <0>         0.1079
     29 H5         -0.5280    1.8123    0.9069 H         1 <0>         0.1058
     30 H6          1.4323    2.2035   -2.1365 H         1 <0>         0.1667
     31 H7          3.7391    3.0654   -2.1791 H         1 <0>         0.1692
     32 H8          7.6057    4.0595    2.0461 H         1 <0>         0.4437
     33 H9          7.5584    4.2124    0.3737 H         1 <0>         0.4315
     34 H10         2.5462    2.0311    3.6620 H         1 <0>         0.4427
     35 H11         3.9598    2.4711    4.4562 H         1 <0>         0.4341
     36 H12         0.0211    1.0577    2.4214 H         1 <0>         0.1300
     37 H13         0.0482   -0.1817    4.5473 H         1 <0>         0.1347
     38 H14         0.0408   -2.6337    0.2644 H         1 <0>         0.1370
     39 H15        -0.8221   -4.5167    0.5711 H         1 <0>         0.0561
     40 H16         0.9576   -4.4931    0.5539 H         1 <0>         0.0533
     41 H17         0.0927   -5.8807    1.2573 H         1 <0>         0.1041
     42 H18        -0.8123   -1.3960    6.0183 H         1 <0>         0.0541
     43 H19         0.1031   -2.6790    6.8455 H         1 <0>         0.1009
     44 H20         0.9675   -1.3718    6.0015 H         1 <0>         0.0496
     45 N6          5.2448    3.4011   -0.0201 N.ar      1 <0>        -0.6054
     46 H21         5.6885    3.6527   -0.8802 H         1 <0>         0.4568
@<TRIPOS>BOND
     1    1    2 1
     2    1   25 1
     3    1   26 1
     4    1   27 1
     5    2    3 1
     6    2   15 1
     7    3    4 1
     8    3   28 1
     9    3   29 1
    10    4    9 ar
    11    4    5 ar
    12    5    6 ar
    13    5   30 1
    14    6    7 ar
    15    6   31 1
    16    7    8 ar
    17    7   45 ar
    18    8    9 ar
    19    8   10 ar
    20   10   11 ar
    21   10   14 1
    22   11   12 ar
    23   12   13 1
    24   12   45 ar
    25   13   32 1
    26   13   33 1
    27   14   34 1
    28   14   35 1
    29   15   20 ar
    30   15   16 ar
    31   16   17 ar
    32   16   36 1
    33   17   18 ar
    34   17   37 1
    35   18   19 ar
    36   18   23 1
    37   19   20 ar
    38   19   21 1
    39   20   38 1
    40   21   22 1
    41   22   39 1
    42   22   40 1
    43   22   41 1
    44   23   24 1
    45   24   42 1
    46   24   43 1
    47   24   44 1
    48   45   46 1
@<TRIPOS>MOLECULE
ZINC03814913
   34    36     0     0     0
SMALL
USER_CHARGES

@<TRIPOS>ATOM
      1 C1          1.1741    1.7834    0.0004 C.ar      1 <0>        -0.0522
      2 C2         -0.0126    1.0758    0.0080 C.ar      1 <0>        -0.1772
      3 C3         -1.2238    1.7541    0.0174 C.ar      1 <0>         0.2366
      4 C4         -1.2389    3.1441    0.0298 C.ar      1 <0>        -0.1047
      5 C5         -0.0490    3.8463    0.0218 C.ar      1 <0>        -0.0510
      6 C6          1.1567    3.1667    0.0071 C.ar      1 <0>        -0.0850
      7 Cl1         2.6500    4.0519   -0.0024 Cl        1 <0>        -0.0665
      8 Cl2        -2.7510    3.9967    0.0477 Cl        1 <0>        -0.0614
      9 N1         -2.4262    1.0405    0.0197 N.pl3     1 <0>        -0.7315
     10 C7         -2.4086   -0.4244    0.0121 C.3       1 <0>         0.1810
     11 C8         -3.8233   -0.9438    0.0164 C.ar      1 <0>         0.0806
     12 C9         -4.4322   -1.2658   -1.1945 C.ar      1 <0>        -0.1003
     13 C10        -5.7133   -1.7425   -1.2098 C.ar      1 <0>        -0.0836
     14 C11        -6.3810   -1.8824    0.0189 C.ar      1 <0>         0.2005
     15 C12        -5.7014   -1.5305    1.2094 C.ar      1 <0>        -0.0498
     16 N2         -4.4527   -1.0764    1.1606 N.ar      1 <0>        -0.4103
     17 C13        -6.4224   -1.6868    2.4736 C.ar      1 <0>         0.5351
     18 N3         -7.6642   -2.1474    2.4227 N.ar      1 <0>        -0.6292
     19 C14        -8.2404   -2.4585    1.2659 C.ar      1 <0>         0.6244
     20 N4         -7.6374   -2.3375    0.1003 N.ar      1 <0>        -0.6129
     21 N5         -9.5393   -2.9340    1.2866 N.pl3     1 <0>        -0.8132
     22 N6         -5.8301   -1.3653    3.6765 N.pl3     1 <0>        -0.7957
     23 H1          2.1165    1.2559   -0.0110 H         1 <0>         0.1393
     24 H2          0.0021   -0.0041    0.0020 H         1 <0>         0.1411
     25 H3         -0.0596    4.9262    0.0266 H         1 <0>         0.1424
     26 H4         -3.2720    1.5153    0.0262 H         1 <0>         0.4059
     27 H5         -1.8948   -0.7770   -0.8822 H         1 <0>         0.0838
     28 H6         -1.8861   -0.7861    0.8977 H         1 <0>         0.0830
     29 H7         -3.8908   -1.1425   -2.1208 H         1 <0>         0.1462
     30 H8         -6.1994   -2.0005   -2.1391 H         1 <0>         0.1515
     31 H9        -10.0061   -3.0330    2.1311 H         1 <0>         0.4152
     32 H10        -9.9832   -3.1684    0.4566 H         1 <0>         0.4178
     33 H11        -4.9204   -1.0292    3.6946 H         1 <0>         0.4253
     34 H12        -6.3232   -1.4754    4.5046 H         1 <0>         0.4147
@<TRIPOS>BOND
     1    1    6 ar
     2    1    2 ar
     3    1   23 1
     4    2    3 ar
     5    2   24 1
     6    3    4 ar
     7    3    9 1
     8    4    5 ar
     9    4    8 1
    10    5    6 ar
    11    5   25 1
    12    6    7 1
    13    9   10 1
    14    9   26 1
    15   10   11 1
    16   10   27 1
    17   10   28 1
    18   11   16 ar
    19   11   12 ar
    20   12   13 ar
    21   12   29 1
    22   13   14 ar
    23   13   30 1
    24   14   20 ar
    25   14   15 ar
    26   15   16 ar
    27   15   17 ar
    28   17   18 ar
    29   17   22 1
    30   18   19 ar
    31   19   20 ar
    32   19   21 1
    33   21   31 1
    34   21   32 1
    35   22   33 1
    36   22   34 1
@<TRIPOS>MOLECULE
ZINC03814913
   35    37     0     0     0
SMALL
USER_CHARGES

@<TRIPOS>ATOM
      1 C1          1.1741    1.7834    0.0004 C.ar      1 <0>        -0.0531
      2 C2         -0.0126    1.0758    0.0080 C.ar      1 <0>        -0.1725
      3 C3         -1.2238    1.7541    0.0174 C.ar      1 <0>         0.2265
      4 C4         -1.2389    3.1441    0.0298 C.ar      1 <0>        -0.0975
      5 C5         -0.0490    3.8463    0.0218 C.ar      1 <0>        -0.0520
      6 C6          1.1567    3.1667    0.0071 C.ar      1 <0>        -0.0752
      7 Cl1         2.6500    4.0519   -0.0024 Cl        1 <0>        -0.0553
      8 Cl2        -2.7510    3.9967    0.0477 Cl        1 <0>        -0.0604
      9 N1         -2.4262    1.0405    0.0197 N.pl3     1 <0>        -0.7401
     10 C7         -2.4086   -0.4244    0.0121 C.3       1 <0>         0.1707
     11 C8         -3.8233   -0.9438    0.0164 C.ar      1 <0>         0.1283
     12 C9         -4.4322   -1.2658   -1.1945 C.ar      1 <0>        -0.0644
     13 C10        -5.7133   -1.7425   -1.2098 C.ar      1 <0>        -0.0943
     14 C11        -6.3810   -1.8824    0.0189 C.ar      1 <0>         0.1483
     15 C12        -5.7014   -1.5305    1.2094 C.ar      1 <0>         0.0271
     16 N2         -4.4527   -1.0764    1.1606 N.ar      1 <0>        -0.3978
     17 C13        -6.4224   -1.6868    2.4736 C.ar      1 <0>         0.5759
     18 N3         -7.6642   -2.1474    2.4227 N.ar      1 <0>        -0.5786
     19 C14        -8.2404   -2.4585    1.2659 C.ar      1 <0>         0.7020
     20 N4         -9.5393   -2.9340    1.2866 N.pl3     1 <0>        -0.7826
     21 N5         -5.8301   -1.3653    3.6765 N.pl3     1 <0>        -0.7343
     22 H1          2.1165    1.2559   -0.0110 H         1 <0>         0.1431
     23 H2          0.0021   -0.0041    0.0020 H         1 <0>         0.1410
     24 H3         -0.0596    4.9262    0.0266 H         1 <0>         0.1463
     25 H4         -3.2720    1.5153    0.0262 H         1 <0>         0.4047
     26 H5         -1.8948   -0.7770   -0.8822 H         1 <0>         0.0958
     27 H6         -1.8861   -0.7861    0.8977 H         1 <0>         0.0943
     28 H7         -3.8908   -1.1425   -2.1208 H         1 <0>         0.1724
     29 H8         -6.1994   -2.0005   -2.1391 H         1 <0>         0.1734
     30 H9        -10.0061   -3.0330    2.1311 H         1 <0>         0.4445
     31 H10        -9.9832   -3.1684    0.4566 H         1 <0>         0.4323
     32 H11        -4.9204   -1.0292    3.6946 H         1 <0>         0.4436
     33 H12        -6.3232   -1.4754    4.5046 H         1 <0>         0.4354
     34 N6         -7.6742   -2.3564    0.0379 N.ar      1 <0>        -0.6057
     35 H13        -8.1306   -2.5984   -0.8184 H         1 <0>         0.4584
@<TRIPOS>BOND
     1    1    6 ar
     2    1    2 ar
     3    1   22 1
     4    2    3 ar
     5    2   23 1
     6    3    4 ar
     7    3    9 1
     8    4    5 ar
     9    4    8 1
    10    5    6 ar
    11    5   24 1
    12    6    7 1
    13    9   10 1
    14    9   25 1
    15   10   11 1
    16   10   26 1
    17   10   27 1
    18   11   16 ar
    19   11   12 ar
    20   12   13 ar
    21   12   28 1
    22   13   14 ar
    23   13   29 1
    24   14   15 ar
    25   14   34 ar
    26   15   16 ar
    27   15   17 ar
    28   17   18 ar
    29   17   21 1
    30   18   19 ar
    31   19   20 1
    32   19   34 ar
    33   20   30 1
    34   20   31 1
    35   21   32 1
    36   21   33 1
    37   34   35 1
@<TRIPOS>MOLECULE
ZINC03814914
   37    39     0     0     0
SMALL
USER_CHARGES

@<TRIPOS>ATOM
      1 C1         -2.5778    0.2608   -1.2165 C.3       1 <0>         0.0236
      2 N1         -2.4266    1.0406    0.0192 N.pl3     1 <0>        -0.4924
      3 C2         -2.5237    0.1759    1.2027 C.3       1 <0>         0.1149
      4 C3         -3.9187   -0.3855    1.3015 C.ar      1 <0>         0.1114
      5 C4         -4.1854   -1.6413    0.7603 C.ar      1 <0>        -0.1113
      6 C5         -5.4438   -2.1686    0.8444 C.ar      1 <0>        -0.0835
      7 C6         -6.4394   -1.4045    1.4767 C.ar      1 <0>         0.1935
      8 C7         -6.0972   -0.1343    1.9988 C.ar      1 <0>        -0.0455
      9 N2         -4.8534    0.3231    1.8904 N.ar      1 <0>        -0.4054
     10 C8         -7.1551    0.6383    2.6517 C.ar      1 <0>         0.5339
     11 N3         -8.3646    0.0996    2.7123 N.ar      1 <0>        -0.6307
     12 C9         -8.6143   -1.1011    2.1994 C.ar      1 <0>         0.6214
     13 N4         -7.6998   -1.8383    1.6020 N.ar      1 <0>        -0.6137
     14 N5         -9.8997   -1.6025    2.2981 N.pl3     1 <0>        -0.8156
     15 N6         -6.9022    1.8843    3.1851 N.pl3     1 <0>        -0.7965
     16 C10        -1.2242    1.7543    0.0174 C.ar      1 <0>         0.1015
     17 C11        -0.0126    1.0758    0.0080 C.ar      1 <0>        -0.1247
     18 C12         1.1738    1.7831    0.0004 C.ar      1 <0>        -0.0969
     19 C13         1.1564    3.1669    0.0075 C.ar      1 <0>        -0.0261
     20 C14        -0.0489    3.8463    0.0227 C.ar      1 <0>        -0.1002
     21 C15        -1.2393    3.1439    0.0298 C.ar      1 <0>         0.0000
     22 Cl1        -2.7514    3.9965    0.0476 Cl        1 <0>        -0.0356
     23 Cl2         2.6497    4.0521   -0.0020 Cl        1 <0>        -0.0548
     24 H1         -1.7522   -0.4456   -1.3037 H         1 <0>         0.0366
     25 H2         -3.5212   -0.2845   -1.1889 H         1 <0>         0.0782
     26 H3         -2.5721    0.9338   -2.0739 H         1 <0>         0.0742
     27 H4         -1.8084   -0.6419    1.1148 H         1 <0>         0.0601
     28 H5         -2.3021    0.7579    2.0972 H         1 <0>         0.0962
     29 H6         -3.3970   -2.1999    0.2778 H         1 <0>         0.1403
     30 H7         -5.6672   -3.1421    0.4335 H         1 <0>         0.1485
     31 H8        -10.5919   -1.0805    2.7333 H         1 <0>         0.4142
     32 H9        -10.1090   -2.4761    1.9322 H         1 <0>         0.4167
     33 H10        -6.0108    2.2631    3.1313 H         1 <0>         0.4258
     34 H11        -7.6156    2.3821    3.6142 H         1 <0>         0.4132
     35 H12         0.0021   -0.0041    0.0020 H         1 <0>         0.1399
     36 H13         2.1161    1.2557   -0.0114 H         1 <0>         0.1409
     37 H14        -0.0596    4.9262    0.0286 H         1 <0>         0.1473
@<TRIPOS>BOND
     1    1    2 1
     2    1   24 1
     3    1   25 1
     4    1   26 1
     5    2    3 1
     6    2   16 1
     7    3    4 1
     8    3   27 1
     9    3   28 1
    10    4    9 ar
    11    4    5 ar
    12    5    6 ar
    13    5   29 1
    14    6    7 ar
    15    6   30 1
    16    7   13 ar
    17    7    8 ar
    18    8    9 ar
    19    8   10 ar
    20   10   11 ar
    21   10   15 1
    22   11   12 ar
    23   12   13 ar
    24   12   14 1
    25   14   31 1
    26   14   32 1
    27   15   33 1
    28   15   34 1
    29   16   21 ar
    30   16   17 ar
    31   17   18 ar
    32   17   35 1
    33   18   19 ar
    34   18   36 1
    35   19   20 ar
    36   19   23 1
    37   20   21 ar
    38   20   37 1
    39   21   22 1
@<TRIPOS>MOLECULE
ZINC03814914
   38    40     0     0     0
SMALL
USER_CHARGES

@<TRIPOS>ATOM
      1 C1         -2.5778    0.2608   -1.2165 C.3       1 <0>         0.0188
      2 N1         -2.4266    1.0406    0.0192 N.pl3     1 <0>        -0.4901
      3 C2         -2.5237    0.1759    1.2027 C.3       1 <0>         0.0982
      4 C3         -3.9187   -0.3855    1.3015 C.ar      1 <0>         0.1586
      5 C4         -4.1854   -1.6413    0.7603 C.ar      1 <0>        -0.0779
      6 C5         -5.4438   -2.1686    0.8444 C.ar      1 <0>        -0.0941
      7 C6         -6.4394   -1.4045    1.4767 C.ar      1 <0>         0.1400
      8 C7         -6.0972   -0.1343    1.9988 C.ar      1 <0>         0.0309
      9 N2         -4.8534    0.3231    1.8904 N.ar      1 <0>        -0.3927
     10 C8         -7.1551    0.6383    2.6517 C.ar      1 <0>         0.5757
     11 N3         -8.3646    0.0996    2.7123 N.ar      1 <0>        -0.5803
     12 C9         -8.6143   -1.1011    2.1994 C.ar      1 <0>         0.7012
     13 N4         -9.8997   -1.6025    2.2981 N.pl3     1 <0>        -0.7851
     14 N5         -6.9022    1.8843    3.1851 N.pl3     1 <0>        -0.7348
     15 C10        -1.2242    1.7543    0.0174 C.ar      1 <0>         0.0884
     16 C11        -0.0126    1.0758    0.0080 C.ar      1 <0>        -0.1222
     17 C12         1.1738    1.7831    0.0004 C.ar      1 <0>        -0.0948
     18 C13         1.1564    3.1669    0.0075 C.ar      1 <0>        -0.0202
     19 C14        -0.0489    3.8463    0.0227 C.ar      1 <0>        -0.0986
     20 C15        -1.2393    3.1439    0.0298 C.ar      1 <0>         0.0036
     21 Cl1        -2.7514    3.9965    0.0476 Cl        1 <0>        -0.0381
     22 Cl2         2.6497    4.0521   -0.0020 Cl        1 <0>        -0.0440
     23 H1         -1.7522   -0.4456   -1.3037 H         1 <0>         0.0433
     24 H2         -3.5212   -0.2845   -1.1889 H         1 <0>         0.0708
     25 H3         -2.5721    0.9338   -2.0739 H         1 <0>         0.0823
     26 H4         -1.8084   -0.6419    1.1148 H         1 <0>         0.0745
     27 H5         -2.3021    0.7579    2.0972 H         1 <0>         0.1093
     28 H6         -3.3970   -2.1999    0.2778 H         1 <0>         0.1665
     29 H7         -5.6672   -3.1421    0.4335 H         1 <0>         0.1704
     30 H8        -10.5919   -1.0805    2.7333 H         1 <0>         0.4437
     31 H9        -10.1090   -2.4761    1.9322 H         1 <0>         0.4315
     32 H10        -6.0108    2.2631    3.1313 H         1 <0>         0.4441
     33 H11        -7.6156    2.3821    3.6142 H         1 <0>         0.4342
     34 H12         0.0021   -0.0041    0.0020 H         1 <0>         0.1401
     35 H13         2.1161    1.2557   -0.0114 H         1 <0>         0.1445
     36 H14        -0.0596    4.9262    0.0286 H         1 <0>         0.1506
     37 N6         -7.7189   -1.9054    1.5747 N.ar      1 <0>        -0.6055
     38 H15        -7.9333   -2.8065    1.1977 H         1 <0>         0.4569
@<TRIPOS>BOND
     1    1    2 1
     2    1   23 1
     3    1   24 1
     4    1   25 1
     5    2    3 1
     6    2   15 1
     7    3    4 1
     8    3   26 1
     9    3   27 1
    10    4    9 ar
    11    4    5 ar
    12    5    6 ar
    13    5   28 1
    14    6    7 ar
    15    6   29 1
    16    7    8 ar
    17    7   37 ar
    18    8    9 ar
    19    8   10 ar
    20   10   11 ar
    21   10   14 1
    22   11   12 ar
    23   12   13 1
    24   12   37 ar
    25   13   30 1
    26   13   31 1
    27   14   32 1
    28   14   33 1
    29   15   20 ar
    30   15   16 ar
    31   16   17 ar
    32   16   34 1
    33   17   18 ar
    34   17   35 1
    35   18   19 ar
    36   18   22 1
    37   19   20 ar
    38   19   36 1
    39   20   21 1
    40   37   38 1
@<TRIPOS>MOLECULE
ZINC03814915
   34    36     0     0     0
SMALL
USER_CHARGES

@<TRIPOS>ATOM
      1 C1         -1.2200    1.7502    0.0173 C.ar      1 <0>        -0.1598
      2 C2         -0.0126    1.0758    0.0080 C.ar      1 <0>        -0.0472
      3 C3          1.1749    1.7821    0.0004 C.ar      1 <0>        -0.1119
      4 C4          1.1553    3.1723    0.0076 C.ar      1 <0>         0.2439
      5 C5         -0.0582    3.8463    0.0223 C.ar      1 <0>        -0.1832
      6 C6         -1.2431    3.1336    0.0298 C.ar      1 <0>         0.0202
      7 Cl1        -2.7612    3.9754    0.0483 Cl        1 <0>        -0.0607
      8 N1          2.3546    3.8896    0.0005 N.pl3     1 <0>        -0.7308
      9 C7          2.3322    5.3544    0.0081 C.3       1 <0>         0.1802
     10 C8          3.7450    5.8785   -0.0020 C.ar      1 <0>         0.0813
     11 C9          4.3360    6.2149   -1.2179 C.ar      1 <0>        -0.1001
     12 C10         5.6152    6.6961   -1.2461 C.ar      1 <0>        -0.0836
     13 C11         6.2994    6.8258   -0.0255 C.ar      1 <0>         0.2004
     14 C12         5.6377    6.4595    1.1707 C.ar      1 <0>        -0.0496
     15 N2          4.3899    6.0017    1.1346 N.ar      1 <0>        -0.4103
     16 C13         6.3757    6.6055    2.4263 C.ar      1 <0>         0.5351
     17 N3          7.6151    7.0709    2.3629 N.ar      1 <0>        -0.6293
     18 C14         8.1742    7.3956    1.2014 C.ar      1 <0>         0.6243
     19 N4          7.5554    7.2844    0.0431 N.ar      1 <0>        -0.6130
     20 N5          9.4716    7.8753    1.2089 N.pl3     1 <0>        -0.8132
     21 N6          5.8012    6.2699    3.6340 N.pl3     1 <0>        -0.7957
     22 Cl2         2.6899    0.9346   -0.0175 Cl        1 <0>        -0.0651
     23 H1         -2.1468    1.1958    0.0187 H         1 <0>         0.1397
     24 H2          0.0021   -0.0041    0.0020 H         1 <0>         0.1423
     25 H3         -0.0768    4.9261    0.0276 H         1 <0>         0.1418
     26 H4          3.2020    3.4176   -0.0095 H         1 <0>         0.4069
     27 H5          1.8048    5.7143   -0.8754 H         1 <0>         0.0837
     28 H6          1.8208    5.7053    0.9044 H         1 <0>         0.0830
     29 H7          3.7822    6.0991   -2.1379 H         1 <0>         0.1463
     30 H8          6.0874    6.9651   -2.1794 H         1 <0>         0.1516
     31 H9          9.9498    7.9674    2.0478 H         1 <0>         0.4152
     32 H10         9.9032    8.1196    0.3753 H         1 <0>         0.4178
     33 H11         4.8930    5.9305    3.6613 H         1 <0>         0.4253
     34 H12         6.3053    6.3732    4.4562 H         1 <0>         0.4146
@<TRIPOS>BOND
     1    1    6 ar
     2    1    2 ar
     3    1   23 1
     4    2    3 ar
     5    2   24 1
     6    3    4 ar
     7    3   22 1
     8    4    5 ar
     9    4    8 1
    10    5    6 ar
    11    5   25 1
    12    6    7 1
    13    8    9 1
    14    8   26 1
    15    9   10 1
    16    9   27 1
    17    9   28 1
    18   10   15 ar
    19   10   11 ar
    20   11   12 ar
    21   11   29 1
    22   12   13 ar
    23   12   30 1
    24   13   19 ar
    25   13   14 ar
    26   14   15 ar
    27   14   16 ar
    28   16   17 ar
    29   16   21 1
    30   17   18 ar
    31   18   19 ar
    32   18   20 1
    33   20   31 1
    34   20   32 1
    35   21   33 1
    36   21   34 1
@<TRIPOS>MOLECULE
ZINC03814915
   35    37     0     0     0
SMALL
USER_CHARGES

@<TRIPOS>ATOM
      1 C1         -1.2200    1.7502    0.0173 C.ar      1 <0>        -0.1482
      2 C2         -0.0126    1.0758    0.0080 C.ar      1 <0>        -0.0468
      3 C3          1.1749    1.7821    0.0004 C.ar      1 <0>        -0.1055
      4 C4          1.1553    3.1723    0.0076 C.ar      1 <0>         0.2347
      5 C5         -0.0582    3.8463    0.0223 C.ar      1 <0>        -0.1793
      6 C6         -1.2431    3.1336    0.0298 C.ar      1 <0>         0.0178
      7 Cl1        -2.7612    3.9754    0.0483 Cl        1 <0>        -0.0519
      8 N1          2.3546    3.8896    0.0005 N.pl3     1 <0>        -0.7391
      9 C7          2.3322    5.3544    0.0081 C.3       1 <0>         0.1697
     10 C8          3.7450    5.8785   -0.0020 C.ar      1 <0>         0.1289
     11 C9          4.3360    6.2149   -1.2179 C.ar      1 <0>        -0.0643
     12 C10         5.6152    6.6961   -1.2461 C.ar      1 <0>        -0.0942
     13 C11         6.2994    6.8258   -0.0255 C.ar      1 <0>         0.1481
     14 C12         5.6377    6.4595    1.1707 C.ar      1 <0>         0.0272
     15 N2          4.3899    6.0017    1.1346 N.ar      1 <0>        -0.3977
     16 C13         6.3757    6.6055    2.4263 C.ar      1 <0>         0.5759
     17 N3          7.6151    7.0709    2.3629 N.ar      1 <0>        -0.5786
     18 C14         8.1742    7.3956    1.2014 C.ar      1 <0>         0.7020
     19 N4          9.4716    7.8753    1.2089 N.pl3     1 <0>        -0.7826
     20 N5          5.8012    6.2699    3.6340 N.pl3     1 <0>        -0.7343
     21 Cl2         2.6899    0.9346   -0.0175 Cl        1 <0>        -0.0641
     22 H1         -2.1468    1.1958    0.0187 H         1 <0>         0.1442
     23 H2          0.0021   -0.0041    0.0020 H         1 <0>         0.1462
     24 H3         -0.0768    4.9261    0.0276 H         1 <0>         0.1417
     25 H4          3.2020    3.4176   -0.0095 H         1 <0>         0.4058
     26 H5          1.8048    5.7143   -0.8754 H         1 <0>         0.0959
     27 H6          1.8208    5.7053    0.9044 H         1 <0>         0.0944
     28 H7          3.7822    6.0991   -2.1379 H         1 <0>         0.1725
     29 H8          6.0874    6.9651   -2.1794 H         1 <0>         0.1734
     30 H9          9.9498    7.9674    2.0478 H         1 <0>         0.4444
     31 H10         9.9032    8.1196    0.3753 H         1 <0>         0.4323
     32 H11         4.8930    5.9305    3.6613 H         1 <0>         0.4436
     33 H12         6.3053    6.3732    4.4562 H         1 <0>         0.4354
     34 N6          7.5913    7.3041   -0.0197 N.ar      1 <0>        -0.6057
     35 H13         8.0349    7.5563   -0.8796 H         1 <0>         0.4583
@<TRIPOS>BOND
     1    1    6 ar
     2    1    2 ar
     3    1   22 1
     4    2    3 ar
     5    2   23 1
     6    3    4 ar
     7    3   21 1
     8    4    5 ar
     9    4    8 1
    10    5    6 ar
    11    5   24 1
    12    6    7 1
    13    8    9 1
    14    8   25 1
    15    9   10 1
    16    9   26 1
    17    9   27 1
    18   10   15 ar
    19   10   11 ar
    20   11   12 ar
    21   11   28 1
    22   12   13 ar
    23   12   29 1
    24   13   14 ar
    25   13   34 ar
    26   14   15 ar
    27   14   16 ar
    28   16   17 ar
    29   16   20 1
    30   17   18 ar
    31   18   19 1
    32   18   34 ar
    33   19   30 1
    34   19   31 1
    35   20   32 1
    36   20   33 1
    37   34   35 1
@<TRIPOS>MOLECULE
ZINC03814916
   37    39     0     0     0
SMALL
USER_CHARGES

@<TRIPOS>ATOM
      1 C1         -0.0127    1.0858    0.0080 C.3       1 <0>         0.0282
      2 N1         -0.7003    1.5596    1.2166 N.pl3     1 <0>        -0.4922
      3 C2         -0.8223    3.0235    1.2133 C.3       1 <0>         0.1133
      4 C3         -1.7346    3.4489    0.0917 C.ar      1 <0>         0.1150
      5 C4         -3.0859    3.6590    0.3580 C.ar      1 <0>        -0.0941
      6 C5         -3.9276    4.0495   -0.6458 C.ar      1 <0>        -0.0841
      7 C6         -3.3881    4.2174   -1.9326 C.ar      1 <0>         0.1944
      8 C7         -2.0068    3.9810   -2.1303 C.ar      1 <0>        -0.0464
      9 N2         -1.2372    3.6071   -1.1126 N.ar      1 <0>        -0.4254
     10 C8         -1.4738    4.1639   -3.4812 C.ar      1 <0>         0.5320
     11 N3         -2.3178    4.5389   -4.4319 N.ar      1 <0>        -0.6295
     12 C9         -3.6056    4.7434   -4.1733 C.ar      1 <0>         0.6203
     13 N4         -4.1371    4.5937   -2.9766 N.ar      1 <0>        -0.6120
     14 N5         -4.4300    5.1336   -5.2133 N.pl3     1 <0>        -0.8156
     15 N6         -0.1392    3.9529   -3.7556 N.pl3     1 <0>        -0.7988
     16 C10        -0.0495    1.1139    2.3702 C.ar      1 <0>         0.1087
     17 C11         1.2447    1.5351    2.6458 C.ar      1 <0>        -0.1285
     18 C12         1.8856    1.0924    3.7877 C.ar      1 <0>        -0.0238
     19 C13         1.2385    0.2306    4.6562 C.ar      1 <0>        -0.0992
     20 C14        -0.0501   -0.1905    4.3846 C.ar      1 <0>        -0.0940
     21 C15        -0.6984    0.2526    3.2472 C.ar      1 <0>        -0.0097
     22 Cl1        -2.3190   -0.2711    2.9109 Cl        1 <0>        -0.0403
     23 Cl2         3.5035    1.6183    4.1331 Cl        1 <0>        -0.0591
     24 H1          0.0021   -0.0041    0.0020 H         1 <0>         0.0699
     25 H2          1.0099    1.4631    0.0003 H         1 <0>         0.0357
     26 H3         -0.5399    1.4469   -0.8751 H         1 <0>         0.0840
     27 H4         -1.2371    3.3557    2.1649 H         1 <0>         0.0962
     28 H5          0.1618    3.4698    1.0703 H         1 <0>         0.0610
     29 H6         -3.4676    3.5170    1.3582 H         1 <0>         0.1441
     30 H7         -4.9770    4.2202   -0.4564 H         1 <0>         0.1489
     31 H8         -4.0643    5.2514   -6.1040 H         1 <0>         0.4142
     32 H9         -5.3737    5.2895   -5.0519 H         1 <0>         0.4170
     33 H10         0.4641    3.6784   -3.0473 H         1 <0>         0.4236
     34 H11         0.1966    4.0790   -4.6568 H         1 <0>         0.4135
     35 H12         1.7498    2.2081    1.9688 H         1 <0>         0.1406
     36 H13         1.7413   -0.1139    5.5477 H         1 <0>         0.1446
     37 H14        -0.5524   -0.8627    5.0645 H         1 <0>         0.1475
@<TRIPOS>BOND
     1    1    2 1
     2    1   24 1
     3    1   25 1
     4    1   26 1
     5    2    3 1
     6    2   16 1
     7    3    4 1
     8    3   27 1
     9    3   28 1
    10    4    9 ar
    11    4    5 ar
    12    5    6 ar
    13    5   29 1
    14    6    7 ar
    15    6   30 1
    16    7   13 ar
    17    7    8 ar
    18    8    9 ar
    19    8   10 ar
    20   10   11 ar
    21   10   15 1
    22   11   12 ar
    23   12   13 ar
    24   12   14 1
    25   14   31 1
    26   14   32 1
    27   15   33 1
    28   15   34 1
    29   16   21 ar
    30   16   17 ar
    31   17   18 ar
    32   17   35 1
    33   18   19 ar
    34   18   23 1
    35   19   20 ar
    36   19   36 1
    37   20   21 ar
    38   20   37 1
    39   21   22 1
@<TRIPOS>MOLECULE
ZINC03814916
   38    40     0     0     0
SMALL
USER_CHARGES

@<TRIPOS>ATOM
      1 C1         -0.0127    1.0858    0.0080 C.3       1 <0>         0.0239
      2 N1         -0.7003    1.5596    1.2166 N.pl3     1 <0>        -0.4897
      3 C2         -0.8223    3.0235    1.2133 C.3       1 <0>         0.0970
      4 C3         -1.7346    3.4489    0.0917 C.ar      1 <0>         0.1600
      5 C4         -3.0859    3.6590    0.3580 C.ar      1 <0>        -0.0588
      6 C5         -3.9276    4.0495   -0.6458 C.ar      1 <0>        -0.0950
      7 C6         -3.3881    4.2174   -1.9326 C.ar      1 <0>         0.1415
      8 C7         -2.0068    3.9810   -2.1303 C.ar      1 <0>         0.0282
      9 N2         -1.2372    3.6071   -1.1126 N.ar      1 <0>        -0.4118
     10 C8         -1.4738    4.1639   -3.4812 C.ar      1 <0>         0.5755
     11 N3         -2.3178    4.5389   -4.4319 N.ar      1 <0>        -0.5797
     12 C9         -3.6056    4.7434   -4.1733 C.ar      1 <0>         0.7008
     13 N4         -4.4300    5.1336   -5.2133 N.pl3     1 <0>        -0.7846
     14 N5         -0.1392    3.9529   -3.7556 N.pl3     1 <0>        -0.7381
     15 C10        -0.0495    1.1139    2.3702 C.ar      1 <0>         0.0964
     16 C11         1.2447    1.5351    2.6458 C.ar      1 <0>        -0.1272
     17 C12         1.8856    1.0924    3.7877 C.ar      1 <0>        -0.0234
     18 C13         1.2385    0.2306    4.6562 C.ar      1 <0>        -0.0915
     19 C14        -0.0501   -0.1905    4.3846 C.ar      1 <0>        -0.0911
     20 C15        -0.6984    0.2526    3.2472 C.ar      1 <0>        -0.0069
     21 Cl1        -2.3190   -0.2711    2.9109 Cl        1 <0>        -0.0411
     22 Cl2         3.5035    1.6183    4.1331 Cl        1 <0>        -0.0505
     23 H1          0.0021   -0.0041    0.0020 H         1 <0>         0.0784
     24 H2          1.0099    1.4631    0.0003 H         1 <0>         0.0418
     25 H3         -0.5399    1.4469   -0.8751 H         1 <0>         0.0754
     26 H4         -1.2371    3.3557    2.1649 H         1 <0>         0.1101
     27 H5          0.1618    3.4698    1.0703 H         1 <0>         0.0743
     28 H6         -3.4676    3.5170    1.3582 H         1 <0>         0.1701
     29 H7         -4.9770    4.2202   -0.4564 H         1 <0>         0.1708
     30 H8         -4.0643    5.2514   -6.1040 H         1 <0>         0.4437
     31 H9         -5.3737    5.2895   -5.0519 H         1 <0>         0.4318
     32 H10         0.4641    3.6784   -3.0473 H         1 <0>         0.4420
     33 H11         0.1966    4.0790   -4.6568 H         1 <0>         0.4344
     34 H12         1.7498    2.2081    1.9688 H         1 <0>         0.1405
     35 H13         1.7413   -0.1139    5.5477 H         1 <0>         0.1487
     36 H14        -0.5524   -0.8627    5.0645 H         1 <0>         0.1509
     37 N6         -4.2103    4.6065   -2.9671 N.ar      1 <0>        -0.6045
     38 H15        -5.1829    4.7675   -2.7994 H         1 <0>         0.4575
@<TRIPOS>BOND
     1    1    2 1
     2    1   23 1
     3    1   24 1
     4    1   25 1
     5    2    3 1
     6    2   15 1
     7    3    4 1
     8    3   26 1
     9    3   27 1
    10    4    9 ar
    11    4    5 ar
    12    5    6 ar
    13    5   28 1
    14    6    7 ar
    15    6   29 1
    16    7    8 ar
    17    7   37 ar
    18    8    9 ar
    19    8   10 ar
    20   10   11 ar
    21   10   14 1
    22   11   12 ar
    23   12   13 1
    24   12   37 ar
    25   13   30 1
    26   13   31 1
    27   14   32 1
    28   14   33 1
    29   15   20 ar
    30   15   16 ar
    31   16   17 ar
    32   16   34 1
    33   17   18 ar
    34   17   22 1
    35   18   19 ar
    36   18   35 1
    37   19   20 ar
    38   19   36 1
    39   20   21 1
    40   37   38 1
@<TRIPOS>MOLECULE
ZINC03814917
   34    36     0     0     0
SMALL
USER_CHARGES

@<TRIPOS>ATOM
      1 C1         -2.4111   -0.0424    0.0307 C.ar      1 <0>        -0.1837
      2 C2         -3.5968   -0.7512    0.0333 C.ar      1 <0>        -0.0470
      3 C3         -3.5776   -2.1344    0.0257 C.ar      1 <0>        -0.0913
      4 C4         -2.3698   -2.8125    0.0101 C.ar      1 <0>         0.0205
      5 C5         -1.1810   -2.1080    0.0020 C.ar      1 <0>        -0.1789
      6 C6         -1.1985   -0.7192    0.0096 C.ar      1 <0>         0.2372
      7 N1          0.0021   -0.0041    0.0020 N.pl3     1 <0>        -0.7335
      8 C7         -0.0178    1.4608    0.0101 C.3       1 <0>         0.1822
      9 C8          1.3960    1.9824   -0.0006 C.ar      1 <0>         0.0809
     10 C9          1.9869    2.3181   -1.2168 C.ar      1 <0>        -0.1005
     11 C10         3.2669    2.7970   -1.2456 C.ar      1 <0>        -0.0838
     12 C11         3.9521    2.9251   -0.0254 C.ar      1 <0>         0.2005
     13 C12         3.2904    2.5596    1.1711 C.ar      1 <0>        -0.0501
     14 N2          2.0418    2.1040    1.1356 N.ar      1 <0>        -0.4109
     15 C13         4.0294    2.7039    2.4264 C.ar      1 <0>         0.5350
     16 N3          5.2696    3.1671    2.3623 N.ar      1 <0>        -0.6293
     17 C14         5.8286    3.4912    1.2006 C.ar      1 <0>         0.6247
     18 N4          5.2089    3.3814    0.0427 N.ar      1 <0>        -0.6132
     19 N5          7.1268    3.9686    1.2075 N.pl3     1 <0>        -0.8130
     20 N6          3.4550    2.3690    3.6342 N.pl3     1 <0>        -0.7958
     21 Cl1        -2.3497   -4.5484   -0.0000 Cl        1 <0>        -0.0490
     22 Cl2        -5.0696   -3.0218    0.0352 Cl        1 <0>        -0.0581
     23 H1         -2.4270    1.0374    0.0411 H         1 <0>         0.1372
     24 H2         -4.5398   -0.2249    0.0459 H         1 <0>         0.1419
     25 H3         -0.2393   -2.6368   -0.0098 H         1 <0>         0.1388
     26 H4          0.8486   -0.4776   -0.0086 H         1 <0>         0.4043
     27 H5         -0.5450    1.8219   -0.8730 H         1 <0>         0.0826
     28 H6         -0.5280    1.8123    0.9069 H         1 <0>         0.0817
     29 H7          1.4323    2.2035   -2.1365 H         1 <0>         0.1460
     30 H8          3.7391    3.0654   -2.1791 H         1 <0>         0.1513
     31 H9          7.6057    4.0595    2.0461 H         1 <0>         0.4153
     32 H10         7.5584    4.2124    0.3737 H         1 <0>         0.4179
     33 H11         2.5462    2.0311    3.6620 H         1 <0>         0.4253
     34 H12         3.9598    2.4711    4.4562 H         1 <0>         0.4147
@<TRIPOS>BOND
     1    1    6 ar
     2    1    2 ar
     3    1   23 1
     4    2    3 ar
     5    2   24 1
     6    3    4 ar
     7    3   22 1
     8    4    5 ar
     9    4   21 1
    10    5    6 ar
    11    5   25 1
    12    6    7 1
    13    7    8 1
    14    7   26 1
    15    8    9 1
    16    8   27 1
    17    8   28 1
    18    9   14 ar
    19    9   10 ar
    20   10   11 ar
    21   10   29 1
    22   11   12 ar
    23   11   30 1
    24   12   18 ar
    25   12   13 ar
    26   13   14 ar
    27   13   15 ar
    28   15   16 ar
    29   15   20 1
    30   16   17 ar
    31   17   18 ar
    32   17   19 1
    33   19   31 1
    34   19   32 1
    35   20   33 1
    36   20   34 1
@<TRIPOS>MOLECULE
ZINC03814917
   35    37     0     0     0
SMALL
USER_CHARGES

@<TRIPOS>ATOM
      1 C1         -2.4111   -0.0424    0.0307 C.ar      1 <0>        -0.1796
      2 C2         -3.5968   -0.7512    0.0333 C.ar      1 <0>        -0.0479
      3 C3         -3.5776   -2.1344    0.0257 C.ar      1 <0>        -0.0823
      4 C4         -2.3698   -2.8125    0.0101 C.ar      1 <0>         0.0174
      5 C5         -1.1810   -2.1080    0.0020 C.ar      1 <0>        -0.1721
      6 C6         -1.1985   -0.7192    0.0096 C.ar      1 <0>         0.2267
      7 N1          0.0021   -0.0041    0.0020 N.pl3     1 <0>        -0.7414
      8 C7         -0.0178    1.4608    0.0101 C.3       1 <0>         0.1716
      9 C8          1.3960    1.9824   -0.0006 C.ar      1 <0>         0.1287
     10 C9          1.9869    2.3181   -1.2168 C.ar      1 <0>        -0.0646
     11 C10         3.2669    2.7970   -1.2456 C.ar      1 <0>        -0.0945
     12 C11         3.9521    2.9251   -0.0254 C.ar      1 <0>         0.1483
     13 C12         3.2904    2.5596    1.1711 C.ar      1 <0>         0.0271
     14 N2          2.0418    2.1040    1.1356 N.ar      1 <0>        -0.3984
     15 C13         4.0294    2.7039    2.4264 C.ar      1 <0>         0.5758
     16 N3          5.2696    3.1671    2.3623 N.ar      1 <0>        -0.5788
     17 C14         5.8286    3.4912    1.2006 C.ar      1 <0>         0.7021
     18 N4          7.1268    3.9686    1.2075 N.pl3     1 <0>        -0.7824
     19 N5          3.4550    2.3690    3.6342 N.pl3     1 <0>        -0.7345
     20 Cl1        -2.3497   -4.5484   -0.0000 Cl        1 <0>        -0.0402
     21 Cl2        -5.0696   -3.0218    0.0352 Cl        1 <0>        -0.0473
     22 H1         -2.4270    1.0374    0.0411 H         1 <0>         0.1367
     23 H2         -4.5398   -0.2249    0.0459 H         1 <0>         0.1453
     24 H3         -0.2393   -2.6368   -0.0098 H         1 <0>         0.1395
     25 H4          0.8486   -0.4776   -0.0086 H         1 <0>         0.4034
     26 H5         -0.5450    1.8219   -0.8730 H         1 <0>         0.0946
     27 H6         -0.5280    1.8123    0.9069 H         1 <0>         0.0930
     28 H7          1.4323    2.2035   -2.1365 H         1 <0>         0.1722
     29 H8          3.7391    3.0654   -2.1791 H         1 <0>         0.1731
     30 H9          7.6057    4.0595    2.0461 H         1 <0>         0.4445
     31 H10         7.5584    4.2124    0.3737 H         1 <0>         0.4324
     32 H11         2.5462    2.0311    3.6620 H         1 <0>         0.4435
     33 H12         3.9598    2.4711    4.4562 H         1 <0>         0.4354
     34 N6          5.2448    3.4011   -0.0201 N.ar      1 <0>        -0.6059
     35 H13         5.6885    3.6527   -0.8802 H         1 <0>         0.4584
@<TRIPOS>BOND
     1    1    6 ar
     2    1    2 ar
     3    1   22 1
     4    2    3 ar
     5    2   23 1
     6    3    4 ar
     7    3   21 1
     8    4    5 ar
     9    4   20 1
    10    5    6 ar
    11    5   24 1
    12    6    7 1
    13    7    8 1
    14    7   25 1
    15    8    9 1
    16    8   26 1
    17    8   27 1
    18    9   14 ar
    19    9   10 ar
    20   10   11 ar
    21   10   28 1
    22   11   12 ar
    23   11   29 1
    24   12   13 ar
    25   12   34 ar
    26   13   14 ar
    27   13   15 ar
    28   15   16 ar
    29   15   19 1
    30   16   17 ar
    31   17   18 1
    32   17   34 ar
    33   18   30 1
    34   18   31 1
    35   19   32 1
    36   19   33 1
    37   34   35 1
@<TRIPOS>MOLECULE
ZINC03814918
   33    35     0     0     0
SMALL
USER_CHARGES

@<TRIPOS>ATOM
      1 C1         -0.0167    1.3788    0.0096 C.ar      1 <0>        -0.1252
      2 C2          1.1695    2.0899    0.0021 C.ar      1 <0>        -0.0997
      3 C3          2.3774    1.4209   -0.0131 C.ar      1 <0>        -0.1348
      4 C4          2.4001    0.0314   -0.0208 C.ar      1 <0>        -0.0850
      5 C5          1.2062   -0.6798   -0.0132 C.ar      1 <0>        -0.1005
      6 C6          0.0021   -0.0041    0.0020 C.ar      1 <0>        -0.1000
      7 S1          3.9390   -0.8266   -0.0396 S.3       1 <0>        -0.0953
      8 C7          5.1794    0.4971   -0.0445 C.3       1 <0>        -0.0534
      9 C8          6.5595   -0.1079   -0.0605 C.ar      1 <0>         0.1142
     10 C9          7.1953   -0.3814    1.1486 C.ar      1 <0>        -0.0998
     11 C10         8.4455   -0.9342    1.1537 C.ar      1 <0>        -0.0815
     12 C11         9.0551   -1.2008   -0.0841 C.ar      1 <0>         0.1981
     13 C12         8.3515   -0.8918   -1.2726 C.ar      1 <0>        -0.0452
     14 N1          7.1348   -0.3590   -1.2133 N.ar      1 <0>        -0.4136
     15 C13         9.0120   -1.1806   -2.5466 C.ar      1 <0>         0.5349
     16 N2         10.2253   -1.7125   -2.5058 N.ar      1 <0>        -0.6291
     17 C14        10.8269   -1.9768   -1.3502 C.ar      1 <0>         0.6230
     18 N3         10.2782   -1.7374   -0.1762 N.ar      1 <0>        -0.6120
     19 N4         12.0935   -2.5321   -1.3817 N.pl3     1 <0>        -0.8139
     20 N5          8.3931   -0.9081   -3.7482 N.pl3     1 <0>        -0.7960
     21 H1         -0.9600    1.9047    0.0170 H         1 <0>         0.1254
     22 H2          1.1511    3.1697    0.0081 H         1 <0>         0.1260
     23 H3          3.3033    1.9769   -0.0186 H         1 <0>         0.1229
     24 H4          1.2201   -1.7597   -0.0194 H         1 <0>         0.1276
     25 H5         -0.9262   -0.5561    0.0076 H         1 <0>         0.1284
     26 H6          5.0446    1.1180   -0.9302 H         1 <0>         0.1067
     27 H7          5.0613    1.1090    0.8497 H         1 <0>         0.1063
     28 H8          6.6988   -0.1602    2.0819 H         1 <0>         0.1469
     29 H9          8.9514   -1.1560    2.0817 H         1 <0>         0.1524
     30 H10        12.5202   -2.7187   -2.2326 H         1 <0>         0.4148
     31 H11        12.5549   -2.7348   -0.5529 H         1 <0>         0.4175
     32 H12         7.5049   -0.5184   -3.7589 H         1 <0>         0.4254
     33 H13         8.8460   -1.1062   -4.5828 H         1 <0>         0.4144
@<TRIPOS>BOND
     1    1    6 ar
     2    1    2 ar
     3    1   21 1
     4    2    3 ar
     5    2   22 1
     6    3    4 ar
     7    3   23 1
     8    4    5 ar
     9    4    7 1
    10    5    6 ar
    11    5   24 1
    12    6   25 1
    13    7    8 1
    14    8    9 1
    15    8   26 1
    16    8   27 1
    17    9   14 ar
    18    9   10 ar
    19   10   11 ar
    20   10   28 1
    21   11   12 ar
    22   11   29 1
    23   12   18 ar
    24   12   13 ar
    25   13   14 ar
    26   13   15 ar
    27   15   16 ar
    28   15   20 1
    29   16   17 ar
    30   17   18 ar
    31   17   19 1
    32   19   30 1
    33   19   31 1
    34   20   32 1
    35   20   33 1
@<TRIPOS>MOLECULE
ZINC03814918
   34    36     0     0     0
SMALL
USER_CHARGES

@<TRIPOS>ATOM
      1 C1         -0.0167    1.3788    0.0096 C.ar      1 <0>        -0.1152
      2 C2          1.1695    2.0899    0.0021 C.ar      1 <0>        -0.0987
      3 C3          2.3774    1.4209   -0.0131 C.ar      1 <0>        -0.1327
      4 C4          2.4001    0.0314   -0.0208 C.ar      1 <0>        -0.0923
      5 C5          1.2062   -0.6798   -0.0132 C.ar      1 <0>        -0.0956
      6 C6          0.0021   -0.0041    0.0020 C.ar      1 <0>        -0.0972
      7 S1          3.9390   -0.8266   -0.0396 S.3       1 <0>        -0.0871
      8 C7          5.1794    0.4971   -0.0445 C.3       1 <0>        -0.0779
      9 C8          6.5595   -0.1079   -0.0605 C.ar      1 <0>         0.1644
     10 C9          7.1953   -0.3814    1.1486 C.ar      1 <0>        -0.0661
     11 C10         8.4455   -0.9342    1.1537 C.ar      1 <0>        -0.0913
     12 C11         9.0551   -1.2008   -0.0841 C.ar      1 <0>         0.1433
     13 C12         8.3515   -0.8918   -1.2726 C.ar      1 <0>         0.0322
     14 N1          7.1348   -0.3590   -1.2133 N.ar      1 <0>        -0.4029
     15 C13         9.0120   -1.1806   -2.5466 C.ar      1 <0>         0.5762
     16 N2         10.2253   -1.7125   -2.5058 N.ar      1 <0>        -0.5789
     17 C14        10.8269   -1.9768   -1.3502 C.ar      1 <0>         0.7014
     18 N3         12.0935   -2.5321   -1.3817 N.pl3     1 <0>        -0.7837
     19 N4          8.3931   -0.9081   -3.7482 N.pl3     1 <0>        -0.7349
     20 H1         -0.9600    1.9047    0.0170 H         1 <0>         0.1302
     21 H2          1.1511    3.1697    0.0081 H         1 <0>         0.1296
     22 H3          3.3033    1.9769   -0.0186 H         1 <0>         0.1217
     23 H4          1.2201   -1.7597   -0.0194 H         1 <0>         0.1292
     24 H5         -0.9262   -0.5561    0.0076 H         1 <0>         0.1329
     25 H6          5.0446    1.1180   -0.9302 H         1 <0>         0.1191
     26 H7          5.0613    1.1090    0.8497 H         1 <0>         0.1198
     27 H8          6.6988   -0.1602    2.0819 H         1 <0>         0.1725
     28 H9          8.9514   -1.1560    2.0817 H         1 <0>         0.1738
     29 H10        12.5202   -2.7187   -2.2326 H         1 <0>         0.4441
     30 H11        12.5549   -2.7348   -0.5529 H         1 <0>         0.4320
     31 H12         7.5049   -0.5184   -3.7589 H         1 <0>         0.4436
     32 H13         8.8460   -1.1062   -4.5828 H         1 <0>         0.4350
     33 N5         10.3162   -1.7542   -0.1138 N.ar      1 <0>        -0.6046
     34 H14        10.7907   -1.9634    0.7412 H         1 <0>         0.4580
@<TRIPOS>BOND
     1    1    6 ar
     2    1    2 ar
     3    1   20 1
     4    2    3 ar
     5    2   21 1
     6    3    4 ar
     7    3   22 1
     8    4    5 ar
     9    4    7 1
    10    5    6 ar
    11    5   23 1
    12    6   24 1
    13    7    8 1
    14    8    9 1
    15    8   25 1
    16    8   26 1
    17    9   14 ar
    18    9   10 ar
    19   10   11 ar
    20   10   27 1
    21   11   12 ar
    22   11   28 1
    23   12   13 ar
    24   12   33 ar
    25   13   14 ar
    26   13   15 ar
    27   15   16 ar
    28   15   19 1
    29   16   17 ar
    30   17   18 1
    31   17   33 ar
    32   18   29 1
    33   18   30 1
    34   19   31 1
    35   19   32 1
    36   33   34 1
@<TRIPOS>MOLECULE
ZINC03814919
   39    42     0     0     0
SMALL
USER_CHARGES

@<TRIPOS>ATOM
      1 C1          1.1547    1.7758    0.0006 C.ar      1 <0>        -0.1113
      2 C2          1.1553    3.1691    0.0076 C.ar      1 <0>        -0.1127
      3 C3         -0.0122    3.8700    0.0220 C.ar      1 <0>        -0.1026
      4 C4         -1.2353    3.1823    0.0300 C.ar      1 <0>        -0.0323
      5 C5         -1.2374    1.7657    0.0175 C.ar      1 <0>        -0.0378
      6 C6         -0.0126    1.0758    0.0080 C.ar      1 <0>        -0.1073
      7 C7         -2.4613    1.0755    0.0303 C.ar      1 <0>        -0.1099
      8 C8         -3.6335    1.7690    0.0452 C.ar      1 <0>        -0.0984
      9 C9         -3.6454    3.1599    0.0524 C.ar      1 <0>        -0.1311
     10 C10        -2.4655    3.8753    0.0450 C.ar      1 <0>        -0.0756
     11 S1         -2.4937    5.6370    0.0537 S.3       1 <0>        -0.0796
     12 C11        -4.2605    6.0476    0.0725 C.3       1 <0>        -0.0587
     13 C12        -4.4282    7.5452    0.0812 C.ar      1 <0>         0.1145
     14 C13        -4.4979    8.2137    1.3016 C.ar      1 <0>        -0.0999
     15 C14        -4.6454    9.5724    1.3291 C.ar      1 <0>        -0.0814
     16 C15        -4.7321   10.2526    0.1024 C.ar      1 <0>         0.1984
     17 C16        -4.6590    9.5072   -1.0985 C.ar      1 <0>        -0.0453
     18 N1         -4.5103    8.1865   -1.0610 N.ar      1 <0>        -0.4132
     19 C17        -4.7523   10.2431   -2.3604 C.ar      1 <0>         0.5350
     20 N2         -4.8991   11.5589   -2.2978 N.ar      1 <0>        -0.6291
     21 C18        -4.9602   12.1941   -1.1317 C.ar      1 <0>         0.6232
     22 N3         -4.8811   11.5813    0.0323 N.ar      1 <0>        -0.6121
     23 N4         -5.1141   13.5688   -1.1405 N.pl3     1 <0>        -0.8138
     24 N5         -4.6901    9.5896   -3.5729 N.pl3     1 <0>        -0.7959
     25 H1          2.0943    1.2434   -0.0113 H         1 <0>         0.1255
     26 H2          2.0952    3.7010    0.0011 H         1 <0>         0.1256
     27 H3          0.0032    4.9499    0.0270 H         1 <0>         0.1290
     28 H4          0.0021   -0.0041    0.0020 H         1 <0>         0.1298
     29 H5         -2.4726   -0.0044    0.0242 H         1 <0>         0.1295
     30 H6         -4.5694    1.2299    0.0512 H         1 <0>         0.1271
     31 H7         -4.5886    3.6858    0.0643 H         1 <0>         0.1243
     32 H8         -4.7392    5.6335   -0.8149 H         1 <0>         0.1076
     33 H9         -4.7222    5.6251    0.9649 H         1 <0>         0.1072
     34 H10        -4.4315    7.6589    2.2258 H         1 <0>         0.1469
     35 H11        -4.6976   10.1070    2.2660 H         1 <0>         0.1524
     36 H12        -5.1747   14.0446   -1.9835 H         1 <0>         0.4149
     37 H13        -5.1616   14.0568   -0.3035 H         1 <0>         0.4175
     38 H14        -4.5828    8.6260   -3.5995 H         1 <0>         0.4254
     39 H15        -4.7537   10.0936   -4.3993 H         1 <0>         0.4144
@<TRIPOS>BOND
     1    1    6 ar
     2    1    2 ar
     3    1   25 1
     4    2    3 ar
     5    2   26 1
     6    3    4 ar
     7    3   27 1
     8    4   10 ar
     9    4    5 ar
    10    5    6 ar
    11    5    7 ar
    12    6   28 1
    13    7    8 ar
    14    7   29 1
    15    8    9 ar
    16    8   30 1
    17    9   10 ar
    18    9   31 1
    19   10   11 1
    20   11   12 1
    21   12   13 1
    22   12   32 1
    23   12   33 1
    24   13   18 ar
    25   13   14 ar
    26   14   15 ar
    27   14   34 1
    28   15   16 ar
    29   15   35 1
    30   16   22 ar
    31   16   17 ar
    32   17   18 ar
    33   17   19 ar
    34   19   20 ar
    35   19   24 1
    36   20   21 ar
    37   21   22 ar
    38   21   23 1
    39   23   36 1
    40   23   37 1
    41   24   38 1
    42   24   39 1
@<TRIPOS>MOLECULE
ZINC03814919
   40    43     0     0     0
SMALL
USER_CHARGES

@<TRIPOS>ATOM
      1 C1          1.1547    1.7758    0.0006 C.ar      1 <0>        -0.1103
      2 C2          1.1553    3.1691    0.0076 C.ar      1 <0>        -0.1038
      3 C3         -0.0122    3.8700    0.0220 C.ar      1 <0>        -0.1110
      4 C4         -1.2353    3.1823    0.0300 C.ar      1 <0>        -0.0286
      5 C5         -1.2374    1.7657    0.0175 C.ar      1 <0>        -0.0397
      6 C6         -0.0126    1.0758    0.0080 C.ar      1 <0>        -0.1018
      7 C7         -2.4613    1.0755    0.0303 C.ar      1 <0>        -0.0958
      8 C8         -3.6335    1.7690    0.0452 C.ar      1 <0>        -0.1051
      9 C9         -3.6454    3.1599    0.0524 C.ar      1 <0>        -0.1218
     10 C10        -2.4655    3.8753    0.0450 C.ar      1 <0>        -0.0847
     11 S1         -2.4937    5.6370    0.0537 S.3       1 <0>        -0.0724
     12 C11        -4.2605    6.0476    0.0725 C.3       1 <0>        -0.0838
     13 C12        -4.4282    7.5452    0.0812 C.ar      1 <0>         0.1650
     14 C13        -4.4979    8.2137    1.3016 C.ar      1 <0>        -0.0662
     15 C14        -4.6454    9.5724    1.3291 C.ar      1 <0>        -0.0914
     16 C15        -4.7321   10.2526    0.1024 C.ar      1 <0>         0.1435
     17 C16        -4.6590    9.5072   -1.0985 C.ar      1 <0>         0.0322
     18 N1         -4.5103    8.1865   -1.0610 N.ar      1 <0>        -0.4027
     19 C17        -4.7523   10.2431   -2.3604 C.ar      1 <0>         0.5762
     20 N2         -4.8991   11.5589   -2.2978 N.ar      1 <0>        -0.5790
     21 C18        -4.9602   12.1941   -1.1317 C.ar      1 <0>         0.7015
     22 N3         -5.1141   13.5688   -1.1405 N.pl3     1 <0>        -0.7837
     23 N4         -4.6901    9.5896   -3.5729 N.pl3     1 <0>        -0.7349
     24 H1          2.0943    1.2434   -0.0113 H         1 <0>         0.1293
     25 H2          2.0952    3.7010    0.0011 H         1 <0>         0.1278
     26 H3          0.0032    4.9499    0.0270 H         1 <0>         0.1264
     27 H4          0.0021   -0.0041    0.0020 H         1 <0>         0.1336
     28 H5         -2.4726   -0.0044    0.0242 H         1 <0>         0.1337
     29 H6         -4.5694    1.2299    0.0512 H         1 <0>         0.1303
     30 H7         -4.5886    3.6858    0.0643 H         1 <0>         0.1228
     31 H8         -4.7392    5.6335   -0.8149 H         1 <0>         0.1198
     32 H9         -4.7222    5.6251    0.9649 H         1 <0>         0.1204
     33 H10        -4.4315    7.6589    2.2258 H         1 <0>         0.1725
     34 H11        -4.6976   10.1070    2.2660 H         1 <0>         0.1737
     35 H12        -5.1747   14.0446   -1.9835 H         1 <0>         0.4440
     36 H13        -5.1616   14.0568   -0.3035 H         1 <0>         0.4320
     37 H14        -4.5828    8.6260   -3.5995 H         1 <0>         0.4437
     38 H15        -4.7537   10.0936   -4.3993 H         1 <0>         0.4350
     39 N5         -4.8850   11.6216    0.0953 N.ar      1 <0>        -0.6046
     40 H16        -4.9332   12.1238    0.9587 H         1 <0>         0.4580
@<TRIPOS>BOND
     1    1    6 ar
     2    1    2 ar
     3    1   24 1
     4    2    3 ar
     5    2   25 1
     6    3    4 ar
     7    3   26 1
     8    4   10 ar
     9    4    5 ar
    10    5    6 ar
    11    5    7 ar
    12    6   27 1
    13    7    8 ar
    14    7   28 1
    15    8    9 ar
    16    8   29 1
    17    9   10 ar
    18    9   30 1
    19   10   11 1
    20   11   12 1
    21   12   13 1
    22   12   31 1
    23   12   32 1
    24   13   18 ar
    25   13   14 ar
    26   14   15 ar
    27   14   33 1
    28   15   16 ar
    29   15   34 1
    30   16   17 ar
    31   16   39 ar
    32   17   18 ar
    33   17   19 ar
    34   19   20 ar
    35   19   23 1
    36   20   21 ar
    37   21   22 1
    38   21   39 ar
    39   22   35 1
    40   22   36 1
    41   23   37 1
    42   23   38 1
    43   39   40 1
@<TRIPOS>MOLECULE
ZINC03814920
   40    43     0     0     0
SMALL
USER_CHARGES

@<TRIPOS>ATOM
      1 C1          2.3133    5.2608    0.0063 C.ar      1 <0>        -0.1064
      2 C2          1.0965    5.9399    0.0208 C.ar      1 <0>        -0.1313
      3 C3         -0.0841    5.2616    0.0285 C.ar      1 <0>        -0.0950
      4 C4         -0.0791    3.8581    0.0226 C.ar      1 <0>        -0.0970
      5 C5          1.1573    3.1666    0.0075 C.ar      1 <0>        -0.0092
      6 C6          2.3562    3.9005   -0.0006 C.ar      1 <0>        -0.1165
      7 C7          1.1639    1.7615    0.0004 C.ar      1 <0>        -0.1729
      8 C8         -0.0126    1.0758    0.0080 C.ar      1 <0>        -0.0586
      9 C9         -1.2333    1.7435    0.0174 C.ar      1 <0>        -0.2203
     10 C10        -1.2830    3.1214    0.0306 C.ar      1 <0>         0.2332
     11 N1         -2.5104    3.7804    0.0454 N.pl3     1 <0>        -0.7335
     12 C11        -3.7559    3.0091    0.0536 C.3       1 <0>         0.1835
     13 C12        -4.9309    3.9526    0.0693 C.ar      1 <0>         0.0825
     14 C13        -5.5347    4.3054   -1.1356 C.ar      1 <0>        -0.1007
     15 C14        -6.6044    5.1565   -1.1406 C.ar      1 <0>        -0.0840
     16 C15        -7.0549    5.6587    0.0922 C.ar      1 <0>         0.1993
     17 C16        -6.3893    5.2608    1.2761 C.ar      1 <0>        -0.0498
     18 N2         -5.3564    4.4257    1.2173 N.ar      1 <0>        -0.4114
     19 C17        -6.8810    5.8003    2.5449 C.ar      1 <0>         0.5347
     20 N3         -7.9171    6.6259    2.5040 N.ar      1 <0>        -0.6294
     21 C18        -8.4941    6.9564    1.3529 C.ar      1 <0>         0.6238
     22 N4         -8.0924    6.5000    0.1836 N.ar      1 <0>        -0.6130
     23 N5         -9.5715    7.8234    1.3840 N.pl3     1 <0>        -0.8135
     24 N6         -6.2863    5.4615    3.7418 N.pl3     1 <0>        -0.7959
     25 H1          3.2359    5.8223    0.0001 H         1 <0>         0.1218
     26 H2          1.0899    7.0198    0.0257 H         1 <0>         0.1205
     27 H3         -1.0197    5.8009    0.0397 H         1 <0>         0.1162
     28 H4          3.3066    3.3875   -0.0125 H         1 <0>         0.1271
     29 H5          2.1015    1.2257   -0.0114 H         1 <0>         0.1219
     30 H6          0.0021   -0.0041    0.0020 H         1 <0>         0.1206
     31 H7         -2.1522    1.1760    0.0187 H         1 <0>         0.1215
     32 H8         -2.5402    4.7499    0.0503 H         1 <0>         0.3997
     33 H9         -3.8028    2.3852   -0.8389 H         1 <0>         0.0815
     34 H10        -3.7858    2.3768    0.9410 H         1 <0>         0.0807
     35 H11        -5.1602    3.9034   -2.0654 H         1 <0>         0.1459
     36 H12        -7.0868    5.4376   -2.0651 H         1 <0>         0.1512
     37 H13        -9.8877    8.1739    2.2314 H         1 <0>         0.4151
     38 H14       -10.0108    8.0809    0.5584 H         1 <0>         0.4177
     39 H15        -5.5287    4.8559    3.7526 H         1 <0>         0.4254
     40 H16        -6.6257    5.8287    4.5730 H         1 <0>         0.4145
@<TRIPOS>BOND
     1    1    6 ar
     2    1    2 ar
     3    1   25 1
     4    2    3 ar
     5    2   26 1
     6    3    4 ar
     7    3   27 1
     8    4   10 ar
     9    4    5 ar
    10    5    6 ar
    11    5    7 ar
    12    6   28 1
    13    7    8 ar
    14    7   29 1
    15    8    9 ar
    16    8   30 1
    17    9   10 ar
    18    9   31 1
    19   10   11 1
    20   11   12 1
    21   11   32 1
    22   12   13 1
    23   12   33 1
    24   12   34 1
    25   13   18 ar
    26   13   14 ar
    27   14   15 ar
    28   14   35 1
    29   15   16 ar
    30   15   36 1
    31   16   22 ar
    32   16   17 ar
    33   17   18 ar
    34   17   19 ar
    35   19   20 ar
    36   19   24 1
    37   20   21 ar
    38   21   22 ar
    39   21   23 1
    40   23   37 1
    41   23   38 1
    42   24   39 1
    43   24   40 1
@<TRIPOS>MOLECULE
ZINC03814920
   41    44     0     0     0
SMALL
USER_CHARGES

@<TRIPOS>ATOM
      1 C1          2.3133    5.2608    0.0063 C.ar      1 <0>        -0.1067
      2 C2          1.0965    5.9399    0.0208 C.ar      1 <0>        -0.1228
      3 C3         -0.0841    5.2616    0.0285 C.ar      1 <0>        -0.1036
      4 C4         -0.0791    3.8581    0.0226 C.ar      1 <0>        -0.0917
      5 C5          1.1573    3.1666    0.0075 C.ar      1 <0>        -0.0127
      6 C6          2.3562    3.9005   -0.0006 C.ar      1 <0>        -0.1097
      7 C7          1.1639    1.7615    0.0004 C.ar      1 <0>        -0.1571
      8 C8         -0.0126    1.0758    0.0080 C.ar      1 <0>        -0.0660
      9 C9         -1.2333    1.7435    0.0174 C.ar      1 <0>        -0.2085
     10 C10        -1.2830    3.1214    0.0306 C.ar      1 <0>         0.2206
     11 N1         -2.5104    3.7804    0.0454 N.pl3     1 <0>        -0.7412
     12 C11        -3.7559    3.0091    0.0536 C.3       1 <0>         0.1729
     13 C12        -4.9309    3.9526    0.0693 C.ar      1 <0>         0.1303
     14 C13        -5.5347    4.3054   -1.1356 C.ar      1 <0>        -0.0650
     15 C14        -6.6044    5.1565   -1.1406 C.ar      1 <0>        -0.0946
     16 C15        -7.0549    5.6587    0.0922 C.ar      1 <0>         0.1468
     17 C16        -6.3893    5.2608    1.2761 C.ar      1 <0>         0.0270
     18 N2         -5.3564    4.4257    1.2173 N.ar      1 <0>        -0.3988
     19 C17        -6.8810    5.8003    2.5449 C.ar      1 <0>         0.5757
     20 N3         -7.9171    6.6259    2.5040 N.ar      1 <0>        -0.5789
     21 C18        -8.4941    6.9564    1.3529 C.ar      1 <0>         0.7018
     22 N4         -9.5715    7.8234    1.3840 N.pl3     1 <0>        -0.7829
     23 N5         -6.2863    5.4615    3.7418 N.pl3     1 <0>        -0.7345
     24 H1          3.2359    5.8223    0.0001 H         1 <0>         0.1254
     25 H2          1.0899    7.0198    0.0257 H         1 <0>         0.1220
     26 H3         -1.0197    5.8009    0.0397 H         1 <0>         0.1130
     27 H4          3.3066    3.3875   -0.0125 H         1 <0>         0.1308
     28 H5          2.1015    1.2257   -0.0114 H         1 <0>         0.1262
     29 H6          0.0021   -0.0041    0.0020 H         1 <0>         0.1242
     30 H7         -2.1522    1.1760    0.0187 H         1 <0>         0.1210
     31 H8         -2.5402    4.7499    0.0503 H         1 <0>         0.3990
     32 H9         -3.8028    2.3852   -0.8389 H         1 <0>         0.0933
     33 H10        -3.7858    2.3768    0.9410 H         1 <0>         0.0918
     34 H11        -5.1602    3.9034   -2.0654 H         1 <0>         0.1721
     35 H12        -7.0868    5.4376   -2.0651 H         1 <0>         0.1729
     36 H13        -9.8877    8.1739    2.2314 H         1 <0>         0.4444
     37 H14       -10.0108    8.0809    0.5584 H         1 <0>         0.4322
     38 H15        -5.5287    4.8559    3.7526 H         1 <0>         0.4437
     39 H16        -6.6257    5.8287    4.5730 H         1 <0>         0.4352
     40 N6         -8.1283    6.5216    0.1215 N.ar      1 <0>        -0.6056
     41 H17        -8.5808    6.7858   -0.7302 H         1 <0>         0.4582
@<TRIPOS>BOND
     1    1    6 ar
     2    1    2 ar
     3    1   24 1
     4    2    3 ar
     5    2   25 1
     6    3    4 ar
     7    3   26 1
     8    4   10 ar
     9    4    5 ar
    10    5    6 ar
    11    5    7 ar
    12    6   27 1
    13    7    8 ar
    14    7   28 1
    15    8    9 ar
    16    8   29 1
    17    9   10 ar
    18    9   30 1
    19   10   11 1
    20   11   12 1
    21   11   31 1
    22   12   13 1
    23   12   32 1
    24   12   33 1
    25   13   18 ar
    26   13   14 ar
    27   14   15 ar
    28   14   34 1
    29   15   16 ar
    30   15   35 1
    31   16   17 ar
    32   16   40 ar
    33   17   18 ar
    34   17   19 ar
    35   19   20 ar
    36   19   23 1
    37   20   21 ar
    38   21   22 1
    39   21   40 ar
    40   22   36 1
    41   22   37 1
    42   23   38 1
    43   23   39 1
    44   40   41 1
@<TRIPOS>MOLECULE
ZINC03814921
   43    46     0     0     0
SMALL
USER_CHARGES

@<TRIPOS>ATOM
      1 C1         -3.2708    3.5047   -1.1809 C.3       1 <0>         0.0237
      2 N1         -2.5104    3.7804    0.0454 N.pl3     1 <0>        -0.4965
      3 C2         -3.2872    3.4197    1.2389 C.3       1 <0>         0.1147
      4 C3         -4.4870    4.3249    1.3498 C.ar      1 <0>         0.1127
      5 C4         -5.7064    3.9038    0.8238 C.ar      1 <0>        -0.1113
      6 C5         -6.8065    4.7096    0.9191 C.ar      1 <0>        -0.0833
      7 C6         -6.6587    5.9581    1.5472 C.ar      1 <0>         0.1926
      8 C7         -5.3881    6.3217    2.0535 C.ar      1 <0>        -0.0456
      9 N2         -4.3556    5.4925    1.9349 N.ar      1 <0>        -0.4086
     10 C8         -5.2649    7.6280    2.7023 C.ar      1 <0>         0.5333
     11 N3         -6.3499    8.3860    2.7741 N.ar      1 <0>        -0.6303
     12 C9         -7.5131    7.9789    2.2756 C.ar      1 <0>         0.6208
     13 N4         -7.6794    6.8139    1.6825 N.ar      1 <0>        -0.6132
     14 N5         -8.6049    8.8212    2.3854 N.pl3     1 <0>        -0.8158
     15 N6         -4.0611    8.0557    3.2207 N.pl3     1 <0>        -0.7968
     16 C10        -1.2830    3.1214    0.0306 C.ar      1 <0>         0.1071
     17 C11        -1.2333    1.7435    0.0174 C.ar      1 <0>        -0.1501
     18 C12        -0.0126    1.0758    0.0080 C.ar      1 <0>        -0.1066
     19 C13         1.1639    1.7615    0.0004 C.ar      1 <0>        -0.1081
     20 C14         1.1573    3.1666    0.0075 C.ar      1 <0>        -0.0457
     21 C15        -0.0791    3.8581    0.0226 C.ar      1 <0>        -0.0338
     22 C16        -0.0841    5.2616    0.0285 C.ar      1 <0>        -0.0805
     23 C17         1.0965    5.9399    0.0208 C.ar      1 <0>        -0.1268
     24 C18         2.3133    5.2608    0.0063 C.ar      1 <0>        -0.1100
     25 C19         2.3562    3.9005   -0.0006 C.ar      1 <0>        -0.1145
     26 H1         -3.4506    2.4329   -1.2636 H         1 <0>         0.0355
     27 H2         -4.2244    4.0313   -1.1431 H         1 <0>         0.0748
     28 H3         -2.7015    3.8455   -2.0457 H         1 <0>         0.0725
     29 H4         -3.6193    2.3847    1.1571 H         1 <0>         0.0589
     30 H5         -2.6639    3.5323    2.1259 H         1 <0>         0.0951
     31 H6         -5.7834    2.9392    0.3442 H         1 <0>         0.1404
     32 H7         -7.7603    4.3975    0.5201 H         1 <0>         0.1485
     33 H8         -8.5100    9.6844    2.8176 H         1 <0>         0.4142
     34 H9         -9.4654    8.5487    2.0301 H         1 <0>         0.4167
     35 H10        -3.2772    7.4878    3.1589 H         1 <0>         0.4256
     36 H11        -3.9980    8.9246    3.6473 H         1 <0>         0.4132
     37 H12        -2.1522    1.1760    0.0187 H         1 <0>         0.1209
     38 H13         0.0021   -0.0041    0.0020 H         1 <0>         0.1232
     39 H14         2.1015    1.2257   -0.0114 H         1 <0>         0.1269
     40 H15        -1.0197    5.8009    0.0397 H         1 <0>         0.1364
     41 H16         1.0899    7.0198    0.0257 H         1 <0>         0.1214
     42 H17         3.2359    5.8223    0.0001 H         1 <0>         0.1218
     43 H18         3.3066    3.3875   -0.0125 H         1 <0>         0.1265
@<TRIPOS>BOND
     1    1    2 1
     2    1   26 1
     3    1   27 1
     4    1   28 1
     5    2    3 1
     6    2   16 1
     7    3    4 1
     8    3   29 1
     9    3   30 1
    10    4    9 ar
    11    4    5 ar
    12    5    6 ar
    13    5   31 1
    14    6    7 ar
    15    6   32 1
    16    7   13 ar
    17    7    8 ar
    18    8    9 ar
    19    8   10 ar
    20   10   11 ar
    21   10   15 1
    22   11   12 ar
    23   12   13 ar
    24   12   14 1
    25   14   33 1
    26   14   34 1
    27   15   35 1
    28   15   36 1
    29   16   21 ar
    30   16   17 ar
    31   17   18 ar
    32   17   37 1
    33   18   19 ar
    34   18   38 1
    35   19   20 ar
    36   19   39 1
    37   20   25 ar
    38   20   21 ar
    39   21   22 ar
    40   22   23 ar
    41   22   40 1
    42   23   24 ar
    43   23   41 1
    44   24   25 ar
    45   24   42 1
    46   25   43 1
@<TRIPOS>MOLECULE
ZINC03814921
   44    47     0     0     0
SMALL
USER_CHARGES

@<TRIPOS>ATOM
      1 C1         -3.2708    3.5047   -1.1809 C.3       1 <0>         0.0188
      2 N1         -2.5104    3.7804    0.0454 N.pl3     1 <0>        -0.4925
      3 C2         -3.2872    3.4197    1.2389 C.3       1 <0>         0.0978
      4 C3         -4.4870    4.3249    1.3498 C.ar      1 <0>         0.1598
      5 C4         -5.7064    3.9038    0.8238 C.ar      1 <0>        -0.0779
      6 C5         -6.8065    4.7096    0.9191 C.ar      1 <0>        -0.0940
      7 C6         -6.6587    5.9581    1.5472 C.ar      1 <0>         0.1387
      8 C7         -5.3881    6.3217    2.0535 C.ar      1 <0>         0.0307
      9 N2         -4.3556    5.4925    1.9349 N.ar      1 <0>        -0.3954
     10 C8         -5.2649    7.6280    2.7023 C.ar      1 <0>         0.5756
     11 N3         -6.3499    8.3860    2.7741 N.ar      1 <0>        -0.5802
     12 C9         -7.5131    7.9789    2.2756 C.ar      1 <0>         0.7010
     13 N4         -8.6049    8.8212    2.3854 N.pl3     1 <0>        -0.7853
     14 N5         -4.0611    8.0557    3.2207 N.pl3     1 <0>        -0.7352
     15 C10        -1.2830    3.1214    0.0306 C.ar      1 <0>         0.0906
     16 C11        -1.2333    1.7435    0.0174 C.ar      1 <0>        -0.1406
     17 C12        -0.0126    1.0758    0.0080 C.ar      1 <0>        -0.1109
     18 C13         1.1639    1.7615    0.0004 C.ar      1 <0>        -0.0963
     19 C14         1.1573    3.1666    0.0075 C.ar      1 <0>        -0.0472
     20 C15        -0.0791    3.8581    0.0226 C.ar      1 <0>        -0.0299
     21 C16        -0.0841    5.2616    0.0285 C.ar      1 <0>        -0.0905
     22 C17         1.0965    5.9399    0.0208 C.ar      1 <0>        -0.1193
     23 C18         2.3133    5.2608    0.0063 C.ar      1 <0>        -0.1108
     24 C19         2.3562    3.9005   -0.0006 C.ar      1 <0>        -0.1075
     25 H1         -3.4506    2.4329   -1.2636 H         1 <0>         0.0419
     26 H2         -4.2244    4.0313   -1.1431 H         1 <0>         0.0672
     27 H3         -2.7015    3.8455   -2.0457 H         1 <0>         0.0806
     28 H4         -3.6193    2.3847    1.1571 H         1 <0>         0.0729
     29 H5         -2.6639    3.5323    2.1259 H         1 <0>         0.1082
     30 H6         -5.7834    2.9392    0.3442 H         1 <0>         0.1664
     31 H7         -7.7603    4.3975    0.5201 H         1 <0>         0.1703
     32 H8         -8.5100    9.6844    2.8176 H         1 <0>         0.4436
     33 H9         -9.4654    8.5487    2.0301 H         1 <0>         0.4315
     34 H10        -3.2772    7.4878    3.1589 H         1 <0>         0.4440
     35 H11        -3.9980    8.9246    3.6473 H         1 <0>         0.4342
     36 H12        -2.1522    1.1760    0.0187 H         1 <0>         0.1209
     37 H13         0.0021   -0.0041    0.0020 H         1 <0>         0.1268
     38 H14         2.1015    1.2257   -0.0114 H         1 <0>         0.1310
     39 H15        -1.0197    5.8009    0.0397 H         1 <0>         0.1321
     40 H16         1.0899    7.0198    0.0257 H         1 <0>         0.1223
     41 H17         3.2359    5.8223    0.0001 H         1 <0>         0.1252
     42 H18         3.3066    3.3875   -0.0125 H         1 <0>         0.1301
     43 N6         -7.7470    6.7956    1.6561 N.ar      1 <0>        -0.6051
     44 H19        -8.6337    6.5133    1.2899 H         1 <0>         0.4569
@<TRIPOS>BOND
     1    1    2 1
     2    1   25 1
     3    1   26 1
     4    1   27 1
     5    2    3 1
     6    2   15 1
     7    3    4 1
     8    3   28 1
     9    3   29 1
    10    4    9 ar
    11    4    5 ar
    12    5    6 ar
    13    5   30 1
    14    6    7 ar
    15    6   31 1
    16    7    8 ar
    17    7   43 ar
    18    8    9 ar
    19    8   10 ar
    20   10   11 ar
    21   10   14 1
    22   11   12 ar
    23   12   13 1
    24   12   43 ar
    25   13   32 1
    26   13   33 1
    27   14   34 1
    28   14   35 1
    29   15   20 ar
    30   15   16 ar
    31   16   17 ar
    32   16   36 1
    33   17   18 ar
    34   17   37 1
    35   18   19 ar
    36   18   38 1
    37   19   24 ar
    38   19   20 ar
    39   20   21 ar
    40   21   22 ar
    41   21   39 1
    42   22   23 ar
    43   22   40 1
    44   23   24 ar
    45   23   41 1
    46   24   42 1
    47   43   44 1
@<TRIPOS>MOLECULE
ZINC03814922
   34    36     0     0     0
SMALL
USER_CHARGES

@<TRIPOS>ATOM
      1 C1         -0.0167    1.3786    0.0096 C.ar      1 <0>        -0.1800
      2 C2          1.1695    2.0894    0.0021 C.ar      1 <0>        -0.0724
      3 C3          2.3774    1.4200   -0.0131 C.ar      1 <0>        -0.1986
      4 C4          2.3998    0.0311   -0.0208 C.ar      1 <0>         0.2169
      5 C5          1.2064   -0.6798   -0.0132 C.ar      1 <0>        -0.1956
      6 C6          0.0021   -0.0041    0.0020 C.ar      1 <0>        -0.0724
      7 N1          3.6196   -0.6491   -0.0366 N.pl3     1 <0>        -0.7425
      8 C7          4.8773    0.1022   -0.0446 C.3       1 <0>         0.1848
      9 C8          6.0371   -0.8599   -0.0614 C.ar      1 <0>         0.0846
     10 C9          6.6119   -1.2094   -1.2814 C.ar      1 <0>        -0.1008
     11 C10         7.6676   -2.0772   -1.3159 C.ar      1 <0>        -0.0842
     12 C11         8.1336   -2.5995   -0.0973 C.ar      1 <0>         0.1985
     13 C12         7.4973   -2.2037    1.1034 C.ar      1 <0>        -0.0497
     14 N2          6.4769   -1.3518    1.0732 N.ar      1 <0>        -0.4123
     15 C13         8.0046   -2.7643    2.3567 C.ar      1 <0>         0.5345
     16 N3          9.0263   -3.6057    2.2872 N.ar      1 <0>        -0.6294
     17 C14         9.5757   -3.9331    1.1218 C.ar      1 <0>         0.6234
     18 N4          9.1590   -3.4580   -0.0346 N.ar      1 <0>        -0.6130
     19 N5         10.6395   -4.8173    1.1231 N.pl3     1 <0>        -0.8138
     20 N6          7.4386   -2.4288    3.5683 N.pl3     1 <0>        -0.7962
     21 H1         -0.9599    1.9046    0.0170 H         1 <0>         0.1172
     22 H2          1.1513    3.1692    0.0078 H         1 <0>         0.1199
     23 H3          3.3034    1.9757   -0.0190 H         1 <0>         0.1201
     24 H4          1.2204   -1.7597   -0.0194 H         1 <0>         0.1175
     25 H5         -0.9261   -0.5561    0.0076 H         1 <0>         0.1198
     26 H6          3.6341   -1.6190   -0.0423 H         1 <0>         0.3998
     27 H7          4.9170    0.7347   -0.9314 H         1 <0>         0.0779
     28 H8          4.9344    0.7246    0.8484 H         1 <0>         0.0771
     29 H9          6.2260   -0.7917   -2.1996 H         1 <0>         0.1456
     30 H10         8.1275   -2.3561   -2.2524 H         1 <0>         0.1509
     31 H11        10.9663   -5.1817    1.9606 H         1 <0>         0.4150
     32 H12        11.0587   -5.0729    0.2866 H         1 <0>         0.4176
     33 H13         6.6910   -1.8115    3.6001 H         1 <0>         0.4253
     34 H14         7.7879   -2.8101    4.3890 H         1 <0>         0.4144
@<TRIPOS>BOND
     1    1    6 ar
     2    1    2 ar
     3    1   21 1
     4    2    3 ar
     5    2   22 1
     6    3    4 ar
     7    3   23 1
     8    4    5 ar
     9    4    7 1
    10    5    6 ar
    11    5   24 1
    12    6   25 1
    13    7    8 1
    14    7   26 1
    15    8    9 1
    16    8   27 1
    17    8   28 1
    18    9   14 ar
    19    9   10 ar
    20   10   11 ar
    21   10   29 1
    22   11   12 ar
    23   11   30 1
    24   12   18 ar
    25   12   13 ar
    26   13   14 ar
    27   13   15 ar
    28   15   16 ar
    29   15   20 1
    30   16   17 ar
    31   17   18 ar
    32   17   19 1
    33   19   31 1
    34   19   32 1
    35   20   33 1
    36   20   34 1
@<TRIPOS>MOLECULE
ZINC03814922
   35    37     0     0     0
SMALL
USER_CHARGES

@<TRIPOS>ATOM
      1 C1         -0.0167    1.3786    0.0096 C.ar      1 <0>        -0.1681
      2 C2          1.1695    2.0894    0.0021 C.ar      1 <0>        -0.0724
      3 C3          2.3774    1.4200   -0.0131 C.ar      1 <0>        -0.1944
      4 C4          2.3998    0.0311   -0.0208 C.ar      1 <0>         0.2062
      5 C5          1.2064   -0.6798   -0.0132 C.ar      1 <0>        -0.1887
      6 C6          0.0021   -0.0041    0.0020 C.ar      1 <0>        -0.0720
      7 N1          3.6196   -0.6491   -0.0366 N.pl3     1 <0>        -0.7488
      8 C7          4.8773    0.1022   -0.0446 C.3       1 <0>         0.1739
      9 C8          6.0371   -0.8599   -0.0614 C.ar      1 <0>         0.1319
     10 C9          6.6119   -1.2094   -1.2814 C.ar      1 <0>        -0.0651
     11 C10         7.6676   -2.0772   -1.3159 C.ar      1 <0>        -0.0948
     12 C11         8.1336   -2.5995   -0.0973 C.ar      1 <0>         0.1461
     13 C12         7.4973   -2.2037    1.1034 C.ar      1 <0>         0.0271
     14 N2          6.4769   -1.3518    1.0732 N.ar      1 <0>        -0.3994
     15 C13         8.0046   -2.7643    2.3567 C.ar      1 <0>         0.5758
     16 N3          9.0263   -3.6057    2.2872 N.ar      1 <0>        -0.5792
     17 C14         9.5757   -3.9331    1.1218 C.ar      1 <0>         0.7018
     18 N4         10.6395   -4.8173    1.1231 N.pl3     1 <0>        -0.7832
     19 N5          7.4386   -2.4288    3.5683 N.pl3     1 <0>        -0.7348
     20 H1         -0.9599    1.9046    0.0170 H         1 <0>         0.1220
     21 H2          1.1513    3.1692    0.0078 H         1 <0>         0.1238
     22 H3          3.3034    1.9757   -0.0190 H         1 <0>         0.1198
     23 H4          1.2204   -1.7597   -0.0194 H         1 <0>         0.1185
     24 H5         -0.9261   -0.5561    0.0076 H         1 <0>         0.1240
     25 H6          3.6341   -1.6190   -0.0423 H         1 <0>         0.3990
     26 H7          4.9170    0.7347   -0.9314 H         1 <0>         0.0903
     27 H8          4.9344    0.7246    0.8484 H         1 <0>         0.0887
     28 H9          6.2260   -0.7917   -2.1996 H         1 <0>         0.1717
     29 H10         8.1275   -2.3561   -2.2524 H         1 <0>         0.1726
     30 H11        10.9663   -5.1817    1.9606 H         1 <0>         0.4443
     31 H12        11.0587   -5.0729    0.2866 H         1 <0>         0.4321
     32 H13         6.6910   -1.8115    3.6001 H         1 <0>         0.4436
     33 H14         7.7879   -2.8101    4.3890 H         1 <0>         0.4351
     34 N6          9.1934   -3.4795   -0.0976 N.ar      1 <0>        -0.6055
     35 H15         9.6252   -3.7418   -0.9606 H         1 <0>         0.4581
@<TRIPOS>BOND
     1    1    6 ar
     2    1    2 ar
     3    1   20 1
     4    2    3 ar
     5    2   21 1
     6    3    4 ar
     7    3   22 1
     8    4    5 ar
     9    4    7 1
    10    5    6 ar
    11    5   23 1
    12    6   24 1
    13    7    8 1
    14    7   25 1
    15    8    9 1
    16    8   26 1
    17    8   27 1
    18    9   14 ar
    19    9   10 ar
    20   10   11 ar
    21   10   28 1
    22   11   12 ar
    23   11   29 1
    24   12   13 ar
    25   12   34 ar
    26   13   14 ar
    27   13   15 ar
    28   15   16 ar
    29   15   19 1
    30   16   17 ar
    31   17   18 1
    32   17   34 ar
    33   18   30 1
    34   18   31 1
    35   19   32 1
    36   19   33 1
    37   34   35 1
@<TRIPOS>MOLECULE
ZINC03814923
   39    41     0     0     0
SMALL
USER_CHARGES

@<TRIPOS>ATOM
      1 C1          2.4708    4.3104    0.0016 C.3       1 <0>        -0.1931
      2 C2          1.1735    3.5436    0.0099 C.2       1 <0>         0.3975
      3 O1          0.1169    4.1393    0.0232 O.2       1 <0>        -0.4719
      4 C3          1.1885    2.0762    0.0019 C.ar      1 <0>        -0.2409
      5 C4         -0.0164    1.3612    0.0095 C.ar      1 <0>        -0.0072
      6 C5          0.0021   -0.0041    0.0020 C.ar      1 <0>        -0.2109
      7 C6          1.2167   -0.6862   -0.0132 C.ar      1 <0>         0.2545
      8 C7          2.4171    0.0207   -0.0204 C.ar      1 <0>        -0.2147
      9 C8          2.4078    1.3861   -0.0130 C.ar      1 <0>        -0.0191
     10 N1          1.2309   -2.0750   -0.0208 N.pl3     1 <0>        -0.7290
     11 C9          2.5070   -2.7944   -0.0369 C.3       1 <0>         0.1798
     12 C10         2.2467   -4.2788   -0.0424 C.ar      1 <0>         0.0807
     13 C11         2.2166   -4.9585   -1.2581 C.ar      1 <0>        -0.1007
     14 C12         1.9864   -6.3058   -1.2823 C.ar      1 <0>        -0.0837
     15 C13         1.7758   -6.9622   -0.0577 C.ar      1 <0>         0.2003
     16 C14         1.8154   -6.2063    1.1381 C.ar      1 <0>        -0.0501
     17 N2          2.0488   -4.8979    1.0979 N.ar      1 <0>        -0.4112
     18 C15         1.5924   -6.9174    2.3980 C.ar      1 <0>         0.5349
     19 N3          1.3679   -8.2223    2.3384 N.ar      1 <0>        -0.6291
     20 C16         1.3449   -8.8686    1.1770 C.ar      1 <0>         0.6245
     21 N4          1.5396   -8.2780    0.0151 N.ar      1 <0>        -0.6130
     22 N5          1.1049  -10.2309    1.1887 N.pl3     1 <0>        -0.8131
     23 N6          1.6146   -6.2523    3.6055 N.pl3     1 <0>        -0.7958
     24 H1          2.7487    4.4851   -0.9430 H         1 <0>         0.0857
     25 H2          2.3357    5.2587    0.5219 H         1 <0>         0.0855
     26 H3          3.2413    3.7264    0.5050 H         1 <0>         0.0844
     27 H4         -0.9585    1.8893    0.0169 H         1 <0>         0.1312
     28 H5         -0.9262   -0.5560    0.0083 H         1 <0>         0.1252
     29 H6          3.3565   -0.5120   -0.0316 H         1 <0>         0.1281
     30 H7          3.3389    1.9333   -0.0183 H         1 <0>         0.1315
     31 H8          0.3959   -2.5686   -0.0155 H         1 <0>         0.4037
     32 H9          3.0673   -2.5205   -0.9308 H         1 <0>         0.0832
     33 H10         3.0843   -2.5300    0.8491 H         1 <0>         0.0824
     34 H11         2.3790   -4.4218   -2.1811 H         1 <0>         0.1459
     35 H12         1.9633   -6.8491   -2.2154 H         1 <0>         0.1514
     36 H13         0.9586  -10.6904    2.0304 H         1 <0>         0.4153
     37 H14         1.0828  -10.7266    0.3553 H         1 <0>         0.4179
     38 H15         1.7801   -5.2968    3.6300 H         1 <0>         0.4253
     39 H16         1.4647   -6.7398    4.4306 H         1 <0>         0.4147
@<TRIPOS>BOND
     1    1    2 1
     2    1   24 1
     3    1   25 1
     4    1   26 1
     5    2    3 2
     6    2    4 1
     7    4    9 ar
     8    4    5 ar
     9    5    6 ar
    10    5   27 1
    11    6    7 ar
    12    6   28 1
    13    7    8 ar
    14    7   10 1
    15    8    9 ar
    16    8   29 1
    17    9   30 1
    18   10   11 1
    19   10   31 1
    20   11   12 1
    21   11   32 1
    22   11   33 1
    23   12   17 ar
    24   12   13 ar
    25   13   14 ar
    26   13   34 1
    27   14   15 ar
    28   14   35 1
    29   15   21 ar
    30   15   16 ar
    31   16   17 ar
    32   16   18 ar
    33   18   19 ar
    34   18   23 1
    35   19   20 ar
    36   20   21 ar
    37   20   22 1
    38   22   36 1
    39   22   37 1
    40   23   38 1
    41   23   39 1
@<TRIPOS>MOLECULE
ZINC03814923
   40    42     0     0     0
SMALL
USER_CHARGES

@<TRIPOS>ATOM
      1 C1          2.4708    4.3104    0.0016 C.3       1 <0>        -0.1936
      2 C2          1.1735    3.5436    0.0099 C.2       1 <0>         0.3946
      3 O1          0.1169    4.1393    0.0232 O.2       1 <0>        -0.4635
      4 C3          1.1885    2.0762    0.0019 C.ar      1 <0>        -0.2258
      5 C4         -0.0164    1.3612    0.0095 C.ar      1 <0>        -0.0093
      6 C5          0.0021   -0.0041    0.0020 C.ar      1 <0>        -0.2029
      7 C6          1.2167   -0.6862   -0.0132 C.ar      1 <0>         0.2427
      8 C7          2.4171    0.0207   -0.0204 C.ar      1 <0>        -0.2098
      9 C8          2.4078    1.3861   -0.0130 C.ar      1 <0>        -0.0210
     10 N1          1.2309   -2.0750   -0.0208 N.pl3     1 <0>        -0.7378
     11 C9          2.5070   -2.7944   -0.0369 C.3       1 <0>         0.1695
     12 C10         2.2467   -4.2788   -0.0424 C.ar      1 <0>         0.1286
     13 C11         2.2166   -4.9585   -1.2581 C.ar      1 <0>        -0.0649
     14 C12         1.9864   -6.3058   -1.2823 C.ar      1 <0>        -0.0944
     15 C13         1.7758   -6.9622   -0.0577 C.ar      1 <0>         0.1480
     16 C14         1.8154   -6.2063    1.1381 C.ar      1 <0>         0.0271
     17 N2          2.0488   -4.8979    1.0979 N.ar      1 <0>        -0.3987
     18 C15         1.5924   -6.9174    2.3980 C.ar      1 <0>         0.5758
     19 N3          1.3679   -8.2223    2.3384 N.ar      1 <0>        -0.5787
     20 C16         1.3449   -8.8686    1.1770 C.ar      1 <0>         0.7020
     21 N4          1.1049  -10.2309    1.1887 N.pl3     1 <0>        -0.7824
     22 N5          1.6146   -6.2523    3.6055 N.pl3     1 <0>        -0.7345
     23 H1          2.7487    4.4851   -0.9430 H         1 <0>         0.0873
     24 H2          2.3357    5.2587    0.5219 H         1 <0>         0.0887
     25 H3          3.2413    3.7264    0.5050 H         1 <0>         0.0844
     26 H4         -0.9585    1.8893    0.0169 H         1 <0>         0.1350
     27 H5         -0.9262   -0.5560    0.0083 H         1 <0>         0.1261
     28 H6          3.3565   -0.5120   -0.0316 H         1 <0>         0.1277
     29 H7          3.3389    1.9333   -0.0183 H         1 <0>         0.1352
     30 H8          0.3959   -2.5686   -0.0155 H         1 <0>         0.4027
     31 H9          3.0673   -2.5205   -0.9308 H         1 <0>         0.0950
     32 H10         3.0843   -2.5300    0.8491 H         1 <0>         0.0934
     33 H11         2.3790   -4.4218   -2.1811 H         1 <0>         0.1721
     34 H12         1.9633   -6.8491   -2.2154 H         1 <0>         0.1731
     35 H13         0.9586  -10.6904    2.0304 H         1 <0>         0.4445
     36 H14         1.0828  -10.7266    0.3553 H         1 <0>         0.4324
     37 H15         1.7801   -5.2968    3.6300 H         1 <0>         0.4435
     38 H16         1.4647   -6.7398    4.4306 H         1 <0>         0.4354
     39 N6          1.5374   -8.3189   -0.0477 N.ar      1 <0>        -0.6058
     40 H17         1.5155   -8.8291   -0.9074 H         1 <0>         0.4584
@<TRIPOS>BOND
     1    1    2 1
     2    1   23 1
     3    1   24 1
     4    1   25 1
     5    2    3 2
     6    2    4 1
     7    4    9 ar
     8    4    5 ar
     9    5    6 ar
    10    5   26 1
    11    6    7 ar
    12    6   27 1
    13    7    8 ar
    14    7   10 1
    15    8    9 ar
    16    8   28 1
    17    9   29 1
    18   10   11 1
    19   10   30 1
    20   11   12 1
    21   11   31 1
    22   11   32 1
    23   12   17 ar
    24   12   13 ar
    25   13   14 ar
    26   13   33 1
    27   14   15 ar
    28   14   34 1
    29   15   16 ar
    30   15   39 ar
    31   16   17 ar
    32   16   18 ar
    33   18   19 ar
    34   18   22 1
    35   19   20 ar
    36   20   21 1
    37   20   39 ar
    38   21   35 1
    39   21   36 1
    40   22   37 1
    41   22   38 1
    42   39   40 1
@<TRIPOS>MOLECULE
ZINC03814924
   42    44     0     0     0
SMALL
USER_CHARGES

@<TRIPOS>ATOM
      1 C1          0.2041   -2.0957    6.1580 C.3       1 <0>        -0.1933
      2 C2          0.0876   -2.8394    4.8524 C.2       1 <0>         0.3966
      3 O1          0.0105   -4.0500    4.8488 O.2       1 <0>        -0.4730
      4 C3          0.0674   -2.0990    3.5855 C.ar      1 <0>        -0.2385
      5 C4          0.0757   -2.7909    2.3672 C.ar      1 <0>        -0.0110
      6 C5          0.0564   -2.0981    1.1908 C.ar      1 <0>        -0.2127
      7 C6          0.0284   -0.7052    1.2006 C.ar      1 <0>         0.2517
      8 C7          0.0253   -0.0131    2.4097 C.ar      1 <0>        -0.1980
      9 C8          0.0392   -0.6982    3.5908 C.ar      1 <0>        -0.0272
     10 N1          0.0093   -0.0045    0.0016 N.pl3     1 <0>        -0.6141
     11 C9          0.0186   -0.7301   -1.2710 C.3       1 <0>         0.0852
     12 C10        -0.0202    1.4602    0.0096 C.3       1 <0>         0.1744
     13 C11         1.3902    1.9910    0.0064 C.ar      1 <0>         0.0795
     14 C12         1.9853    2.3305   -1.2067 C.ar      1 <0>        -0.1051
     15 C13         3.2623    2.8178   -1.2287 C.ar      1 <0>        -0.0841
     16 C14         3.9402    2.9503   -0.0048 C.ar      1 <0>         0.1950
     17 C15         3.2745    2.5806    1.1882 C.ar      1 <0>        -0.0461
     18 N2          2.0291    2.1168    1.1460 N.ar      1 <0>        -0.4112
     19 C16         4.0059    2.7296    2.4473 C.ar      1 <0>         0.5340
     20 N3          5.2434    3.2009    2.3898 N.ar      1 <0>        -0.6296
     21 C17         5.8064    3.5287    1.2310 C.ar      1 <0>         0.6221
     22 N4          5.1936    3.4149    0.0699 N.ar      1 <0>        -0.6137
     23 N5          7.1015    4.0145    1.2448 N.pl3     1 <0>        -0.8148
     24 N6          3.4274    2.3909    3.6521 N.pl3     1 <0>        -0.7964
     25 H1          0.1736   -1.1113    5.9847 H         1 <0>         0.0730
     26 H2         -0.6229   -2.3756    6.8106 H         1 <0>         0.0903
     27 H3          1.1486   -2.3510    6.6385 H         1 <0>         0.0920
     28 H4          0.0971   -3.8707    2.3587 H         1 <0>         0.1296
     29 H5          0.0625   -2.6306    0.2512 H         1 <0>         0.1271
     30 H6          0.0081    1.0667    2.4128 H         1 <0>         0.1351
     31 H7          0.0322   -0.1609    4.5277 H         1 <0>         0.1300
     32 H8          1.0483   -0.8893   -1.5910 H         1 <0>         0.0517
     33 H9         -0.4754   -1.6933   -1.1437 H         1 <0>         0.0744
     34 H10        -0.5102   -0.1474   -2.0253 H         1 <0>         0.0730
     35 H11        -0.5450    1.8178   -0.8763 H         1 <0>         0.0979
     36 H12        -0.5374    1.8083    0.9037 H         1 <0>         0.0970
     37 H13         1.4364    2.2124   -2.1292 H         1 <0>         0.1412
     38 H14         3.7377    3.0894   -2.1597 H         1 <0>         0.1483
     39 H15         7.5753    4.1085    2.0860 H         1 <0>         0.4146
     40 H16         7.5358    4.2611    0.4133 H         1 <0>         0.4171
     41 H17         2.5206    2.0471    3.6750 H         1 <0>         0.4242
     42 H18         3.9271    2.4963    4.4767 H         1 <0>         0.4138
@<TRIPOS>BOND
     1    1    2 1
     2    1   25 1
     3    1   26 1
     4    1   27 1
     5    2    3 2
     6    2    4 1
     7    4    9 ar
     8    4    5 ar
     9    5    6 ar
    10    5   28 1
    11    6    7 ar
    12    6   29 1
    13    7    8 ar
    14    7   10 1
    15    8    9 ar
    16    8   30 1
    17    9   31 1
    18   10   11 1
    19   10   12 1
    20   11   32 1
    21   11   33 1
    22   11   34 1
    23   12   13 1
    24   12   35 1
    25   12   36 1
    26   13   18 ar
    27   13   14 ar
    28   14   15 ar
    29   14   37 1
    30   15   16 ar
    31   15   38 1
    32   16   22 ar
    33   16   17 ar
    34   17   18 ar
    35   17   19 ar
    36   19   20 ar
    37   19   24 1
    38   20   21 ar
    39   21   22 ar
    40   21   23 1
    41   23   39 1
    42   23   40 1
    43   24   41 1
    44   24   42 1
@<TRIPOS>MOLECULE
ZINC03814924
   43    45     0     0     0
SMALL
USER_CHARGES

@<TRIPOS>ATOM
      1 C1          0.2041   -2.0957    6.1580 C.3       1 <0>        -0.1938
      2 C2          0.0876   -2.8394    4.8524 C.2       1 <0>         0.3922
      3 O1          0.0105   -4.0500    4.8488 O.2       1 <0>        -0.4623
      4 C3          0.0674   -2.0990    3.5855 C.ar      1 <0>        -0.2255
      5 C4          0.0757   -2.7909    2.3672 C.ar      1 <0>        -0.0108
      6 C5          0.0564   -2.0981    1.1908 C.ar      1 <0>        -0.2036
      7 C6          0.0284   -0.7052    1.2006 C.ar      1 <0>         0.2396
      8 C7          0.0253   -0.0131    2.4097 C.ar      1 <0>        -0.2030
      9 C8          0.0392   -0.6982    3.5908 C.ar      1 <0>        -0.0304
     10 N1          0.0093   -0.0045    0.0016 N.pl3     1 <0>        -0.6180
     11 C9          0.0186   -0.7301   -1.2710 C.3       1 <0>         0.0821
     12 C10        -0.0202    1.4602    0.0096 C.3       1 <0>         0.1636
     13 C11         1.3902    1.9910    0.0064 C.ar      1 <0>         0.1256
     14 C12         1.9853    2.3305   -1.2067 C.ar      1 <0>        -0.0703
     15 C13         3.2623    2.8178   -1.2287 C.ar      1 <0>        -0.0949
     16 C14         3.9402    2.9503   -0.0048 C.ar      1 <0>         0.1416
     17 C15         3.2745    2.5806    1.1882 C.ar      1 <0>         0.0299
     18 N2          2.0291    2.1168    1.1460 N.ar      1 <0>        -0.3994
     19 C16         4.0059    2.7296    2.4473 C.ar      1 <0>         0.5758
     20 N3          5.2434    3.2009    2.3898 N.ar      1 <0>        -0.5794
     21 C17         5.8064    3.5287    1.2310 C.ar      1 <0>         0.7012
     22 N4          7.1015    4.0145    1.2448 N.pl3     1 <0>        -0.7841
     23 N5          3.4274    2.3909    3.6521 N.pl3     1 <0>        -0.7357
     24 H1          0.1736   -1.1113    5.9847 H         1 <0>         0.0719
     25 H2         -0.6229   -2.3756    6.8106 H         1 <0>         0.0939
     26 H3          1.1486   -2.3510    6.6385 H         1 <0>         0.0936
     27 H4          0.0971   -3.8707    2.3587 H         1 <0>         0.1343
     28 H5          0.0625   -2.6306    0.2512 H         1 <0>         0.1303
     29 H6          0.0081    1.0667    2.4128 H         1 <0>         0.1319
     30 H7          0.0322   -0.1609    4.5277 H         1 <0>         0.1328
     31 H8          1.0483   -0.8893   -1.5910 H         1 <0>         0.0517
     32 H9         -0.4754   -1.6933   -1.1437 H         1 <0>         0.0806
     33 H10        -0.5102   -0.1474   -2.0253 H         1 <0>         0.0765
     34 H11        -0.5450    1.8178   -0.8763 H         1 <0>         0.1112
     35 H12        -0.5374    1.8083    0.9037 H         1 <0>         0.1087
     36 H13         1.4364    2.2124   -2.1292 H         1 <0>         0.1673
     37 H14         3.7377    3.0894   -2.1597 H         1 <0>         0.1701
     38 H15         7.5753    4.1085    2.0860 H         1 <0>         0.4440
     39 H16         7.5358    4.2611    0.4133 H         1 <0>         0.4318
     40 H17         2.5206    2.0471    3.6750 H         1 <0>         0.4424
     41 H18         3.9271    2.4963    4.4767 H         1 <0>         0.4347
     42 N6          5.2297    3.4348    0.0073 N.ar      1 <0>        -0.6055
     43 H19         5.6762    3.6894   -0.8505 H         1 <0>         0.4573
@<TRIPOS>BOND
     1    1    2 1
     2    1   24 1
     3    1   25 1
     4    1   26 1
     5    2    3 2
     6    2    4 1
     7    4    9 ar
     8    4    5 ar
     9    5    6 ar
    10    5   27 1
    11    6    7 ar
    12    6   28 1
    13    7    8 ar
    14    7   10 1
    15    8    9 ar
    16    8   29 1
    17    9   30 1
    18   10   11 1
    19   10   12 1
    20   11   31 1
    21   11   32 1
    22   11   33 1
    23   12   13 1
    24   12   34 1
    25   12   35 1
    26   13   18 ar
    27   13   14 ar
    28   14   15 ar
    29   14   36 1
    30   15   16 ar
    31   15   37 1
    32   16   17 ar
    33   16   42 ar
    34   17   18 ar
    35   17   19 ar
    36   19   20 ar
    37   19   23 1
    38   20   21 ar
    39   21   22 1
    40   21   42 ar
    41   22   38 1
    42   22   39 1
    43   23   40 1
    44   23   41 1
    45   42   43 1
@<TRIPOS>MOLECULE
ZINC03814925
   41    43     0     0     0
SMALL
USER_CHARGES

@<TRIPOS>ATOM
      1 C1          0.2031   -2.0960    6.1585 C.3       1 <0>        -0.1930
      2 C2          0.0866   -2.8396    4.8529 C.2       1 <0>         0.3960
      3 O1          0.0091   -4.0503    4.8492 O.2       1 <0>        -0.4668
      4 C3          0.0669   -2.0993    3.5860 C.ar      1 <0>        -0.2203
      5 C4          0.0753   -2.7913    2.3677 C.ar      1 <0>        -0.0172
      6 C5          0.0564   -2.0985    1.1912 C.ar      1 <0>        -0.1870
      7 C6          0.0284   -0.7055    1.2011 C.ar      1 <0>         0.2291
      8 C7          0.0253   -0.0133    2.4103 C.ar      1 <0>        -0.1796
      9 C8          0.0392   -0.6984    3.5913 C.ar      1 <0>        -0.0328
     10 N1          0.0093   -0.0045    0.0016 N.pl3     1 <0>        -0.4823
     11 C9         -0.0202    1.4601    0.0096 C.3       1 <0>         0.1756
     12 C10         1.3902    1.9910    0.0064 C.ar      1 <0>         0.0738
     13 C11         1.9854    2.3305   -1.2067 C.ar      1 <0>        -0.0996
     14 C12         3.2623    2.8178   -1.2287 C.ar      1 <0>        -0.0832
     15 C13         3.9402    2.9503   -0.0048 C.ar      1 <0>         0.1991
     16 C14         3.2745    2.5805    1.1881 C.ar      1 <0>        -0.0471
     17 N2          2.0291    2.1168    1.1460 N.ar      1 <0>        -0.4093
     18 C15         4.0059    2.7296    2.4473 C.ar      1 <0>         0.5353
     19 N3          5.2434    3.2009    2.3898 N.ar      1 <0>        -0.6290
     20 C16         5.8064    3.5287    1.2310 C.ar      1 <0>         0.6234
     21 N4          5.1937    3.4148    0.0699 N.ar      1 <0>        -0.6130
     22 N5          7.1015    4.0145    1.2448 N.pl3     1 <0>        -0.8138
     23 N6          3.4274    2.3909    3.6521 N.pl3     1 <0>        -0.7962
     24 C17         0.0179   -0.6756   -1.1755 C.1       1 <0>         0.0206
     25 C18         0.0254   -1.2571   -2.1954 C.1       1 <0>        -0.1985
     26 H1          0.1729   -1.1116    5.9853 H         1 <0>         0.0736
     27 H2         -0.6240   -2.3756    6.8109 H         1 <0>         0.0921
     28 H3          1.1475   -2.3516    6.6391 H         1 <0>         0.0937
     29 H4          0.0963   -3.8710    2.3591 H         1 <0>         0.1345
     30 H5          0.0629   -2.6311    0.2517 H         1 <0>         0.1300
     31 H6          0.0077    1.0665    2.4134 H         1 <0>         0.1402
     32 H7          0.0323   -0.1611    4.5282 H         1 <0>         0.1363
     33 H8         -0.5450    1.8178   -0.8763 H         1 <0>         0.1059
     34 H9         -0.5374    1.8083    0.9036 H         1 <0>         0.1090
     35 H10         1.4364    2.2124   -2.1293 H         1 <0>         0.1425
     36 H11         3.7377    3.0893   -2.1597 H         1 <0>         0.1502
     37 H12         7.5753    4.1085    2.0860 H         1 <0>         0.4150
     38 H13         7.5358    4.2611    0.4133 H         1 <0>         0.4175
     39 H14         2.5206    2.0471    3.6750 H         1 <0>         0.4239
     40 H15         3.9271    2.4963    4.4767 H         1 <0>         0.4144
     41 H16         0.0320   -1.7771   -3.1075 H         1 <0>         0.2370
@<TRIPOS>BOND
     1    1    2 1
     2    1   26 1
     3    1   27 1
     4    1   28 1
     5    2    3 2
     6    2    4 1
     7    4    9 ar
     8    4    5 ar
     9    5    6 ar
    10    5   29 1
    11    6    7 ar
    12    6   30 1
    13    7    8 ar
    14    7   10 1
    15    8    9 ar
    16    8   31 1
    17    9   32 1
    18   10   11 1
    19   10   24 1
    20   11   12 1
    21   11   33 1
    22   11   34 1
    23   12   17 ar
    24   12   13 ar
    25   13   14 ar
    26   13   35 1
    27   14   15 ar
    28   14   36 1
    29   15   21 ar
    30   15   16 ar
    31   16   17 ar
    32   16   18 ar
    33   18   19 ar
    34   18   23 1
    35   19   20 ar
    36   20   21 ar
    37   20   22 1
    38   22   37 1
    39   22   38 1
    40   23   39 1
    41   23   40 1
    42   24   25 3
    43   25   41 1
@<TRIPOS>MOLECULE
ZINC03814925
   42    44     0     0     0
SMALL
USER_CHARGES

@<TRIPOS>ATOM
      1 C1          0.2031   -2.0960    6.1585 C.3       1 <0>        -0.1934
      2 C2          0.0866   -2.8396    4.8529 C.2       1 <0>         0.3915
      3 O1          0.0091   -4.0503    4.8492 O.2       1 <0>        -0.4567
      4 C3          0.0669   -2.0993    3.5860 C.ar      1 <0>        -0.2089
      5 C4          0.0753   -2.7913    2.3677 C.ar      1 <0>        -0.0161
      6 C5          0.0564   -2.0985    1.1912 C.ar      1 <0>        -0.1792
      7 C6          0.0284   -0.7055    1.2011 C.ar      1 <0>         0.2178
      8 C7          0.0253   -0.0133    2.4103 C.ar      1 <0>        -0.1855
      9 C8          0.0392   -0.6984    3.5913 C.ar      1 <0>        -0.0358
     10 N1          0.0093   -0.0045    0.0016 N.pl3     1 <0>        -0.4838
     11 C9         -0.0202    1.4601    0.0096 C.3       1 <0>         0.1654
     12 C10         1.3902    1.9910    0.0064 C.ar      1 <0>         0.1203
     13 C11         1.9854    2.3305   -1.2067 C.ar      1 <0>        -0.0644
     14 C12         3.2623    2.8178   -1.2287 C.ar      1 <0>        -0.0938
     15 C13         3.9402    2.9503   -0.0048 C.ar      1 <0>         0.1461
     16 C14         3.2745    2.5805    1.1881 C.ar      1 <0>         0.0290
     17 N2          2.0291    2.1168    1.1460 N.ar      1 <0>        -0.3977
     18 C15         4.0059    2.7296    2.4473 C.ar      1 <0>         0.5767
     19 N3          5.2434    3.2009    2.3898 N.ar      1 <0>        -0.5786
     20 C16         5.8064    3.5287    1.2310 C.ar      1 <0>         0.7017
     21 N4          7.1015    4.0145    1.2448 N.pl3     1 <0>        -0.7831
     22 N5          3.4274    2.3909    3.6521 N.pl3     1 <0>        -0.7356
     23 C17         0.0179   -0.6756   -1.1755 C.1       1 <0>         0.0034
     24 C18         0.0254   -1.2571   -2.1954 C.1       1 <0>        -0.1759
     25 H1          0.1729   -1.1116    5.9853 H         1 <0>         0.0725
     26 H2         -0.6240   -2.3756    6.8109 H         1 <0>         0.0955
     27 H3          1.1475   -2.3516    6.6391 H         1 <0>         0.0952
     28 H4          0.0963   -3.8710    2.3591 H         1 <0>         0.1388
     29 H5          0.0629   -2.6311    0.2517 H         1 <0>         0.1326
     30 H6          0.0077    1.0665    2.4134 H         1 <0>         0.1367
     31 H7          0.0323   -0.1611    4.5282 H         1 <0>         0.1388
     32 H8         -0.5450    1.8178   -0.8763 H         1 <0>         0.1188
     33 H9         -0.5374    1.8083    0.9036 H         1 <0>         0.1206
     34 H10         1.4364    2.2124   -2.1293 H         1 <0>         0.1686
     35 H11         3.7377    3.0893   -2.1597 H         1 <0>         0.1720
     36 H12         7.5753    4.1085    2.0860 H         1 <0>         0.4443
     37 H13         7.5358    4.2611    0.4133 H         1 <0>         0.4321
     38 H14         2.5206    2.0471    3.6750 H         1 <0>         0.4421
     39 H15         3.9271    2.4963    4.4767 H         1 <0>         0.4352
     40 H16         0.0320   -1.7771   -3.1075 H         1 <0>         0.2401
     41 N6          5.2298    3.4347    0.0073 N.ar      1 <0>        -0.6054
     42 H17         5.6764    3.6892   -0.8505 H         1 <0>         0.4580
@<TRIPOS>BOND
     1    1    2 1
     2    1   25 1
     3    1   26 1
     4    1   27 1
     5    2    3 2
     6    2    4 1
     7    4    9 ar
     8    4    5 ar
     9    5    6 ar
    10    5   28 1
    11    6    7 ar
    12    6   29 1
    13    7    8 ar
    14    7   10 1
    15    8    9 ar
    16    8   30 1
    17    9   31 1
    18   10   11 1
    19   10   23 1
    20   11   12 1
    21   11   32 1
    22   11   33 1
    23   12   17 ar
    24   12   13 ar
    25   13   14 ar
    26   13   34 1
    27   14   15 ar
    28   14   35 1
    29   15   16 ar
    30   15   41 ar
    31   16   17 ar
    32   16   18 ar
    33   18   19 ar
    34   18   22 1
    35   19   20 ar
    36   20   21 1
    37   20   41 ar
    38   21   36 1
    39   21   37 1
    40   22   38 1
    41   22   39 1
    42   23   24 3
    43   24   40 1
    44   41   42 1
@<TRIPOS>MOLECULE
ZINC03814926
   42    44     0     0     0
SMALL
USER_CHARGES

@<TRIPOS>ATOM
      1 C1          0.0338   -0.6866   -1.2561 C.3       1 <0>         0.0828
      2 N1          0.0842    0.0295    0.0210 N.pl3     1 <0>        -0.6094
      3 C2          0.1340    1.4935    0.0384 C.3       1 <0>         0.1724
      4 C3          1.5707    1.9476    0.0152 C.ar      1 <0>         0.0774
      5 C4          2.1637    2.2631   -1.2054 C.ar      1 <0>        -0.1047
      6 C5          3.4646    2.6810   -1.2455 C.ar      1 <0>        -0.0839
      7 C6          4.1683    2.7682   -0.0322 C.ar      1 <0>         0.1964
      8 C7          3.5030    2.4265    1.1693 C.ar      1 <0>        -0.0464
      9 N2          2.2338    2.0308    1.1449 N.ar      1 <0>        -0.4114
     10 C8          4.2615    2.5271    2.4171 C.ar      1 <0>         0.5343
     11 N3          5.5216    2.9314    2.3421 N.ar      1 <0>        -0.6294
     12 C9          6.0827    3.2365    1.1763 C.ar      1 <0>         0.6230
     13 N4          5.4460    3.1640    0.0247 N.ar      1 <0>        -0.6140
     14 N5          7.4022    3.6517    1.1717 N.pl3     1 <0>        -0.8144
     15 N6          3.6851    2.2116    3.6292 N.pl3     1 <0>        -0.7960
     16 C10         0.0848   -0.6797    1.2152 C.ar      1 <0>         0.2647
     17 C11         0.1386    0.0031    2.4284 C.ar      1 <0>        -0.1958
     18 C12         0.1345   -0.6899    3.6049 C.ar      1 <0>        -0.0192
     19 C13         0.0869   -2.0901    3.5906 C.ar      1 <0>        -0.2448
     20 C14         0.0383   -2.7729    2.3681 C.ar      1 <0>         0.0042
     21 C15         0.0374   -2.0719    1.1964 C.ar      1 <0>        -0.2128
     22 C16         0.0876   -2.8394    4.8524 C.2       1 <0>         0.3779
     23 O1          0.5292   -3.9687    4.8871 O.2       1 <0>        -0.3933
     24 C17        -0.4604   -2.2058    6.1052 C.3       1 <0>         0.4250
     25 F1          0.5767   -2.0194    7.0255 F         1 <0>        -0.1664
     26 F2         -1.0325   -0.9686    5.7903 F         1 <0>        -0.1645
     27 F3         -1.4341   -3.0414    6.6629 F         1 <0>        -0.1643
     28 H1          1.0481   -0.8989   -1.5939 H         1 <0>         0.0544
     29 H2         -0.5094   -1.6227   -1.1265 H         1 <0>         0.0760
     30 H3         -0.4749   -0.0711   -1.9979 H         1 <0>         0.0753
     31 H4         -0.3850    1.8851   -0.8365 H         1 <0>         0.1002
     32 H5         -0.3492    1.8628    0.9430 H         1 <0>         0.0988
     33 H6          1.5944    2.1811   -2.1195 H         1 <0>         0.1415
     34 H7          3.9388    2.9330   -2.1825 H         1 <0>         0.1486
     35 H8          7.8939    3.7142    2.0055 H         1 <0>         0.4149
     36 H9          7.8357    3.8804    0.3346 H         1 <0>         0.4172
     37 H10         2.7616    1.9171    3.6650 H         1 <0>         0.4241
     38 H11         4.2030    2.2842    4.4461 H         1 <0>         0.4144
     39 H12         0.1797    1.0823    2.4384 H         1 <0>         0.1404
     40 H13         0.1717   -0.1596    4.5450 H         1 <0>         0.1405
     41 H14         0.0012   -3.8522    2.3526 H         1 <0>         0.1331
     42 H15        -0.0004   -2.5974    0.2536 H         1 <0>         0.1333
@<TRIPOS>BOND
     1    1    2 1
     2    1   28 1
     3    1   29 1
     4    1   30 1
     5    2    3 1
     6    2   16 1
     7    3    4 1
     8    3   31 1
     9    3   32 1
    10    4    9 ar
    11    4    5 ar
    12    5    6 ar
    13    5   33 1
    14    6    7 ar
    15    6   34 1
    16    7   13 ar
    17    7    8 ar
    18    8    9 ar
    19    8   10 ar
    20   10   11 ar
    21   10   15 1
    22   11   12 ar
    23   12   13 ar
    24   12   14 1
    25   14   35 1
    26   14   36 1
    27   15   37 1
    28   15   38 1
    29   16   21 ar
    30   16   17 ar
    31   17   18 ar
    32   17   39 1
    33   18   19 ar
    34   18   40 1
    35   19   20 ar
    36   19   22 1
    37   20   21 ar
    38   20   41 1
    39   21   42 1
    40   22   23 2
    41   22   24 1
    42   24   25 1
    43   24   26 1
    44   24   27 1
@<TRIPOS>MOLECULE
ZINC03814926
   43    45     0     0     0
SMALL
USER_CHARGES

@<TRIPOS>ATOM
      1 C1          0.0338   -0.6866   -1.2561 C.3       1 <0>         0.0799
      2 N1          0.0842    0.0295    0.0210 N.pl3     1 <0>        -0.6143
      3 C2          0.1340    1.4935    0.0384 C.3       1 <0>         0.1617
      4 C3          1.5707    1.9476    0.0152 C.ar      1 <0>         0.1239
      5 C4          2.1637    2.2631   -1.2054 C.ar      1 <0>        -0.0699
      6 C5          3.4646    2.6810   -1.2455 C.ar      1 <0>        -0.0946
      7 C6          4.1683    2.7682   -0.0322 C.ar      1 <0>         0.1431
      8 C7          3.5030    2.4265    1.1693 C.ar      1 <0>         0.0301
      9 N2          2.2338    2.0308    1.1449 N.ar      1 <0>        -0.3998
     10 C8          4.2615    2.5271    2.4171 C.ar      1 <0>         0.5756
     11 N3          5.5216    2.9314    2.3421 N.ar      1 <0>        -0.5790
     12 C9          6.0827    3.2365    1.1763 C.ar      1 <0>         0.7013
     13 N4          7.4022    3.6517    1.1717 N.pl3     1 <0>        -0.7837
     14 N5          3.6851    2.2116    3.6292 N.pl3     1 <0>        -0.7351
     15 C10         0.0848   -0.6797    1.2152 C.ar      1 <0>         0.2532
     16 C11         0.1386    0.0031    2.4284 C.ar      1 <0>        -0.2012
     17 C12         0.1345   -0.6899    3.6049 C.ar      1 <0>        -0.0218
     18 C13         0.0869   -2.0901    3.5906 C.ar      1 <0>        -0.2328
     19 C14         0.0383   -2.7729    2.3681 C.ar      1 <0>         0.0048
     20 C15         0.0374   -2.0719    1.1964 C.ar      1 <0>        -0.2041
     21 C16         0.0876   -2.8394    4.8524 C.2       1 <0>         0.3745
     22 O1          0.5292   -3.9687    4.8871 O.2       1 <0>        -0.3833
     23 C17        -0.4604   -2.2058    6.1052 C.3       1 <0>         0.4258
     24 F1          0.5767   -2.0194    7.0255 F         1 <0>        -0.1653
     25 F2         -1.0325   -0.9686    5.7903 F         1 <0>        -0.1658
     26 F3         -1.4341   -3.0414    6.6629 F         1 <0>        -0.1600
     27 H1          1.0481   -0.8989   -1.5939 H         1 <0>         0.0542
     28 H2         -0.5094   -1.6227   -1.1265 H         1 <0>         0.0820
     29 H3         -0.4749   -0.0711   -1.9979 H         1 <0>         0.0786
     30 H4         -0.3850    1.8851   -0.8365 H         1 <0>         0.1134
     31 H5         -0.3492    1.8628    0.9430 H         1 <0>         0.1104
     32 H6          1.5944    2.1811   -2.1195 H         1 <0>         0.1677
     33 H7          3.9388    2.9330   -2.1825 H         1 <0>         0.1704
     34 H8          7.8939    3.7142    2.0055 H         1 <0>         0.4442
     35 H9          7.8357    3.8804    0.3346 H         1 <0>         0.4319
     36 H10         2.7616    1.9171    3.6650 H         1 <0>         0.4423
     37 H11         4.2030    2.2842    4.4461 H         1 <0>         0.4353
     38 H12         0.1797    1.0823    2.4384 H         1 <0>         0.1374
     39 H13         0.1717   -0.1596    4.5450 H         1 <0>         0.1433
     40 H14         0.0012   -3.8522    2.3526 H         1 <0>         0.1378
     41 H15        -0.0004   -2.5974    0.2536 H         1 <0>         0.1365
     42 N6          5.4821    3.1824   -0.0384 N.ar      1 <0>        -0.6059
     43 H16         5.9278    3.4185   -0.9018 H         1 <0>         0.4574
@<TRIPOS>BOND
     1    1    2 1
     2    1   27 1
     3    1   28 1
     4    1   29 1
     5    2    3 1
     6    2   15 1
     7    3    4 1
     8    3   30 1
     9    3   31 1
    10    4    9 ar
    11    4    5 ar
    12    5    6 ar
    13    5   32 1
    14    6    7 ar
    15    6   33 1
    16    7    8 ar
    17    7   42 ar
    18    8    9 ar
    19    8   10 ar
    20   10   11 ar
    21   10   14 1
    22   11   12 ar
    23   12   13 1
    24   12   42 ar
    25   13   34 1
    26   13   35 1
    27   14   36 1
    28   14   37 1
    29   15   20 ar
    30   15   16 ar
    31   16   17 ar
    32   16   38 1
    33   17   18 ar
    34   17   39 1
    35   18   19 ar
    36   18   21 1
    37   19   20 ar
    38   19   40 1
    39   20   41 1
    40   21   22 2
    41   21   23 1
    42   23   24 1
    43   23   25 1
    44   23   26 1
    45   42   43 1
@<TRIPOS>MOLECULE
ZINC03814927
   41    43     0     0     0
SMALL
USER_CHARGES

@<TRIPOS>ATOM
      1 C1         -0.9459   -3.3625   -0.0070 C.1       1 <0>        -0.1883
      2 C2          0.0647   -2.7651   -0.0134 C.1       1 <0>         0.0153
      3 N1          1.2311   -2.0756   -0.0208 N.pl3     1 <0>        -0.4779
      4 C3          2.5072   -2.7949   -0.0369 C.3       1 <0>         0.1736
      5 C4          2.9583   -3.0492    1.3783 C.ar      1 <0>         0.0712
      6 C5          2.6483   -4.2661    1.9817 C.ar      1 <0>        -0.0993
      7 C6          3.0531   -4.5163    3.2632 C.ar      1 <0>        -0.0830
      8 C7          3.7709   -3.5135    3.9370 C.ar      1 <0>         0.2006
      9 C8          4.0451   -2.2997    3.2630 C.ar      1 <0>        -0.0473
     10 N2          3.6288   -2.1166    2.0135 N.ar      1 <0>        -0.4096
     11 C9          4.7945   -1.2740    3.9903 C.ar      1 <0>         0.5358
     12 N3          5.1680   -1.5473    5.2323 N.ar      1 <0>        -0.6288
     13 C10         4.8749   -2.7115    5.8032 C.ar      1 <0>         0.6244
     14 N4          4.2040   -3.6686    5.1944 N.ar      1 <0>        -0.6135
     15 N5          5.2960   -2.9297    7.1026 N.pl3     1 <0>        -0.8134
     16 N6          5.1010   -0.0646    3.4036 N.pl3     1 <0>        -0.7952
     17 C11         1.2169   -0.6863   -0.0132 C.ar      1 <0>         0.2472
     18 C12         0.0021   -0.0041    0.0020 C.ar      1 <0>        -0.1884
     19 C13        -0.0164    1.3612    0.0095 C.ar      1 <0>         0.0024
     20 C14         1.1886    2.0762    0.0019 C.ar      1 <0>        -0.2266
     21 C15         2.4080    1.3861   -0.0135 C.ar      1 <0>        -0.0193
     22 C16         2.4174    0.0208   -0.0214 C.ar      1 <0>        -0.1774
     23 C17         1.1735    3.5436    0.0094 C.2       1 <0>         0.3740
     24 O1          0.1168    4.1393    0.0223 O.2       1 <0>        -0.3901
     25 C18         2.4708    4.3105    0.0011 C.3       1 <0>         0.4245
     26 F1          2.2011    5.6832    0.0106 F         1 <0>        -0.1620
     27 F2          3.2185    3.9743    1.1348 F         1 <0>        -0.1663
     28 F3          3.1971    3.9858   -1.1496 F         1 <0>        -0.1649
     29 H1         -1.8498   -3.8968   -0.0012 H         1 <0>         0.2384
     30 H2          2.3817   -3.7459   -0.5547 H         1 <0>         0.1083
     31 H3          3.2558   -2.1953   -0.5547 H         1 <0>         0.1107
     32 H4          2.0916   -5.0133    1.4356 H         1 <0>         0.1427
     33 H5          2.8246   -5.4555    3.7450 H         1 <0>         0.1504
     34 H6          5.7919   -2.2419    7.5737 H         1 <0>         0.4152
     35 H7          5.0954   -3.7705    7.5428 H         1 <0>         0.4176
     36 H8          4.8192    0.1183    2.4936 H         1 <0>         0.4239
     37 H9          5.5985    0.6035    3.9008 H         1 <0>         0.4151
     38 H10        -0.9262   -0.5560    0.0083 H         1 <0>         0.1370
     39 H11        -0.9585    1.8892    0.0169 H         1 <0>         0.1412
     40 H12         3.3390    1.9334   -0.0191 H         1 <0>         0.1356
     41 H13         3.3568   -0.5119   -0.0336 H         1 <0>         0.1462
@<TRIPOS>BOND
     1    1    2 3
     2    1   29 1
     3    2    3 1
     4    3    4 1
     5    3   17 1
     6    4    5 1
     7    4   30 1
     8    4   31 1
     9    5   10 ar
    10    5    6 ar
    11    6    7 ar
    12    6   32 1
    13    7    8 ar
    14    7   33 1
    15    8   14 ar
    16    8    9 ar
    17    9   10 ar
    18    9   11 ar
    19   11   12 ar
    20   11   16 1
    21   12   13 ar
    22   13   14 ar
    23   13   15 1
    24   15   34 1
    25   15   35 1
    26   16   36 1
    27   16   37 1
    28   17   22 ar
    29   17   18 ar
    30   18   19 ar
    31   18   38 1
    32   19   20 ar
    33   19   39 1
    34   20   21 ar
    35   20   23 1
    36   21   22 ar
    37   21   40 1
    38   22   41 1
    39   23   24 2
    40   23   25 1
    41   25   26 1
    42   25   27 1
    43   25   28 1
@<TRIPOS>MOLECULE
ZINC03814927
   42    44     0     0     0
SMALL
USER_CHARGES

@<TRIPOS>ATOM
      1 C1         -0.9459   -3.3625   -0.0070 C.1       1 <0>        -0.1664
      2 C2          0.0647   -2.7651   -0.0134 C.1       1 <0>        -0.0017
      3 N1          1.2311   -2.0756   -0.0208 N.pl3     1 <0>        -0.4801
      4 C3          2.5072   -2.7949   -0.0369 C.3       1 <0>         0.1636
      5 C4          2.9583   -3.0492    1.3783 C.ar      1 <0>         0.1182
      6 C5          2.6483   -4.2661    1.9817 C.ar      1 <0>        -0.0640
      7 C6          3.0531   -4.5163    3.2632 C.ar      1 <0>        -0.0936
      8 C7          3.7709   -3.5135    3.9370 C.ar      1 <0>         0.1478
      9 C8          4.0451   -2.2997    3.2630 C.ar      1 <0>         0.0293
     10 N2          3.6288   -2.1166    2.0135 N.ar      1 <0>        -0.3983
     11 C9          4.7945   -1.2740    3.9903 C.ar      1 <0>         0.5763
     12 N3          5.1680   -1.5473    5.2323 N.ar      1 <0>        -0.5781
     13 C10         4.8749   -2.7115    5.8032 C.ar      1 <0>         0.7019
     14 N4          5.2960   -2.9297    7.1026 N.pl3     1 <0>        -0.7827
     15 N5          5.1010   -0.0646    3.4036 N.pl3     1 <0>        -0.7345
     16 C11         1.2169   -0.6863   -0.0132 C.ar      1 <0>         0.2359
     17 C12         0.0021   -0.0041    0.0020 C.ar      1 <0>        -0.1806
     18 C13        -0.0164    1.3612    0.0095 C.ar      1 <0>         0.0033
     19 C14         1.1886    2.0762    0.0019 C.ar      1 <0>        -0.2157
     20 C15         2.4080    1.3861   -0.0135 C.ar      1 <0>        -0.0221
     21 C16         2.4174    0.0208   -0.0214 C.ar      1 <0>        -0.1832
     22 C17         1.1735    3.5436    0.0094 C.2       1 <0>         0.3701
     23 O1          0.1168    4.1393    0.0223 O.2       1 <0>        -0.3790
     24 C18         2.4708    4.3105    0.0011 C.3       1 <0>         0.4257
     25 F1          2.2011    5.6832    0.0106 F         1 <0>        -0.1577
     26 F2          3.2185    3.9743    1.1348 F         1 <0>        -0.1696
     27 F3          3.1971    3.9858   -1.1496 F         1 <0>        -0.1635
     28 H1         -1.8498   -3.8968   -0.0012 H         1 <0>         0.2414
     29 H2          2.3817   -3.7459   -0.5547 H         1 <0>         0.1212
     30 H3          3.2558   -2.1953   -0.5547 H         1 <0>         0.1222
     31 H4          2.0916   -5.0133    1.4356 H         1 <0>         0.1689
     32 H5          2.8246   -5.4555    3.7450 H         1 <0>         0.1723
     33 H6          5.7919   -2.2419    7.5737 H         1 <0>         0.4445
     34 H7          5.0954   -3.7705    7.5428 H         1 <0>         0.4322
     35 H8          4.8192    0.1183    2.4936 H         1 <0>         0.4421
     36 H9          5.5985    0.6035    3.9008 H         1 <0>         0.4359
     37 H10        -0.9262   -0.5560    0.0083 H         1 <0>         0.1395
     38 H11        -0.9585    1.8892    0.0169 H         1 <0>         0.1454
     39 H12         3.3390    1.9334   -0.0191 H         1 <0>         0.1380
     40 H13         3.3568   -0.5119   -0.0336 H         1 <0>         0.1429
     41 N6          4.1900   -3.7325    5.2309 N.ar      1 <0>        -0.6059
     42 H14         3.9832   -4.6000    5.6834 H         1 <0>         0.4581
@<TRIPOS>BOND
     1    1    2 3
     2    1   28 1
     3    2    3 1
     4    3    4 1
     5    3   16 1
     6    4    5 1
     7    4   29 1
     8    4   30 1
     9    5   10 ar
    10    5    6 ar
    11    6    7 ar
    12    6   31 1
    13    7    8 ar
    14    7   32 1
    15    8    9 ar
    16    8   41 ar
    17    9   10 ar
    18    9   11 ar
    19   11   12 ar
    20   11   15 1
    21   12   13 ar
    22   13   14 1
    23   13   41 ar
    24   14   33 1
    25   14   34 1
    26   15   35 1
    27   15   36 1
    28   16   21 ar
    29   16   17 ar
    30   17   18 ar
    31   17   37 1
    32   18   19 ar
    33   18   38 1
    34   19   20 ar
    35   19   22 1
    36   20   21 ar
    37   20   39 1
    38   21   40 1
    39   22   23 2
    40   22   24 1
    41   24   25 1
    42   24   26 1
    43   24   27 1
    44   41   42 1
@<TRIPOS>MOLECULE
ZINC03814928
   37    39     0     0     0
SMALL
USER_CHARGES

@<TRIPOS>ATOM
      1 C1         -0.0127    1.0858    0.0080 C.3       1 <0>         0.0937
      2 N1         -0.6984    1.5583    1.2133 N.pl3     1 <0>        -0.6235
      3 C2          0.0634    1.8061    2.4399 C.3       1 <0>         0.1792
      4 C3          0.5393    3.2358    2.4555 C.ar      1 <0>         0.0863
      5 C4         -0.2213    4.1976    3.1169 C.ar      1 <0>        -0.1046
      6 C5          0.1969    5.4988    3.1453 C.ar      1 <0>        -0.0830
      7 C6          1.3949    5.8223    2.4858 C.ar      1 <0>         0.1935
      8 C7          2.1127    4.7939    1.8299 C.ar      1 <0>        -0.0471
      9 N2          1.6572    3.5449    1.8410 N.ar      1 <0>        -0.4199
     10 C8          3.3568    5.1612    1.1516 C.ar      1 <0>         0.5320
     11 N3          3.7311    6.4320    1.1951 N.ar      1 <0>        -0.6294
     12 C9          3.0055    7.3462    1.8314 C.ar      1 <0>         0.6203
     13 N4          1.8795    7.0701    2.4579 N.ar      1 <0>        -0.6120
     14 N5          3.4558    8.6541    1.8367 N.pl3     1 <0>        -0.8154
     15 N6          4.1132    4.2175    0.4897 N.pl3     1 <0>        -0.7983
     16 C10        -2.0785    1.7725    1.1931 C.ar      1 <0>         0.2152
     17 C11        -2.7311    2.2149    2.3367 C.ar      1 <0>        -0.2004
     18 C12        -4.0951    2.4303    2.3118 C.ar      1 <0>        -0.0722
     19 C13        -4.8126    2.1959    1.1532 C.ar      1 <0>        -0.1788
     20 C14        -4.1669    1.7504    0.0144 C.ar      1 <0>        -0.0725
     21 C15        -2.8023    1.5380    0.0309 C.ar      1 <0>        -0.1966
     22 H1          0.0021   -0.0041    0.0020 H         1 <0>         0.0501
     23 H2          1.0099    1.4631    0.0003 H         1 <0>         0.0710
     24 H3         -0.5399    1.4469   -0.8751 H         1 <0>         0.0654
     25 H4         -0.5735    1.6257    3.3059 H         1 <0>         0.0945
     26 H5          0.9229    1.1366    2.4753 H         1 <0>         0.0934
     27 H6         -1.1393    3.9146    3.6104 H         1 <0>         0.1423
     28 H7         -0.3785    6.2565    3.6564 H         1 <0>         0.1487
     29 H8          4.2819    8.8845    1.3834 H         1 <0>         0.4143
     30 H9          2.9455    9.3409    2.2936 H         1 <0>         0.4170
     31 H10         3.8236    3.2920    0.4680 H         1 <0>         0.4238
     32 H11         4.9350    4.4791    0.0457 H         1 <0>         0.4135
     33 H12        -2.1720    2.3939    3.2432 H         1 <0>         0.1212
     34 H13        -4.6025    2.7782    3.1995 H         1 <0>         0.1206
     35 H14        -5.8797    2.3615    1.1375 H         1 <0>         0.1172
     36 H15        -4.7302    1.5687   -0.8889 H         1 <0>         0.1195
     37 H16        -2.2987    1.1897   -0.8587 H         1 <0>         0.1208
@<TRIPOS>BOND
     1    1    2 1
     2    1   22 1
     3    1   23 1
     4    1   24 1
     5    2    3 1
     6    2   16 1
     7    3    4 1
     8    3   25 1
     9    3   26 1
    10    4    9 ar
    11    4    5 ar
    12    5    6 ar
    13    5   27 1
    14    6    7 ar
    15    6   28 1
    16    7   13 ar
    17    7    8 ar
    18    8    9 ar
    19    8   10 ar
    20   10   11 ar
    21   10   15 1
    22   11   12 ar
    23   12   13 ar
    24   12   14 1
    25   14   29 1
    26   14   30 1
    27   15   31 1
    28   15   32 1
    29   16   21 ar
    30   16   17 ar
    31   17   18 ar
    32   17   33 1
    33   18   19 ar
    34   18   34 1
    35   19   20 ar
    36   19   35 1
    37   20   21 ar
    38   20   36 1
    39   21   37 1
@<TRIPOS>MOLECULE
ZINC03814928
   38    40     0     0     0
SMALL
USER_CHARGES

@<TRIPOS>ATOM
      1 C1         -0.0127    1.0858    0.0080 C.3       1 <0>         0.0908
      2 N1         -0.6984    1.5583    1.2133 N.pl3     1 <0>        -0.6264
      3 C2          0.0634    1.8061    2.4399 C.3       1 <0>         0.1682
      4 C3          0.5393    3.2358    2.4555 C.ar      1 <0>         0.1306
      5 C4         -0.2213    4.1976    3.1169 C.ar      1 <0>        -0.0705
      6 C5          0.1969    5.4988    3.1453 C.ar      1 <0>        -0.0938
      7 C6          1.3949    5.8223    2.4858 C.ar      1 <0>         0.1401
      8 C7          2.1127    4.7939    1.8299 C.ar      1 <0>         0.0282
      9 N2          1.6572    3.5449    1.8410 N.ar      1 <0>        -0.4063
     10 C8          3.3568    5.1612    1.1516 C.ar      1 <0>         0.5754
     11 N3          3.7311    6.4320    1.1951 N.ar      1 <0>        -0.5798
     12 C9          3.0055    7.3462    1.8314 C.ar      1 <0>         0.7008
     13 N4          3.4558    8.6541    1.8367 N.pl3     1 <0>        -0.7846
     14 N5          4.1132    4.2175    0.4897 N.pl3     1 <0>        -0.7375
     15 C10        -2.0785    1.7725    1.1931 C.ar      1 <0>         0.2037
     16 C11        -2.7311    2.2149    2.3367 C.ar      1 <0>        -0.2037
     17 C12        -4.0951    2.4303    2.3118 C.ar      1 <0>        -0.0723
     18 C13        -4.8126    2.1959    1.1532 C.ar      1 <0>        -0.1685
     19 C14        -4.1669    1.7504    0.0144 C.ar      1 <0>        -0.0694
     20 C15        -2.8023    1.5380    0.0309 C.ar      1 <0>        -0.1890
     21 H1          0.0021   -0.0041    0.0020 H         1 <0>         0.0569
     22 H2          1.0099    1.4631    0.0003 H         1 <0>         0.0686
     23 H3         -0.5399    1.4469   -0.8751 H         1 <0>         0.0702
     24 H4         -0.5735    1.6257    3.3059 H         1 <0>         0.1072
     25 H5          0.9229    1.1366    2.4753 H         1 <0>         0.1059
     26 H6         -1.1393    3.9146    3.6104 H         1 <0>         0.1674
     27 H7         -0.3785    6.2565    3.6564 H         1 <0>         0.1704
     28 H8          4.2819    8.8845    1.3834 H         1 <0>         0.4438
     29 H9          2.9455    9.3409    2.2936 H         1 <0>         0.4318
     30 H10         3.8236    3.2920    0.4680 H         1 <0>         0.4422
     31 H11         4.9350    4.4791    0.0457 H         1 <0>         0.4344
     32 H12        -2.1720    2.3939    3.2432 H         1 <0>         0.1180
     33 H13        -4.6025    2.7782    3.1995 H         1 <0>         0.1239
     34 H14        -5.8797    2.3615    1.1375 H         1 <0>         0.1222
     35 H15        -4.7302    1.5687   -0.8889 H         1 <0>         0.1246
     36 H16        -2.2987    1.1897   -0.8587 H         1 <0>         0.1238
     37 N6          1.8423    7.1252    2.4924 N.ar      1 <0>        -0.6045
     38 H17         1.3157    7.8323    2.9644 H         1 <0>         0.4574
@<TRIPOS>BOND
     1    1    2 1
     2    1   21 1
     3    1   22 1
     4    1   23 1
     5    2    3 1
     6    2   15 1
     7    3    4 1
     8    3   24 1
     9    3   25 1
    10    4    9 ar
    11    4    5 ar
    12    5    6 ar
    13    5   26 1
    14    6    7 ar
    15    6   27 1
    16    7    8 ar
    17    7   37 ar
    18    8    9 ar
    19    8   10 ar
    20   10   11 ar
    21   10   14 1
    22   11   12 ar
    23   12   13 1
    24   12   37 ar
    25   13   28 1
    26   13   29 1
    27   14   30 1
    28   14   31 1
    29   15   20 ar
    30   15   16 ar
    31   16   17 ar
    32   16   32 1
    33   17   18 ar
    34   17   33 1
    35   18   19 ar
    36   18   34 1
    37   19   20 ar
    38   19   35 1
    39   20   36 1
    40   37   38 1
@<TRIPOS>MOLECULE
ZINC03814929
   38    40     0     0     0
SMALL
USER_CHARGES

@<TRIPOS>ATOM
      1 C1          1.2479    2.0219    0.0010 C.3       1 <0>         0.0321
      2 O1         -0.0164    1.3559    0.0095 O.3       1 <0>        -0.3237
      3 C2          0.0021   -0.0041    0.0020 C.ar      1 <0>         0.0531
      4 C3          1.2098   -0.6818   -0.0189 C.ar      1 <0>        -0.1624
      5 C4          1.2271   -2.0646   -0.0211 C.ar      1 <0>        -0.1412
      6 C5          0.0408   -2.7745   -0.0131 C.ar      1 <0>        -0.1048
      7 C6         -1.1687   -2.1057    0.0020 C.ar      1 <0>        -0.1687
      8 C7         -1.1938   -0.7187    0.0096 C.ar      1 <0>         0.1971
      9 N1         -2.4173   -0.0390    0.0244 N.pl3     1 <0>        -0.7377
     10 C8         -3.6737   -0.7924    0.0324 C.3       1 <0>         0.1859
     11 C9         -4.8351    0.1677    0.0480 C.ar      1 <0>         0.0865
     12 C10        -5.4337    0.5292   -1.1569 C.ar      1 <0>        -0.1002
     13 C11        -6.4912    1.3955   -1.1619 C.ar      1 <0>        -0.0845
     14 C12        -6.9346    1.9039    0.0709 C.ar      1 <0>         0.1979
     15 C13        -6.2748    1.4965    1.2548 C.ar      1 <0>        -0.0490
     16 N2         -5.2539    0.6467    1.1960 N.ar      1 <0>        -0.4119
     17 C14        -6.7590    2.0427    2.5236 C.ar      1 <0>         0.5344
     18 N3         -7.7831    2.8831    2.4827 N.ar      1 <0>        -0.6297
     19 C15        -8.3552    3.2219    1.3316 C.ar      1 <0>         0.6228
     20 N4         -7.9599    2.7600    0.1623 N.ar      1 <0>        -0.6129
     21 N5         -9.4201    4.1042    1.3627 N.pl3     1 <0>        -0.8143
     22 N6         -6.1693    1.6953    3.7205 N.pl3     1 <0>        -0.7963
     23 H1          1.8173    1.7319    0.8840 H         1 <0>         0.0534
     24 H2          1.8003    1.7414   -0.8958 H         1 <0>         0.0537
     25 H3          1.0905    3.1005    0.0083 H         1 <0>         0.0970
     26 H4          2.1383   -0.1303   -0.0293 H         1 <0>         0.1259
     27 H5          2.1698   -2.5913   -0.0336 H         1 <0>         0.1204
     28 H6          0.0592   -3.8544   -0.0191 H         1 <0>         0.1225
     29 H7         -2.0940   -2.6627    0.0074 H         1 <0>         0.1280
     30 H8         -2.4333    0.9308    0.0294 H         1 <0>         0.4052
     31 H9         -3.7294   -1.4155   -0.8603 H         1 <0>         0.0773
     32 H10        -3.7128   -1.4244    0.9196 H         1 <0>         0.0766
     33 H11        -5.0648    0.1221   -2.0867 H         1 <0>         0.1456
     34 H12        -6.9693    1.6837   -2.0864 H         1 <0>         0.1506
     35 H13        -9.7314    4.4591    2.2101 H         1 <0>         0.4147
     36 H14        -9.8557    4.3680    0.5371 H         1 <0>         0.4174
     37 H15        -5.4204    1.0790    3.7314 H         1 <0>         0.4254
     38 H16        -6.5035    2.0672    4.5518 H         1 <0>         0.4141
@<TRIPOS>BOND
     1    1    2 1
     2    1   23 1
     3    1   24 1
     4    1   25 1
     5    2    3 1
     6    3    8 ar
     7    3    4 ar
     8    4    5 ar
     9    4   26 1
    10    5    6 ar
    11    5   27 1
    12    6    7 ar
    13    6   28 1
    14    7    8 ar
    15    7   29 1
    16    8    9 1
    17    9   10 1
    18    9   30 1
    19   10   11 1
    20   10   31 1
    21   10   32 1
    22   11   16 ar
    23   11   12 ar
    24   12   13 ar
    25   12   33 1
    26   13   14 ar
    27   13   34 1
    28   14   20 ar
    29   14   15 ar
    30   15   16 ar
    31   15   17 ar
    32   17   18 ar
    33   17   22 1
    34   18   19 ar
    35   19   20 ar
    36   19   21 1
    37   21   35 1
    38   21   36 1
    39   22   37 1
    40   22   38 1
@<TRIPOS>MOLECULE
ZINC03814929
   39    41     0     0     0
SMALL
USER_CHARGES

@<TRIPOS>ATOM
      1 C1          1.2479    2.0219    0.0010 C.3       1 <0>         0.0304
      2 O1         -0.0164    1.3559    0.0095 O.3       1 <0>        -0.3271
      3 C2          0.0021   -0.0041    0.0020 C.ar      1 <0>         0.0599
      4 C3          1.2098   -0.6818   -0.0189 C.ar      1 <0>        -0.1621
      5 C4          1.2271   -2.0646   -0.0211 C.ar      1 <0>        -0.1287
      6 C5          0.0408   -2.7745   -0.0131 C.ar      1 <0>        -0.1061
      7 C6         -1.1687   -2.1057    0.0020 C.ar      1 <0>        -0.1626
      8 C7         -1.1938   -0.7187    0.0096 C.ar      1 <0>         0.1852
      9 N1         -2.4173   -0.0390    0.0244 N.pl3     1 <0>        -0.7442
     10 C8         -3.6737   -0.7924    0.0324 C.3       1 <0>         0.1750
     11 C9         -4.8351    0.1677    0.0480 C.ar      1 <0>         0.1337
     12 C10        -5.4337    0.5292   -1.1569 C.ar      1 <0>        -0.0646
     13 C11        -6.4912    1.3955   -1.1619 C.ar      1 <0>        -0.0951
     14 C12        -6.9346    1.9039    0.0709 C.ar      1 <0>         0.1453
     15 C13        -6.2748    1.4965    1.2548 C.ar      1 <0>         0.0273
     16 N2         -5.2539    0.6467    1.1960 N.ar      1 <0>        -0.3990
     17 C14        -6.7590    2.0427    2.5236 C.ar      1 <0>         0.5759
     18 N3         -7.7831    2.8831    2.4827 N.ar      1 <0>        -0.5795
     19 C15        -8.3552    3.2219    1.3316 C.ar      1 <0>         0.7016
     20 N4         -9.4201    4.1042    1.3627 N.pl3     1 <0>        -0.7837
     21 N5         -6.1693    1.6953    3.7205 N.pl3     1 <0>        -0.7349
     22 H1          1.8173    1.7319    0.8840 H         1 <0>         0.0561
     23 H2          1.8003    1.7414   -0.8958 H         1 <0>         0.0565
     24 H3          1.0905    3.1005    0.0083 H         1 <0>         0.0987
     25 H4          2.1383   -0.1303   -0.0293 H         1 <0>         0.1297
     26 H5          2.1698   -2.5913   -0.0336 H         1 <0>         0.1252
     27 H6          0.0592   -3.8544   -0.0191 H         1 <0>         0.1264
     28 H7         -2.0940   -2.6627    0.0074 H         1 <0>         0.1278
     29 H8         -2.4333    0.9308    0.0294 H         1 <0>         0.4045
     30 H9         -3.7294   -1.4155   -0.8603 H         1 <0>         0.0895
     31 H10        -3.7128   -1.4244    0.9196 H         1 <0>         0.0880
     32 H11        -5.0648    0.1221   -2.0867 H         1 <0>         0.1716
     33 H12        -6.9693    1.6837   -2.0864 H         1 <0>         0.1724
     34 H13        -9.7314    4.4591    2.2101 H         1 <0>         0.4441
     35 H14        -9.8557    4.3680    0.5371 H         1 <0>         0.4320
     36 H15        -5.4204    1.0790    3.7314 H         1 <0>         0.4437
     37 H16        -6.5035    2.0672    4.5518 H         1 <0>         0.4349
     38 N6         -7.9955    2.7821    0.1002 N.ar      1 <0>        -0.6054
     39 H17        -8.4440    3.0530   -0.7515 H         1 <0>         0.4578
@<TRIPOS>BOND
     1    1    2 1
     2    1   22 1
     3    1   23 1
     4    1   24 1
     5    2    3 1
     6    3    8 ar
     7    3    4 ar
     8    4    5 ar
     9    4   25 1
    10    5    6 ar
    11    5   26 1
    12    6    7 ar
    13    6   27 1
    14    7    8 ar
    15    7   28 1
    16    8    9 1
    17    9   10 1
    18    9   29 1
    19   10   11 1
    20   10   30 1
    21   10   31 1
    22   11   16 ar
    23   11   12 ar
    24   12   13 ar
    25   12   32 1
    26   13   14 ar
    27   13   33 1
    28   14   15 ar
    29   14   38 ar
    30   15   16 ar
    31   15   17 ar
    32   17   18 ar
    33   17   21 1
    34   18   19 ar
    35   19   20 1
    36   19   38 ar
    37   20   34 1
    38   20   35 1
    39   21   36 1
    40   21   37 1
    41   38   39 1
@<TRIPOS>MOLECULE
ZINC03814930
   41    43     0     0     0
SMALL
USER_CHARGES

@<TRIPOS>ATOM
      1 C1         -3.1814   -0.3037   -1.2020 C.3       1 <0>         0.0255
      2 N1         -2.4173   -0.0390    0.0244 N.pl3     1 <0>        -0.4835
      3 C2         -3.1994   -0.3888    1.2177 C.3       1 <0>         0.1151
      4 C3         -4.3861    0.5334    1.3287 C.ar      1 <0>         0.1146
      5 C4         -5.6113    0.1299    0.8024 C.ar      1 <0>        -0.1115
      6 C5         -6.6998    0.9513    0.8977 C.ar      1 <0>        -0.0841
      7 C6         -6.5343    2.1974    1.5259 C.ar      1 <0>         0.1911
      8 C7         -5.2587    2.5429    2.0325 C.ar      1 <0>        -0.0450
      9 N2         -4.2382    1.6990    1.9139 N.ar      1 <0>        -0.4070
     10 C8         -5.1170    3.8472    2.6815 C.ar      1 <0>         0.5333
     11 N3         -6.1910    4.6205    2.7532 N.ar      1 <0>        -0.6309
     12 C9         -7.3598    4.2302    2.2545 C.ar      1 <0>         0.6199
     13 N4         -7.5427    3.0677    1.6613 N.ar      1 <0>        -0.6134
     14 N5         -8.4395    5.0880    2.3643 N.pl3     1 <0>        -0.8165
     15 N6         -3.9072    4.2576    3.2001 N.pl3     1 <0>        -0.7968
     16 C10        -1.1938   -0.7187    0.0096 C.ar      1 <0>         0.0527
     17 C11        -1.1687   -2.1057    0.0020 C.ar      1 <0>        -0.1097
     18 C12         0.0408   -2.7745   -0.0131 C.ar      1 <0>        -0.1495
     19 C13         1.2271   -2.0646   -0.0211 C.ar      1 <0>        -0.0793
     20 C14         1.2098   -0.6818   -0.0189 C.ar      1 <0>        -0.2075
     21 C15         0.0021   -0.0041    0.0020 C.ar      1 <0>         0.1549
     22 O1         -0.0164    1.3559    0.0095 O.3       1 <0>        -0.2925
     23 C16         1.2479    2.0219    0.0010 C.3       1 <0>         0.0230
     24 H1         -3.3765   -1.3728   -1.2849 H         1 <0>         0.0324
     25 H2         -4.1274    0.2365   -1.1643 H         1 <0>         0.0727
     26 H3         -2.6072    0.0291   -2.0667 H         1 <0>         0.0706
     27 H4         -3.5462   -1.4189    1.1358 H         1 <0>         0.0561
     28 H5         -2.5746   -0.2852    2.1048 H         1 <0>         0.0933
     29 H6         -5.7021   -0.8334    0.3227 H         1 <0>         0.1402
     30 H7         -7.6580    0.6529    0.4985 H         1 <0>         0.1482
     31 H8         -8.3324    5.9496    2.7967 H         1 <0>         0.4138
     32 H9         -9.3037    4.8278    2.0089 H         1 <0>         0.4164
     33 H10        -3.1315    3.6785    3.1383 H         1 <0>         0.4260
     34 H11        -3.8318    5.1254    3.6268 H         1 <0>         0.4127
     35 H12        -2.0940   -2.6627    0.0074 H         1 <0>         0.1266
     36 H13         0.0592   -3.8544   -0.0191 H         1 <0>         0.1244
     37 H14         2.1698   -2.5913   -0.0336 H         1 <0>         0.1258
     38 H15         2.1383   -0.1303   -0.0293 H         1 <0>         0.1310
     39 H16         1.8173    1.7319    0.8840 H         1 <0>         0.0540
     40 H17         1.8003    1.7414   -0.8958 H         1 <0>         0.0533
     41 H18         1.0905    3.1005    0.0083 H         1 <0>         0.0996
@<TRIPOS>BOND
     1    1    2 1
     2    1   24 1
     3    1   25 1
     4    1   26 1
     5    2    3 1
     6    2   16 1
     7    3    4 1
     8    3   27 1
     9    3   28 1
    10    4    9 ar
    11    4    5 ar
    12    5    6 ar
    13    5   29 1
    14    6    7 ar
    15    6   30 1
    16    7   13 ar
    17    7    8 ar
    18    8    9 ar
    19    8   10 ar
    20   10   11 ar
    21   10   15 1
    22   11   12 ar
    23   12   13 ar
    24   12   14 1
    25   14   31 1
    26   14   32 1
    27   15   33 1
    28   15   34 1
    29   16   21 ar
    30   16   17 ar
    31   17   18 ar
    32   17   35 1
    33   18   19 ar
    34   18   36 1
    35   19   20 ar
    36   19   37 1
    37   20   21 ar
    38   20   38 1
    39   21   22 1
    40   22   23 1
    41   23   39 1
    42   23   40 1
    43   23   41 1
@<TRIPOS>MOLECULE
ZINC03814930
   42    44     0     0     0
SMALL
USER_CHARGES

@<TRIPOS>ATOM
      1 C1         -3.1814   -0.3037   -1.2020 C.3       1 <0>         0.0206
      2 N1         -2.4173   -0.0390    0.0244 N.pl3     1 <0>        -0.4802
      3 C2         -3.1994   -0.3888    1.2177 C.3       1 <0>         0.0982
      4 C3         -4.3861    0.5334    1.3287 C.ar      1 <0>         0.1615
      5 C4         -5.6113    0.1299    0.8024 C.ar      1 <0>        -0.0784
      6 C5         -6.6998    0.9513    0.8977 C.ar      1 <0>        -0.0947
      7 C6         -6.5343    2.1974    1.5259 C.ar      1 <0>         0.1372
      8 C7         -5.2587    2.5429    2.0325 C.ar      1 <0>         0.0309
      9 N2         -4.2382    1.6990    1.9139 N.ar      1 <0>        -0.3935
     10 C8         -5.1170    3.8472    2.6815 C.ar      1 <0>         0.5759
     11 N3         -6.1910    4.6205    2.7532 N.ar      1 <0>        -0.5809
     12 C9         -7.3598    4.2302    2.2545 C.ar      1 <0>         0.7008
     13 N4         -8.4395    5.0880    2.3643 N.pl3     1 <0>        -0.7860
     14 N5         -3.9072    4.2576    3.2001 N.pl3     1 <0>        -0.7351
     15 C10        -1.1938   -0.7187    0.0096 C.ar      1 <0>         0.0398
     16 C11        -1.1687   -2.1057    0.0020 C.ar      1 <0>        -0.1077
     17 C12         0.0408   -2.7745   -0.0131 C.ar      1 <0>        -0.1466
     18 C13         1.2271   -2.0646   -0.0211 C.ar      1 <0>        -0.0711
     19 C14         1.2098   -0.6818   -0.0189 C.ar      1 <0>        -0.2048
     20 C15         0.0021   -0.0041    0.0020 C.ar      1 <0>         0.1577
     21 O1         -0.0164    1.3559    0.0095 O.3       1 <0>        -0.2976
     22 C16         1.2479    2.0219    0.0010 C.3       1 <0>         0.0215
     23 H1         -3.3765   -1.3728   -1.2849 H         1 <0>         0.0390
     24 H2         -4.1274    0.2365   -1.1643 H         1 <0>         0.0652
     25 H3         -2.6072    0.0291   -2.0667 H         1 <0>         0.0787
     26 H4         -3.5462   -1.4189    1.1358 H         1 <0>         0.0703
     27 H5         -2.5746   -0.2852    2.1048 H         1 <0>         0.1063
     28 H6         -5.7021   -0.8334    0.3227 H         1 <0>         0.1661
     29 H7         -7.6580    0.6529    0.4985 H         1 <0>         0.1699
     30 H8         -8.3324    5.9496    2.7967 H         1 <0>         0.4433
     31 H9         -9.3037    4.8278    2.0089 H         1 <0>         0.4312
     32 H10        -3.1315    3.6785    3.1383 H         1 <0>         0.4444
     33 H11        -3.8318    5.1254    3.6268 H         1 <0>         0.4337
     34 H12        -2.0940   -2.6627    0.0074 H         1 <0>         0.1268
     35 H13         0.0592   -3.8544   -0.0191 H         1 <0>         0.1282
     36 H14         2.1698   -2.5913   -0.0336 H         1 <0>         0.1302
     37 H15         2.1383   -0.1303   -0.0293 H         1 <0>         0.1342
     38 H16         1.8173    1.7319    0.8840 H         1 <0>         0.0564
     39 H17         1.8003    1.7414   -0.8958 H         1 <0>         0.0565
     40 H18         1.0905    3.1005    0.0083 H         1 <0>         0.1007
     41 N6         -7.6106    3.0503    1.6349 N.ar      1 <0>        -0.6050
     42 H19        -8.5012    2.7808    1.2687 H         1 <0>         0.4565
@<TRIPOS>BOND
     1    1    2 1
     2    1   23 1
     3    1   24 1
     4    1   25 1
     5    2    3 1
     6    2   15 1
     7    3    4 1
     8    3   26 1
     9    3   27 1
    10    4    9 ar
    11    4    5 ar
    12    5    6 ar
    13    5   28 1
    14    6    7 ar
    15    6   29 1
    16    7    8 ar
    17    7   41 ar
    18    8    9 ar
    19    8   10 ar
    20   10   11 ar
    21   10   14 1
    22   11   12 ar
    23   12   13 1
    24   12   41 ar
    25   13   30 1
    26   13   31 1
    27   14   32 1
    28   14   33 1
    29   15   20 ar
    30   15   16 ar
    31   16   17 ar
    32   16   34 1
    33   17   18 ar
    34   17   35 1
    35   18   19 ar
    36   18   36 1
    37   19   20 ar
    38   19   37 1
    39   20   21 1
    40   21   22 1
    41   22   38 1
    42   22   39 1
    43   22   40 1
    44   41   42 1
@<TRIPOS>MOLECULE
ZINC03814931
   38    40     0     0     0
SMALL
USER_CHARGES

@<TRIPOS>ATOM
      1 C1         -0.0127    1.0858    0.0080 C.3       1 <0>         0.0285
      2 O1         -0.6816    1.5467    1.1837 O.3       1 <0>        -0.3193
      3 C2         -1.9749    1.1630    1.3482 C.ar      1 <0>         0.1715
      4 C3         -2.5871    0.3591    0.3965 C.ar      1 <0>        -0.2649
      5 C4         -3.9017   -0.0327    0.5627 C.ar      1 <0>        -0.0335
      6 C5         -4.6111    0.3743    1.6762 C.ar      1 <0>        -0.2321
      7 C6         -4.0036    1.1790    2.6320 C.ar      1 <0>         0.2546
      8 C7         -2.6813    1.5695    2.4689 C.ar      1 <0>        -0.2302
      9 N1         -4.7204    1.5901    3.7580 N.pl3     1 <0>        -0.7379
     10 C8         -6.1139    1.1729    3.9318 C.3       1 <0>         0.1849
     11 C9         -6.6535    1.7464    5.2167 C.ar      1 <0>         0.0839
     12 C10        -7.3554    2.9493    5.1816 C.ar      1 <0>        -0.1005
     13 C11        -7.8560    3.4825    6.3365 C.ar      1 <0>        -0.0842
     14 C12        -7.6302    2.7878    7.5371 C.ar      1 <0>         0.1987
     15 C13        -6.9038    1.5738    7.4976 C.ar      1 <0>        -0.0496
     16 N2         -6.4457    1.1029    6.3417 N.ar      1 <0>        -0.4119
     17 C14        -6.6844    0.8730    8.7638 C.ar      1 <0>         0.5346
     18 N3         -7.1795    1.4195    9.8652 N.ar      1 <0>        -0.6296
     19 C15        -7.8532    2.5648    9.8273 C.ar      1 <0>         0.6235
     20 N4         -8.0795    3.2360    8.7160 N.ar      1 <0>        -0.6131
     21 N5         -8.3420    3.0782   11.0151 N.pl3     1 <0>        -0.8138
     22 N6         -5.9861   -0.3150    8.8093 N.pl3     1 <0>        -0.7961
     23 H1          0.0021   -0.0041    0.0020 H         1 <0>         0.0561
     24 H2          1.0099    1.4631    0.0003 H         1 <0>         0.0990
     25 H3         -0.5399    1.4469   -0.8751 H         1 <0>         0.0562
     26 H4         -2.0351    0.0390   -0.4748 H         1 <0>         0.1235
     27 H5         -4.3755   -0.6585   -0.1791 H         1 <0>         0.1236
     28 H6         -5.6384    0.0664    1.8039 H         1 <0>         0.1225
     29 H7         -2.2053    2.1916    3.2124 H         1 <0>         0.1261
     30 H8         -4.2955    2.1519    4.4249 H         1 <0>         0.4012
     31 H9         -6.7091    1.5357    3.0938 H         1 <0>         0.0799
     32 H10        -6.1653    0.0847    3.9698 H         1 <0>         0.0790
     33 H11        -7.5074    3.4586    4.2414 H         1 <0>         0.1459
     34 H12        -8.4056    4.4121    6.3270 H         1 <0>         0.1509
     35 H13        -8.1898    2.6040   11.8475 H         1 <0>         0.4150
     36 H14        -8.8371    3.9124   11.0157 H         1 <0>         0.4176
     37 H15        -5.6306   -0.7002    7.9931 H         1 <0>         0.4254
     38 H16        -5.8504   -0.7656    9.6575 H         1 <0>         0.4143
@<TRIPOS>BOND
     1    1    2 1
     2    1   23 1
     3    1   24 1
     4    1   25 1
     5    2    3 1
     6    3    8 ar
     7    3    4 ar
     8    4    5 ar
     9    4   26 1
    10    5    6 ar
    11    5   27 1
    12    6    7 ar
    13    6   28 1
    14    7    8 ar
    15    7    9 1
    16    8   29 1
    17    9   10 1
    18    9   30 1
    19   10   11 1
    20   10   31 1
    21   10   32 1
    22   11   16 ar
    23   11   12 ar
    24   12   13 ar
    25   12   33 1
    26   13   14 ar
    27   13   34 1
    28   14   20 ar
    29   14   15 ar
    30   15   16 ar
    31   15   17 ar
    32   17   18 ar
    33   17   22 1
    34   18   19 ar
    35   19   20 ar
    36   19   21 1
    37   21   35 1
    38   21   36 1
    39   22   37 1
    40   22   38 1
@<TRIPOS>MOLECULE
ZINC03814931
   39    41     0     0     0
SMALL
USER_CHARGES

@<TRIPOS>ATOM
      1 C1         -0.0127    1.0858    0.0080 C.3       1 <0>         0.0266
      2 O1         -0.6816    1.5467    1.1837 O.3       1 <0>        -0.3178
      3 C2         -1.9749    1.1630    1.3482 C.ar      1 <0>         0.1739
      4 C3         -2.5871    0.3591    0.3965 C.ar      1 <0>        -0.2553
      5 C4         -3.9017   -0.0327    0.5627 C.ar      1 <0>        -0.0325
      6 C5         -4.6111    0.3743    1.6762 C.ar      1 <0>        -0.2301
      7 C6         -4.0036    1.1790    2.6320 C.ar      1 <0>         0.2453
      8 C7         -2.6813    1.5695    2.4689 C.ar      1 <0>        -0.2250
      9 N1         -4.7204    1.5901    3.7580 N.pl3     1 <0>        -0.7447
     10 C8         -6.1139    1.1729    3.9318 C.3       1 <0>         0.1742
     11 C9         -6.6535    1.7464    5.2167 C.ar      1 <0>         0.1313
     12 C10        -7.3554    2.9493    5.1816 C.ar      1 <0>        -0.0648
     13 C11        -7.8560    3.4825    6.3365 C.ar      1 <0>        -0.0948
     14 C12        -7.6302    2.7878    7.5371 C.ar      1 <0>         0.1463
     15 C13        -6.9038    1.5738    7.4976 C.ar      1 <0>         0.0271
     16 N2         -6.4457    1.1029    6.3417 N.ar      1 <0>        -0.3990
     17 C14        -6.6844    0.8730    8.7638 C.ar      1 <0>         0.5758
     18 N3         -7.1795    1.4195    9.8652 N.ar      1 <0>        -0.5792
     19 C15        -7.8532    2.5648    9.8273 C.ar      1 <0>         0.7018
     20 N4         -8.3420    3.0782   11.0151 N.pl3     1 <0>        -0.7832
     21 N5         -5.9861   -0.3150    8.8093 N.pl3     1 <0>        -0.7347
     22 H1          0.0021   -0.0041    0.0020 H         1 <0>         0.0583
     23 H2          1.0099    1.4631    0.0003 H         1 <0>         0.1025
     24 H3         -0.5399    1.4469   -0.8751 H         1 <0>         0.0585
     25 H4         -2.0351    0.0390   -0.4748 H         1 <0>         0.1278
     26 H5         -4.3755   -0.6585   -0.1791 H         1 <0>         0.1272
     27 H6         -5.6384    0.0664    1.8039 H         1 <0>         0.1221
     28 H7         -2.2053    2.1916    3.2124 H         1 <0>         0.1269
     29 H8         -4.2955    2.1519    4.4249 H         1 <0>         0.4004
     30 H9         -6.7091    1.5357    3.0938 H         1 <0>         0.0922
     31 H10        -6.1653    0.0847    3.9698 H         1 <0>         0.0905
     32 H11        -7.5074    3.4586    4.2414 H         1 <0>         0.1720
     33 H12        -8.4056    4.4121    6.3270 H         1 <0>         0.1727
     34 H13        -8.1898    2.6040   11.8475 H         1 <0>         0.4442
     35 H14        -8.8371    3.9124   11.0157 H         1 <0>         0.4321
     36 H15        -5.6306   -0.7002    7.9931 H         1 <0>         0.4437
     37 H16        -5.8504   -0.7656    9.6575 H         1 <0>         0.4351
     38 N6         -8.1181    3.3001    8.7191 N.ar      1 <0>        -0.6056
     39 H17        -8.6288    4.1599    8.7184 H         1 <0>         0.4581
@<TRIPOS>BOND
     1    1    2 1
     2    1   22 1
     3    1   23 1
     4    1   24 1
     5    2    3 1
     6    3    8 ar
     7    3    4 ar
     8    4    5 ar
     9    4   25 1
    10    5    6 ar
    11    5   26 1
    12    6    7 ar
    13    6   27 1
    14    7    8 ar
    15    7    9 1
    16    8   28 1
    17    9   10 1
    18    9   29 1
    19   10   11 1
    20   10   30 1
    21   10   31 1
    22   11   16 ar
    23   11   12 ar
    24   12   13 ar
    25   12   32 1
    26   13   14 ar
    27   13   33 1
    28   14   15 ar
    29   14   38 ar
    30   15   16 ar
    31   15   17 ar
    32   17   18 ar
    33   17   21 1
    34   18   19 ar
    35   19   20 1
    36   19   38 ar
    37   20   34 1
    38   20   35 1
    39   21   36 1
    40   21   37 1
    41   38   39 1
@<TRIPOS>MOLECULE
ZINC03814932
   41    43     0     0     0
SMALL
USER_CHARGES

@<TRIPOS>ATOM
      1 C1         -4.0793    2.4410    4.7642 C.3       1 <0>         0.0895
      2 N1         -4.7208    1.5920    3.7572 N.pl3     1 <0>        -0.6220
      3 C2         -6.1144    1.1749    3.9310 C.3       1 <0>         0.1790
      4 C3         -6.1583   -0.1261    4.6904 C.ar      1 <0>         0.0820
      5 C4         -6.3311   -0.1002    6.0725 C.ar      1 <0>        -0.1062
      6 C5         -6.3779   -1.2705    6.7775 C.ar      1 <0>        -0.0846
      7 C6         -6.2376   -2.4754    6.0678 C.ar      1 <0>         0.1931
      8 C7         -6.0599   -2.4249    4.6646 C.ar      1 <0>        -0.0455
      9 N2         -6.0275   -1.2550    4.0337 N.ar      1 <0>        -0.4104
     10 C8         -5.9166   -3.6958    3.9528 C.ar      1 <0>         0.5336
     11 N3         -5.9624   -4.8115    4.6670 N.ar      1 <0>        -0.6305
     12 C9         -6.1325   -4.7833    5.9851 C.ar      1 <0>         0.6209
     13 N4         -6.2669   -3.6684    6.6747 N.ar      1 <0>        -0.6137
     14 N5         -6.1707   -5.9859    6.6677 N.pl3     1 <0>        -0.8157
     15 N6         -5.7395   -3.7312    2.5859 N.pl3     1 <0>        -0.7964
     16 C10        -4.0039    1.1804    2.6315 C.ar      1 <0>         0.2510
     17 C11        -4.6115    0.3751    1.6757 C.ar      1 <0>        -0.2141
     18 C12        -3.9021   -0.0321    0.5628 C.ar      1 <0>        -0.0408
     19 C13        -2.5869    0.3593    0.3968 C.ar      1 <0>        -0.2632
     20 C14        -1.9748    1.1630    1.3482 C.ar      1 <0>         0.1666
     21 C15        -2.6815    1.5697    2.4692 C.ar      1 <0>        -0.2306
     22 O1         -0.6816    1.5467    1.1837 O.3       1 <0>        -0.3201
     23 C16        -0.0127    1.0858    0.0080 C.3       1 <0>         0.0293
     24 H1         -4.2341    3.4890    4.5079 H         1 <0>         0.0536
     25 H2         -4.5159    2.2379    5.7421 H         1 <0>         0.0670
     26 H3         -3.0108    2.2276    4.7920 H         1 <0>         0.0695
     27 H4         -6.6557    1.9394    4.4884 H         1 <0>         0.0954
     28 H5         -6.5781    1.0410    2.9537 H         1 <0>         0.0953
     29 H6         -6.4319    0.8442    6.5866 H         1 <0>         0.1410
     30 H7         -6.5148   -1.2691    7.8487 H         1 <0>         0.1478
     31 H8         -6.0745   -6.8213    6.1842 H         1 <0>         0.4142
     32 H9         -6.2936   -5.9937    7.6298 H         1 <0>         0.4167
     33 H10        -5.7082   -2.9046    2.0793 H         1 <0>         0.4248
     34 H11        -5.6463   -4.5828    2.1308 H         1 <0>         0.4132
     35 H12        -5.6388    0.0673    1.8033 H         1 <0>         0.1298
     36 H13        -4.3759   -0.6579   -0.1790 H         1 <0>         0.1215
     37 H14        -2.0348    0.0389   -0.4743 H         1 <0>         0.1216
     38 H15        -2.2053    2.1912    3.2130 H         1 <0>         0.1281
     39 H16         0.0021   -0.0041    0.0020 H         1 <0>         0.0549
     40 H17         1.0099    1.4631    0.0003 H         1 <0>         0.0985
     41 H18        -0.5399    1.4469   -0.8751 H         1 <0>         0.0558
@<TRIPOS>BOND
     1    1    2 1
     2    1   24 1
     3    1   25 1
     4    1   26 1
     5    2    3 1
     6    2   16 1
     7    3    4 1
     8    3   27 1
     9    3   28 1
    10    4    9 ar
    11    4    5 ar
    12    5    6 ar
    13    5   29 1
    14    6    7 ar
    15    6   30 1
    16    7   13 ar
    17    7    8 ar
    18    8    9 ar
    19    8   10 ar
    20   10   11 ar
    21   10   15 1
    22   11   12 ar
    23   12   13 ar
    24   12   14 1
    25   14   31 1
    26   14   32 1
    27   15   33 1
    28   15   34 1
    29   16   21 ar
    30   16   17 ar
    31   17   18 ar
    32   17   35 1
    33   18   19 ar
    34   18   36 1
    35   19   20 ar
    36   19   37 1
    37   20   21 ar
    38   20   22 1
    39   21   38 1
    40   22   23 1
    41   23   39 1
    42   23   40 1
    43   23   41 1
@<TRIPOS>MOLECULE
ZINC03814932
   42    44     0     0     0
SMALL
USER_CHARGES

@<TRIPOS>ATOM
      1 C1         -4.0793    2.4410    4.7642 C.3       1 <0>         0.0862
      2 N1         -4.7208    1.5920    3.7572 N.pl3     1 <0>        -0.6247
      3 C2         -6.1144    1.1749    3.9310 C.3       1 <0>         0.1679
      4 C3         -6.1583   -0.1261    4.6904 C.ar      1 <0>         0.1275
      5 C4         -6.3311   -0.1002    6.0725 C.ar      1 <0>        -0.0718
      6 C5         -6.3779   -1.2705    6.7775 C.ar      1 <0>        -0.0952
      7 C6         -6.2376   -2.4754    6.0678 C.ar      1 <0>         0.1394
      8 C7         -6.0599   -2.4249    4.6646 C.ar      1 <0>         0.0302
      9 N2         -6.0275   -1.2550    4.0337 N.ar      1 <0>        -0.3979
     10 C8         -5.9166   -3.6958    3.9528 C.ar      1 <0>         0.5756
     11 N3         -5.9624   -4.8115    4.6670 N.ar      1 <0>        -0.5803
     12 C9         -6.1325   -4.7833    5.9851 C.ar      1 <0>         0.7008
     13 N4         -6.1707   -5.9859    6.6677 N.pl3     1 <0>        -0.7852
     14 N5         -5.7395   -3.7312    2.5859 N.pl3     1 <0>        -0.7354
     15 C10        -4.0039    1.1804    2.6315 C.ar      1 <0>         0.2419
     16 C11        -4.6115    0.3751    1.6757 C.ar      1 <0>        -0.2226
     17 C12        -3.9021   -0.0321    0.5628 C.ar      1 <0>        -0.0408
     18 C13        -2.5869    0.3593    0.3968 C.ar      1 <0>        -0.2562
     19 C14        -1.9748    1.1630    1.3482 C.ar      1 <0>         0.1723
     20 C15        -2.6815    1.5697    2.4692 C.ar      1 <0>        -0.2252
     21 O1         -0.6816    1.5467    1.1837 O.3       1 <0>        -0.3172
     22 C16        -0.0127    1.0858    0.0080 C.3       1 <0>         0.0273
     23 H1         -4.2341    3.4890    4.5079 H         1 <0>         0.0604
     24 H2         -4.5159    2.2379    5.7421 H         1 <0>         0.0661
     25 H3         -3.0108    2.2276    4.7920 H         1 <0>         0.0742
     26 H4         -6.6557    1.9394    4.4884 H         1 <0>         0.1089
     27 H5         -6.5781    1.0410    2.9537 H         1 <0>         0.1074
     28 H6         -6.4319    0.8442    6.5866 H         1 <0>         0.1670
     29 H7         -6.5148   -1.2691    7.8487 H         1 <0>         0.1695
     30 H8         -6.0745   -6.8213    6.1842 H         1 <0>         0.4436
     31 H9         -6.2936   -5.9937    7.6298 H         1 <0>         0.4314
     32 H10        -5.7082   -2.9046    2.0793 H         1 <0>         0.4431
     33 H11        -5.6463   -4.5828    2.1308 H         1 <0>         0.4341
     34 H12        -5.6388    0.0673    1.8033 H         1 <0>         0.1266
     35 H13        -4.3759   -0.6579   -0.1790 H         1 <0>         0.1241
     36 H14        -2.0348    0.0389   -0.4743 H         1 <0>         0.1261
     37 H15        -2.2053    2.1912    3.2130 H         1 <0>         0.1312
     38 H16         0.0021   -0.0041    0.0020 H         1 <0>         0.0563
     39 H17         1.0099    1.4631    0.0003 H         1 <0>         0.1030
     40 H18        -0.5399    1.4469   -0.8751 H         1 <0>         0.0588
     41 N6         -6.2763   -3.6721    6.7489 N.ar      1 <0>        -0.6054
     42 H19        -6.4037   -3.6790    7.7408 H         1 <0>         0.4569
@<TRIPOS>BOND
     1    1    2 1
     2    1   23 1
     3    1   24 1
     4    1   25 1
     5    2    3 1
     6    2   15 1
     7    3    4 1
     8    3   26 1
     9    3   27 1
    10    4    9 ar
    11    4    5 ar
    12    5    6 ar
    13    5   28 1
    14    6    7 ar
    15    6   29 1
    16    7    8 ar
    17    7   41 ar
    18    8    9 ar
    19    8   10 ar
    20   10   11 ar
    21   10   14 1
    22   11   12 ar
    23   12   13 1
    24   12   41 ar
    25   13   30 1
    26   13   31 1
    27   14   32 1
    28   14   33 1
    29   15   20 ar
    30   15   16 ar
    31   16   17 ar
    32   16   34 1
    33   17   18 ar
    34   17   35 1
    35   18   19 ar
    36   18   36 1
    37   19   20 ar
    38   19   21 1
    39   20   37 1
    40   21   22 1
    41   22   38 1
    42   22   39 1
    43   22   40 1
    44   41   42 1
@<TRIPOS>MOLECULE
ZINC03814933
   31    33     0     0     0
SMALL
USER_CHARGES

@<TRIPOS>ATOM
      1 C1          3.4419    7.3723   -0.6548 C.ar      1 <0>        -0.1441
      2 C2          2.2459    7.8251   -1.1811 C.ar      1 <0>        -0.1016
      3 C3          1.0808    7.1172   -0.9607 C.ar      1 <0>        -0.1262
      4 C4          1.1092    5.9553   -0.1998 C.ar      1 <0>         0.1704
      5 C5          2.3114    5.5064    0.3322 C.ar      1 <0>        -0.1567
      6 C6          3.4738    6.2161    0.1032 C.ar      1 <0>        -0.0968
      7 N1         -0.0691    5.2399    0.0304 N.pl3     1 <0>        -0.6615
      8 C7         -1.2791    5.9136    0.1505 C.ar      1 <0>         0.3722
      9 C8         -2.4665    5.1762    0.2574 C.ar      1 <0>        -0.1496
     10 C9         -3.6600    5.8242    0.3821 C.ar      1 <0>        -0.0450
     11 C10        -3.6557    7.2316    0.3864 C.ar      1 <0>         0.1576
     12 C11        -2.4239    7.9147    0.2691 C.ar      1 <0>        -0.0114
     13 N2         -1.2851    7.2314    0.1559 N.ar      1 <0>        -0.4865
     14 C12        -2.4449    9.3337    0.2769 C.ar      1 <0>         0.5201
     15 N3         -3.6129    9.9458    0.3931 N.ar      1 <0>        -0.6224
     16 C13        -4.7480    9.2613    0.5010 C.ar      1 <0>         0.6053
     17 N4         -4.7858    7.9425    0.4994 N.ar      1 <0>        -0.5981
     18 N5         -5.9369    9.9602    0.6201 N.pl3     1 <0>        -0.8193
     19 N6         -1.2757   10.0581    0.1654 N.pl3     1 <0>        -0.8055
     20 H1          4.3524    7.9254   -0.8324 H         1 <0>         0.1204
     21 H2          2.2238    8.7308   -1.7689 H         1 <0>         0.1220
     22 H3          0.1478    7.4689   -1.3758 H         1 <0>         0.1322
     23 H4          2.3369    4.6037    0.9245 H         1 <0>         0.1220
     24 H5          4.4087    5.8678    0.5168 H         1 <0>         0.1233
     25 H6         -0.0425    4.2733    0.1064 H         1 <0>         0.4186
     26 H7         -2.4356    4.0967    0.2460 H         1 <0>         0.1450
     27 H8         -4.5842    5.2722    0.4696 H         1 <0>         0.1529
     28 H9         -5.9311   10.9302    0.6237 H         1 <0>         0.4134
     29 H10        -6.7759    9.4800    0.6999 H         1 <0>         0.4158
     30 H11        -0.4262    9.5977    0.0804 H         1 <0>         0.4228
     31 H12        -1.3034   11.0277    0.1720 H         1 <0>         0.4106
@<TRIPOS>BOND
     1    1    6 ar
     2    1    2 ar
     3    1   20 1
     4    2    3 ar
     5    2   21 1
     6    3    4 ar
     7    3   22 1
     8    4    5 ar
     9    4    7 1
    10    5    6 ar
    11    5   23 1
    12    6   24 1
    13    7    8 1
    14    7   25 1
    15    8   13 ar
    16    8    9 ar
    17    9   10 ar
    18    9   26 1
    19   10   11 ar
    20   10   27 1
    21   11   17 ar
    22   11   12 ar
    23   12   13 ar
    24   12   14 ar
    25   14   15 ar
    26   14   19 1
    27   15   16 ar
    28   16   17 ar
    29   16   18 1
    30   18   28 1
    31   18   29 1
    32   19   30 1
    33   19   31 1
@<TRIPOS>MOLECULE
ZINC03814933
   32    34     0     0     0
SMALL
USER_CHARGES

@<TRIPOS>ATOM
      1 C1          3.4419    7.3723   -0.6548 C.ar      1 <0>        -0.1262
      2 C2          2.2459    7.8251   -1.1811 C.ar      1 <0>        -0.1030
      3 C3          1.0808    7.1172   -0.9607 C.ar      1 <0>        -0.1264
      4 C4          1.1092    5.9553   -0.1998 C.ar      1 <0>         0.1427
      5 C5          2.3114    5.5064    0.3322 C.ar      1 <0>        -0.1401
      6 C6          3.4738    6.2161    0.1032 C.ar      1 <0>        -0.0927
      7 N1         -0.0691    5.2399    0.0304 N.pl3     1 <0>        -0.6415
      8 C7         -1.2791    5.9136    0.1505 C.ar      1 <0>         0.4126
      9 C8         -2.4665    5.1762    0.2574 C.ar      1 <0>        -0.1226
     10 C9         -3.6600    5.8242    0.3821 C.ar      1 <0>        -0.0588
     11 C10        -3.6557    7.2316    0.3864 C.ar      1 <0>         0.0945
     12 C11        -2.4239    7.9147    0.2691 C.ar      1 <0>         0.0730
     13 N2         -1.2851    7.2314    0.1559 N.ar      1 <0>        -0.4800
     14 C12        -2.4449    9.3337    0.2769 C.ar      1 <0>         0.5678
     15 N3         -3.6129    9.9458    0.3931 N.ar      1 <0>        -0.5766
     16 C13        -4.7480    9.2613    0.5010 C.ar      1 <0>         0.6914
     17 N4         -5.9369    9.9602    0.6201 N.pl3     1 <0>        -0.7890
     18 N5         -1.2757   10.0581    0.1654 N.pl3     1 <0>        -0.7446
     19 H1          4.3524    7.9254   -0.8324 H         1 <0>         0.1284
     20 H2          2.2238    8.7308   -1.7689 H         1 <0>         0.1277
     21 H3          0.1478    7.4689   -1.3758 H         1 <0>         0.1286
     22 H4          2.3369    4.6037    0.9245 H         1 <0>         0.1282
     23 H5          4.4087    5.8678    0.5168 H         1 <0>         0.1316
     24 H6         -0.0425    4.2733    0.1064 H         1 <0>         0.4288
     25 H7         -2.4356    4.0967    0.2460 H         1 <0>         0.1677
     26 H8         -4.5842    5.2722    0.4696 H         1 <0>         0.1713
     27 H9         -5.9311   10.9302    0.6237 H         1 <0>         0.4425
     28 H10        -6.7759    9.4800    0.6999 H         1 <0>         0.4306
     29 H11        -0.4262    9.5977    0.0804 H         1 <0>         0.4407
     30 H12        -1.3034   11.0277    0.1720 H         1 <0>         0.4318
     31 N6         -4.8486    7.9091    0.5054 N.ar      1 <0>        -0.5942
     32 H13        -5.7061    7.4011    0.5869 H         1 <0>         0.4558
@<TRIPOS>BOND
     1    1    6 ar
     2    1    2 ar
     3    1   19 1
     4    2    3 ar
     5    2   20 1
     6    3    4 ar
     7    3   21 1
     8    4    5 ar
     9    4    7 1
    10    5    6 ar
    11    5   22 1
    12    6   23 1
    13    7    8 1
    14    7   24 1
    15    8   13 ar
    16    8    9 ar
    17    9   10 ar
    18    9   25 1
    19   10   11 ar
    20   10   26 1
    21   11   12 ar
    22   11   31 ar
    23   12   13 ar
    24   12   14 ar
    25   14   15 ar
    26   14   18 1
    27   15   16 ar
    28   16   17 1
    29   16   31 ar
    30   17   27 1
    31   17   28 1
    32   18   29 1
    33   18   30 1
    34   31   32 1
@<TRIPOS>MOLECULE
ZINC03814934
   35    37     0     0     0
SMALL
USER_CHARGES

@<TRIPOS>ATOM
      1 C1          0.8875    0.3859    1.2122 C.3       1 <0>         0.0297
      2 O1         -0.1398    1.0297    1.9686 O.3       1 <0>        -0.3210
      3 C2          0.1231    2.2836    2.4248 C.ar      1 <0>         0.0894
      4 C3          1.3425    2.8808    2.1505 C.ar      1 <0>        -0.1858
      5 C4          1.6080    4.1561    2.6142 C.ar      1 <0>        -0.1049
      6 C5          0.6591    4.8391    3.3523 C.ar      1 <0>        -0.1353
      7 C6         -0.5599    4.2503    3.6308 C.ar      1 <0>        -0.0950
      8 C7         -0.8355    2.9730    3.1644 C.ar      1 <0>         0.1460
      9 N1         -2.0720    2.3767    3.4398 N.pl3     1 <0>        -0.6508
     10 C8         -2.7513    2.6944    4.6098 C.ar      1 <0>         0.3757
     11 C9         -4.0484    2.1997    4.8052 C.ar      1 <0>        -0.1492
     12 C10        -4.7265    2.5031    5.9489 C.ar      1 <0>        -0.0443
     13 C11        -4.0881    3.3148    6.9054 C.ar      1 <0>         0.1560
     14 C12        -2.7792    3.7809    6.6465 C.ar      1 <0>        -0.0101
     15 N2         -2.1600    3.4497    5.5135 N.ar      1 <0>        -0.4906
     16 C13        -2.1565    4.5981    7.6255 C.ar      1 <0>         0.5191
     17 N3         -2.8297    4.8828    8.7293 N.ar      1 <0>        -0.6222
     18 C14        -4.0607    4.4216    8.9303 C.ar      1 <0>         0.6041
     19 N4         -4.6860    3.6587    8.0541 N.ar      1 <0>        -0.5976
     20 N5         -4.7116    4.7547   10.1057 N.pl3     1 <0>        -0.8199
     21 N6         -0.8796    5.0840    7.4317 N.pl3     1 <0>        -0.8062
     22 H1          1.1119    0.9791    0.3256 H         1 <0>         0.0555
     23 H2          0.5493   -0.6053    0.9101 H         1 <0>         0.1000
     24 H3          1.7850    0.2929    1.8237 H         1 <0>         0.0554
     25 H4          2.0858    2.3503    1.5739 H         1 <0>         0.1294
     26 H5          2.5592    4.6201    2.3989 H         1 <0>         0.1239
     27 H6          0.8708    5.8353    3.7117 H         1 <0>         0.1250
     28 H7         -1.2992    4.7859    4.2078 H         1 <0>         0.1426
     29 H8         -2.4544    1.7419    2.8140 H         1 <0>         0.4218
     30 H9         -4.5100    1.5794    4.0512 H         1 <0>         0.1450
     31 H10        -5.7262    2.1304    6.1163 H         1 <0>         0.1526
     32 H11        -5.6098    4.4283   10.2720 H         1 <0>         0.4155
     33 H12        -4.2696    5.3145   10.7631 H         1 <0>         0.4131
     34 H13        -0.4648    5.6413    8.1086 H         1 <0>         0.4104
     35 H14        -0.3967    4.8682    6.6186 H         1 <0>         0.4225
@<TRIPOS>BOND
     1    1    2 1
     2    1   22 1
     3    1   23 1
     4    1   24 1
     5    2    3 1
     6    3    8 ar
     7    3    4 ar
     8    4    5 ar
     9    4   25 1
    10    5    6 ar
    11    5   26 1
    12    6    7 ar
    13    6   27 1
    14    7    8 ar
    15    7   28 1
    16    8    9 1
    17    9   10 1
    18    9   29 1
    19   10   15 ar
    20   10   11 ar
    21   11   12 ar
    22   11   30 1
    23   12   13 ar
    24   12   31 1
    25   13   19 ar
    26   13   14 ar
    27   14   15 ar
    28   14   16 ar
    29   16   17 ar
    30   16   21 1
    31   17   18 ar
    32   18   19 ar
    33   18   20 1
    34   20   32 1
    35   20   33 1
    36   21   34 1
    37   21   35 1
@<TRIPOS>MOLECULE
ZINC03814934
   36    38     0     0     0
SMALL
USER_CHARGES

@<TRIPOS>ATOM
      1 C1          0.8875    0.3859    1.2122 C.3       1 <0>         0.0269
      2 O1         -0.1398    1.0297    1.9686 O.3       1 <0>        -0.3215
      3 C2          0.1231    2.2836    2.4248 C.ar      1 <0>         0.1084
      4 C3          1.3425    2.8808    2.1505 C.ar      1 <0>        -0.1841
      5 C4          1.6080    4.1561    2.6142 C.ar      1 <0>        -0.0853
      6 C5          0.6591    4.8391    3.3523 C.ar      1 <0>        -0.1390
      7 C6         -0.5599    4.2503    3.6308 C.ar      1 <0>        -0.0925
      8 C7         -0.8355    2.9730    3.1644 C.ar      1 <0>         0.1151
      9 N1         -2.0720    2.3767    3.4398 N.pl3     1 <0>        -0.6295
     10 C8         -2.7513    2.6944    4.6098 C.ar      1 <0>         0.4144
     11 C9         -4.0484    2.1997    4.8052 C.ar      1 <0>        -0.1224
     12 C10        -4.7265    2.5031    5.9489 C.ar      1 <0>        -0.0584
     13 C11        -4.0881    3.3148    6.9054 C.ar      1 <0>         0.0920
     14 C12        -2.7792    3.7809    6.6465 C.ar      1 <0>         0.0740
     15 N2         -2.1600    3.4497    5.5135 N.ar      1 <0>        -0.4843
     16 C13        -2.1565    4.5981    7.6255 C.ar      1 <0>         0.5674
     17 N3         -2.8297    4.8828    8.7293 N.ar      1 <0>        -0.5766
     18 C14        -4.0607    4.4216    8.9303 C.ar      1 <0>         0.6906
     19 N4         -4.7116    4.7547   10.1057 N.pl3     1 <0>        -0.7898
     20 N5         -0.8796    5.0840    7.4317 N.pl3     1 <0>        -0.7456
     21 H1          1.1119    0.9791    0.3256 H         1 <0>         0.0606
     22 H2          0.5493   -0.6053    0.9101 H         1 <0>         0.1056
     23 H3          1.7850    0.2929    1.8237 H         1 <0>         0.0597
     24 H4          2.0858    2.3503    1.5739 H         1 <0>         0.1370
     25 H5          2.5592    4.6201    2.3989 H         1 <0>         0.1317
     26 H6          0.8708    5.8353    3.7117 H         1 <0>         0.1306
     27 H7         -1.2992    4.7859    4.2078 H         1 <0>         0.1383
     28 H8         -2.4544    1.7419    2.8140 H         1 <0>         0.4318
     29 H9         -4.5100    1.5794    4.0512 H         1 <0>         0.1673
     30 H10        -5.7262    2.1304    6.1163 H         1 <0>         0.1708
     31 H11        -5.6098    4.4283   10.2720 H         1 <0>         0.4303
     32 H12        -4.2696    5.3145   10.7631 H         1 <0>         0.4422
     33 H13        -0.4648    5.6413    8.1086 H         1 <0>         0.4315
     34 H14        -0.3967    4.8682    6.6186 H         1 <0>         0.4405
     35 N6         -4.7521    3.6357    8.0682 N.ar      1 <0>        -0.5935
     36 H15        -5.6779    3.2926    8.2263 H         1 <0>         0.4555
@<TRIPOS>BOND
     1    1    2 1
     2    1   21 1
     3    1   22 1
     4    1   23 1
     5    2    3 1
     6    3    8 ar
     7    3    4 ar
     8    4    5 ar
     9    4   24 1
    10    5    6 ar
    11    5   25 1
    12    6    7 ar
    13    6   26 1
    14    7    8 ar
    15    7   27 1
    16    8    9 1
    17    9   10 1
    18    9   28 1
    19   10   15 ar
    20   10   11 ar
    21   11   12 ar
    22   11   29 1
    23   12   13 ar
    24   12   30 1
    25   13   14 ar
    26   13   35 ar
    27   14   15 ar
    28   14   16 ar
    29   16   17 ar
    30   16   20 1
    31   17   18 ar
    32   18   19 1
    33   18   35 ar
    34   19   31 1
    35   19   32 1
    36   20   33 1
    37   20   34 1
    38   35   36 1
@<TRIPOS>MOLECULE
ZINC03814935
   31    33     0     0     0
SMALL
USER_CHARGES

@<TRIPOS>ATOM
      1 C1          0.8307    1.9117   -1.2191 C.ar      1 <0>        -0.1418
      2 C2          2.0123    1.2525   -1.4956 C.ar      1 <0>        -0.0822
      3 C3          2.3324    0.0894   -0.8174 C.ar      1 <0>        -0.0550
      4 C4          1.4699   -0.4165    0.1393 C.ar      1 <0>        -0.0811
      5 C5          0.2871    0.2388    0.4201 C.ar      1 <0>        -0.1335
      6 C6         -0.0367    1.4064   -0.2590 C.ar      1 <0>         0.1740
      7 N1         -1.2362    2.0687    0.0191 N.pl3     1 <0>        -0.6629
      8 C7         -1.2553    3.4540    0.1317 C.ar      1 <0>         0.3764
      9 C8         -0.0432    4.1583    0.1342 C.ar      1 <0>        -0.1580
     10 C9         -0.0474    5.5180    0.2390 C.ar      1 <0>        -0.0452
     11 C10        -1.2882    6.1727    0.3532 C.ar      1 <0>         0.1602
     12 C11        -2.4734    5.4028    0.3494 C.ar      1 <0>        -0.0105
     13 N2         -2.4122    4.0759    0.2391 N.ar      1 <0>        -0.4939
     14 C12        -3.7123    6.0854    0.4653 C.ar      1 <0>         0.5200
     15 N3         -3.6971    7.4049    0.5709 N.ar      1 <0>        -0.6221
     16 C13        -2.5564    8.0885    0.5698 C.ar      1 <0>         0.6060
     17 N4         -1.3779    7.5049    0.4644 N.ar      1 <0>        -0.5972
     18 N5         -2.6076    9.4672    0.6834 N.pl3     1 <0>        -0.8187
     19 N6         -4.9043    5.3901    0.4684 N.pl3     1 <0>        -0.8054
     20 Cl1         3.8189   -0.7362   -1.1671 Cl        1 <0>        -0.0666
     21 H1          0.5812    2.8191   -1.7489 H         1 <0>         0.1379
     22 H2          2.6873    1.6451   -2.2417 H         1 <0>         0.1393
     23 H3          1.7222   -1.3243    0.6670 H         1 <0>         0.1391
     24 H4         -0.3853   -0.1561    1.1674 H         1 <0>         0.1374
     25 H5         -2.0550    1.5614    0.1336 H         1 <0>         0.4172
     26 H6          0.8922    3.6252    0.0494 H         1 <0>         0.1502
     27 H7          0.8766    6.0771    0.2387 H         1 <0>         0.1532
     28 H8         -3.4641    9.9159    0.7616 H         1 <0>         0.4136
     29 H9         -1.7871    9.9846    0.6847 H         1 <0>         0.4161
     30 H10        -4.9020    4.4232    0.3907 H         1 <0>         0.4227
     31 H11        -5.7445    5.8683    0.5482 H         1 <0>         0.4110
@<TRIPOS>BOND
     1    1    6 ar
     2    1    2 ar
     3    1   21 1
     4    2    3 ar
     5    2   22 1
     6    3    4 ar
     7    3   20 1
     8    4    5 ar
     9    4   23 1
    10    5    6 ar
    11    5   24 1
    12    6    7 1
    13    7    8 1
    14    7   25 1
    15    8   13 ar
    16    8    9 ar
    17    9   10 ar
    18    9   26 1
    19   10   11 ar
    20   10   27 1
    21   11   17 ar
    22   11   12 ar
    23   12   13 ar
    24   12   14 ar
    25   14   15 ar
    26   14   19 1
    27   15   16 ar
    28   16   17 ar
    29   16   18 1
    30   18   28 1
    31   18   29 1
    32   19   30 1
    33   19   31 1
@<TRIPOS>MOLECULE
ZINC03814935
   32    34     0     0     0
SMALL
USER_CHARGES

@<TRIPOS>ATOM
      1 C1          0.8307    1.9117   -1.2191 C.ar      1 <0>        -0.1392
      2 C2          2.0123    1.2525   -1.4956 C.ar      1 <0>        -0.0829
      3 C3          2.3324    0.0894   -0.8174 C.ar      1 <0>        -0.0415
      4 C4          1.4699   -0.4165    0.1393 C.ar      1 <0>        -0.0796
      5 C5          0.2871    0.2388    0.4201 C.ar      1 <0>        -0.1176
      6 C6         -0.0367    1.4064   -0.2590 C.ar      1 <0>         0.1430
      7 N1         -1.2362    2.0687    0.0191 N.pl3     1 <0>        -0.6440
      8 C7         -1.2553    3.4540    0.1317 C.ar      1 <0>         0.4170
      9 C8         -0.0432    4.1583    0.1342 C.ar      1 <0>        -0.1312
     10 C9         -0.0474    5.5180    0.2390 C.ar      1 <0>        -0.0598
     11 C10        -1.2882    6.1727    0.3532 C.ar      1 <0>         0.0978
     12 C11        -2.4734    5.4028    0.3494 C.ar      1 <0>         0.0748
     13 N2         -2.4122    4.0759    0.2391 N.ar      1 <0>        -0.4876
     14 C12        -3.7123    6.0854    0.4653 C.ar      1 <0>         0.5678
     15 N3         -3.6971    7.4049    0.5709 N.ar      1 <0>        -0.5763
     16 C13        -2.5564    8.0885    0.5698 C.ar      1 <0>         0.6917
     17 N4         -2.6076    9.4672    0.6834 N.pl3     1 <0>        -0.7883
     18 N5         -4.9043    5.3901    0.4684 N.pl3     1 <0>        -0.7440
     19 Cl1         3.8189   -0.7362   -1.1671 Cl        1 <0>        -0.0500
     20 H1          0.5812    2.8191   -1.7489 H         1 <0>         0.1367
     21 H2          2.6873    1.6451   -2.2417 H         1 <0>         0.1448
     22 H3          1.7222   -1.3243    0.6670 H         1 <0>         0.1464
     23 H4         -0.3853   -0.1561    1.1674 H         1 <0>         0.1425
     24 H5         -2.0550    1.5614    0.1336 H         1 <0>         0.4267
     25 H6          0.8922    3.6252    0.0494 H         1 <0>         0.1718
     26 H7          0.8766    6.0771    0.2387 H         1 <0>         0.1718
     27 H8         -3.4641    9.9159    0.7616 H         1 <0>         0.4428
     28 H9         -1.7871    9.9846    0.6847 H         1 <0>         0.4308
     29 H10        -4.9020    4.4232    0.3907 H         1 <0>         0.4411
     30 H11        -5.7445    5.8683    0.5482 H         1 <0>         0.4320
     31 N6         -1.3187    7.5448    0.4646 N.ar      1 <0>        -0.5941
     32 H12        -0.4651    8.0656    0.4639 H         1 <0>         0.4564
@<TRIPOS>BOND
     1    1    6 ar
     2    1    2 ar
     3    1   20 1
     4    2    3 ar
     5    2   21 1
     6    3    4 ar
     7    3   19 1
     8    4    5 ar
     9    4   22 1
    10    5    6 ar
    11    5   23 1
    12    6    7 1
    13    7    8 1
    14    7   24 1
    15    8   13 ar
    16    8    9 ar
    17    9   10 ar
    18    9   25 1
    19   10   11 ar
    20   10   26 1
    21   11   12 ar
    22   11   31 ar
    23   12   13 ar
    24   12   14 ar
    25   14   15 ar
    26   14   18 1
    27   15   16 ar
    28   16   17 1
    29   16   31 ar
    30   17   27 1
    31   17   28 1
    32   18   29 1
    33   18   30 1
    34   31   32 1
@<TRIPOS>MOLECULE
ZINC03814936
   34    36     0     0     0
SMALL
USER_CHARGES

@<TRIPOS>ATOM
      1 C1         -0.2100    0.8491    0.0281 C.3       1 <0>         0.0962
      2 N1         -0.6984    1.5583    1.2133 N.pl3     1 <0>        -0.5721
      3 C2          0.1406    1.7353    2.3169 C.ar      1 <0>         0.1667
      4 C3          1.2544    2.5598    2.2194 C.ar      1 <0>        -0.1251
      5 C4          2.0779    2.7374    3.3137 C.ar      1 <0>        -0.1085
      6 C5          1.8014    2.0863    4.5020 C.ar      1 <0>        -0.1246
      7 C6          0.6969    1.2600    4.6006 C.ar      1 <0>        -0.1088
      8 C7         -0.1342    1.0828    3.5121 C.ar      1 <0>        -0.1117
      9 C8         -1.9964    2.0551    1.2403 C.ar      1 <0>         0.3824
     10 C9         -2.8905    1.6922    0.2233 C.ar      1 <0>        -0.1547
     11 C10        -4.1686    2.1676    0.2404 C.ar      1 <0>        -0.0460
     12 C11        -4.5445    3.0277    1.2893 C.ar      1 <0>         0.1528
     13 C12        -3.5927    3.3587    2.2802 C.ar      1 <0>        -0.0061
     14 N2         -2.3577    2.8610    2.2183 N.ar      1 <0>        -0.4895
     15 C13        -3.9953    4.2272    3.3279 C.ar      1 <0>         0.5189
     16 N3         -5.2382    4.6831    3.3258 N.ar      1 <0>        -0.6233
     17 C14        -6.1004    4.3443    2.3716 C.ar      1 <0>         0.6032
     18 N4         -5.7791    3.5412    1.3755 N.ar      1 <0>        -0.5981
     19 N5         -7.3862    4.8543    2.4261 N.pl3     1 <0>        -0.8205
     20 N6         -3.1122    4.5882    4.3249 N.pl3     1 <0>        -0.8053
     21 H1         -0.4208   -0.2155    0.1292 H         1 <0>         0.0584
     22 H2          0.8654    0.9991   -0.0675 H         1 <0>         0.0755
     23 H3         -0.7111    1.2361   -0.8591 H         1 <0>         0.0747
     24 H4          1.4735    3.0648    1.2903 H         1 <0>         0.1210
     25 H5          2.9414    3.3818    3.2400 H         1 <0>         0.1241
     26 H6          2.4498    2.2231    5.3549 H         1 <0>         0.1228
     27 H7          0.4839    0.7529    5.5301 H         1 <0>         0.1234
     28 H8         -0.9966    0.4373    3.5898 H         1 <0>         0.1176
     29 H9         -2.5688    1.0339   -0.5701 H         1 <0>         0.1446
     30 H10        -4.8720    1.8952   -0.5325 H         1 <0>         0.1513
     31 H11        -7.6429    5.4463    3.1503 H         1 <0>         0.4128
     32 H12        -8.0305    4.6196    1.7399 H         1 <0>         0.4152
     33 H13        -2.2040    4.2477    4.3150 H         1 <0>         0.4230
     34 H14        -3.3996    5.1826    5.0355 H         1 <0>         0.4097
@<TRIPOS>BOND
     1    1    2 1
     2    1   21 1
     3    1   22 1
     4    1   23 1
     5    2    3 1
     6    2    9 1
     7    3    8 ar
     8    3    4 ar
     9    4    5 ar
    10    4   24 1
    11    5    6 ar
    12    5   25 1
    13    6    7 ar
    14    6   26 1
    15    7    8 ar
    16    7   27 1
    17    8   28 1
    18    9   14 ar
    19    9   10 ar
    20   10   11 ar
    21   10   29 1
    22   11   12 ar
    23   11   30 1
    24   12   18 ar
    25   12   13 ar
    26   13   14 ar
    27   13   15 ar
    28   15   16 ar
    29   15   20 1
    30   16   17 ar
    31   17   18 ar
    32   17   19 1
    33   19   31 1
    34   19   32 1
    35   20   33 1
    36   20   34 1
@<TRIPOS>MOLECULE
ZINC03814936
   35    37     0     0     0
SMALL
USER_CHARGES

@<TRIPOS>ATOM
      1 C1         -0.2100    0.8491    0.0281 C.3       1 <0>         0.0823
      2 N1         -0.6984    1.5583    1.2133 N.pl3     1 <0>        -0.5481
      3 C2          0.1406    1.7353    2.3169 C.ar      1 <0>         0.1358
      4 C3          1.2544    2.5598    2.2194 C.ar      1 <0>        -0.1164
      5 C4          2.0779    2.7374    3.3137 C.ar      1 <0>        -0.1049
      6 C5          1.8014    2.0863    4.5020 C.ar      1 <0>        -0.1112
      7 C6          0.6969    1.2600    4.6006 C.ar      1 <0>        -0.1075
      8 C7         -0.1342    1.0828    3.5121 C.ar      1 <0>        -0.1097
      9 C8         -1.9964    2.0551    1.2403 C.ar      1 <0>         0.4182
     10 C9         -2.8905    1.6922    0.2233 C.ar      1 <0>        -0.1296
     11 C10        -4.1686    2.1676    0.2404 C.ar      1 <0>        -0.0585
     12 C11        -4.5445    3.0277    1.2893 C.ar      1 <0>         0.0879
     13 C12        -3.5927    3.3587    2.2802 C.ar      1 <0>         0.0778
     14 N2         -2.3577    2.8610    2.2183 N.ar      1 <0>        -0.4814
     15 C13        -3.9953    4.2272    3.3279 C.ar      1 <0>         0.5676
     16 N3         -5.2382    4.6831    3.3258 N.ar      1 <0>        -0.5779
     17 C14        -6.1004    4.3443    2.3716 C.ar      1 <0>         0.6908
     18 N4         -7.3862    4.8543    2.4261 N.pl3     1 <0>        -0.7903
     19 N5         -3.1122    4.5882    4.3249 N.pl3     1 <0>        -0.7442
     20 H1         -0.4208   -0.2155    0.1292 H         1 <0>         0.0722
     21 H2          0.8654    0.9991   -0.0675 H         1 <0>         0.0892
     22 H3         -0.7111    1.2361   -0.8591 H         1 <0>         0.0809
     23 H4          1.4735    3.0648    1.2903 H         1 <0>         0.1252
     24 H5          2.9414    3.3818    3.2400 H         1 <0>         0.1310
     25 H6          2.4498    2.2231    5.3549 H         1 <0>         0.1298
     26 H7          0.4839    0.7529    5.5301 H         1 <0>         0.1294
     27 H8         -0.9966    0.4373    3.5898 H         1 <0>         0.1193
     28 H9         -2.5688    1.0339   -0.5701 H         1 <0>         0.1666
     29 H10        -4.8720    1.8952   -0.5325 H         1 <0>         0.1697
     30 H11        -7.6429    5.4463    3.1503 H         1 <0>         0.4421
     31 H12        -8.0305    4.6196    1.7399 H         1 <0>         0.4301
     32 H13        -2.2040    4.2477    4.3150 H         1 <0>         0.4413
     33 H14        -3.3996    5.1826    5.0355 H         1 <0>         0.4309
     34 N6         -5.8280    3.5252    1.3260 N.ar      1 <0>        -0.5938
     35 H15        -6.4819    3.2748    0.6121 H         1 <0>         0.4551
@<TRIPOS>BOND
     1    1    2 1
     2    1   20 1
     3    1   21 1
     4    1   22 1
     5    2    3 1
     6    2    9 1
     7    3    8 ar
     8    3    4 ar
     9    4    5 ar
    10    4   23 1
    11    5    6 ar
    12    5   24 1
    13    6    7 ar
    14    6   25 1
    15    7    8 ar
    16    7   26 1
    17    8   27 1
    18    9   14 ar
    19    9   10 ar
    20   10   11 ar
    21   10   28 1
    22   11   12 ar
    23   11   29 1
    24   12   13 ar
    25   12   34 ar
    26   13   14 ar
    27   13   15 ar
    28   15   16 ar
    29   15   19 1
    30   16   17 ar
    31   17   18 1
    32   17   34 ar
    33   18   30 1
    34   18   31 1
    35   19   32 1
    36   19   33 1
    37   34   35 1
@<TRIPOS>MOLECULE
ZINC03814937
   38    40     0     0     0
SMALL
USER_CHARGES

@<TRIPOS>ATOM
      1 C1         -0.2105    0.8492    0.0278 C.3       1 <0>         0.0965
      2 N1         -0.6984    1.5583    1.2133 N.pl3     1 <0>        -0.5682
      3 C2          0.1424    1.7354    2.3184 C.ar      1 <0>         0.1293
      4 C3          1.2556    2.5597    2.2194 C.ar      1 <0>        -0.0830
      5 C4          2.0819    2.7377    3.3115 C.ar      1 <0>        -0.1965
      6 C5          1.8064    2.0846    4.5038 C.ar      1 <0>         0.1236
      7 C6          0.6973    1.2573    4.6022 C.ar      1 <0>        -0.1401
      8 C7         -0.1330    1.0823    3.5127 C.ar      1 <0>        -0.0705
      9 O1          2.6237    2.2560    5.5771 O.3       1 <0>        -0.3175
     10 C8          3.7474    3.1219    5.4051 C.3       1 <0>         0.0267
     11 C9         -1.9961    2.0551    1.2408 C.ar      1 <0>         0.3828
     12 C10        -2.8907    1.6924    0.2242 C.ar      1 <0>        -0.1550
     13 C11        -4.1687    2.1679    0.2419 C.ar      1 <0>        -0.0460
     14 C12        -4.5442    3.0279    1.2910 C.ar      1 <0>         0.1521
     15 C13        -3.5919    3.3587    2.2816 C.ar      1 <0>        -0.0056
     16 N2         -2.3570    2.8610    2.2191 N.ar      1 <0>        -0.4899
     17 C14        -3.9941    4.2272    3.3295 C.ar      1 <0>         0.5188
     18 N3         -5.2369    4.6831    3.3279 N.ar      1 <0>        -0.6236
     19 C15        -6.0996    4.3446    2.3740 C.ar      1 <0>         0.6029
     20 N4         -5.7787    3.5415    1.3777 N.ar      1 <0>        -0.5982
     21 N5         -7.3853    4.8546    2.4290 N.pl3     1 <0>        -0.8207
     22 N6         -3.1106    4.5881    4.3262 N.pl3     1 <0>        -0.8055
     23 H1         -0.4214   -0.2154    0.1288 H         1 <0>         0.0582
     24 H2          0.8649    0.9991   -0.0682 H         1 <0>         0.0746
     25 H3         -0.7119    1.2364   -0.8591 H         1 <0>         0.0740
     26 H4          1.4730    3.0645    1.2896 H         1 <0>         0.1245
     27 H5          2.9454    3.3819    3.2358 H         1 <0>         0.1301
     28 H6          0.4833    0.7495    5.5311 H         1 <0>         0.1326
     29 H7         -0.9964    0.4382    3.5895 H         1 <0>         0.1257
     30 H8          4.3146    3.1701    6.3347 H         1 <0>         0.1008
     31 H9          4.3852    2.7359    4.6099 H         1 <0>         0.0558
     32 H10         3.3995    4.1202    5.1396 H         1 <0>         0.0558
     33 H11        -2.5695    1.0338   -0.5693 H         1 <0>         0.1444
     34 H12        -4.8723    1.8959   -0.5310 H         1 <0>         0.1508
     35 H13        -7.6417    5.4466    3.1534 H         1 <0>         0.4127
     36 H14        -8.0298    4.6201    1.7431 H         1 <0>         0.4151
     37 H15        -2.2024    4.2474    4.3159 H         1 <0>         0.4229
     38 H16        -3.3977    5.1824    5.0370 H         1 <0>         0.4096
@<TRIPOS>BOND
     1    1    2 1
     2    1   23 1
     3    1   24 1
     4    1   25 1
     5    2    3 1
     6    2   11 1
     7    3    8 ar
     8    3    4 ar
     9    4    5 ar
    10    4   26 1
    11    5    6 ar
    12    5   27 1
    13    6    7 ar
    14    6    9 1
    15    7    8 ar
    16    7   28 1
    17    8   29 1
    18    9   10 1
    19   10   30 1
    20   10   31 1
    21   10   32 1
    22   11   16 ar
    23   11   12 ar
    24   12   13 ar
    25   12   33 1
    26   13   14 ar
    27   13   34 1
    28   14   20 ar
    29   14   15 ar
    30   15   16 ar
    31   15   17 ar
    32   17   18 ar
    33   17   22 1
    34   18   19 ar
    35   19   20 ar
    36   19   21 1
    37   21   35 1
    38   21   36 1
    39   22   37 1
    40   22   38 1
@<TRIPOS>MOLECULE
ZINC03814937
   39    41     0     0     0
SMALL
USER_CHARGES

@<TRIPOS>ATOM
      1 C1         -0.2105    0.8492    0.0278 C.3       1 <0>         0.0825
      2 N1         -0.6984    1.5583    1.2133 N.pl3     1 <0>        -0.5433
      3 C2          0.1424    1.7354    2.3184 C.ar      1 <0>         0.0953
      4 C3          1.2556    2.5597    2.2194 C.ar      1 <0>        -0.0725
      5 C4          2.0819    2.7377    3.3115 C.ar      1 <0>        -0.1964
      6 C5          1.8064    2.0846    4.5038 C.ar      1 <0>         0.1393
      7 C6          0.6973    1.2573    4.6022 C.ar      1 <0>        -0.1415
      8 C7         -0.1330    1.0823    3.5127 C.ar      1 <0>        -0.0672
      9 O1          2.6237    2.2560    5.5771 O.3       1 <0>        -0.3131
     10 C8          3.7474    3.1219    5.4051 C.3       1 <0>         0.0239
     11 C9         -1.9961    2.0551    1.2408 C.ar      1 <0>         0.4182
     12 C10        -2.8907    1.6924    0.2242 C.ar      1 <0>        -0.1302
     13 C11        -4.1687    2.1679    0.2419 C.ar      1 <0>        -0.0586
     14 C12        -4.5442    3.0279    1.2910 C.ar      1 <0>         0.0867
     15 C13        -3.5919    3.3587    2.2816 C.ar      1 <0>         0.0784
     16 N2         -2.3570    2.8610    2.2191 N.ar      1 <0>        -0.4817
     17 C14        -3.9941    4.2272    3.3295 C.ar      1 <0>         0.5675
     18 N3         -5.2369    4.6831    3.3279 N.ar      1 <0>        -0.5782
     19 C15        -6.0996    4.3446    2.3740 C.ar      1 <0>         0.6906
     20 N4         -7.3853    4.8546    2.4290 N.pl3     1 <0>        -0.7906
     21 N5         -3.1106    4.5881    4.3262 N.pl3     1 <0>        -0.7444
     22 H1         -0.4214   -0.2154    0.1288 H         1 <0>         0.0720
     23 H2          0.8649    0.9991   -0.0682 H         1 <0>         0.0883
     24 H3         -0.7119    1.2364   -0.8591 H         1 <0>         0.0802
     25 H4          1.4730    3.0645    1.2896 H         1 <0>         0.1284
     26 H5          2.9454    3.3819    3.2358 H         1 <0>         0.1364
     27 H6          0.4833    0.7495    5.5311 H         1 <0>         0.1382
     28 H7         -0.9964    0.4382    3.5895 H         1 <0>         0.1270
     29 H8          4.3146    3.1701    6.3347 H         1 <0>         0.1063
     30 H9          4.3852    2.7359    4.6099 H         1 <0>         0.0596
     31 H10         3.3995    4.1202    5.1396 H         1 <0>         0.0582
     32 H11        -2.5695    1.0338   -0.5693 H         1 <0>         0.1663
     33 H12        -4.8723    1.8959   -0.5310 H         1 <0>         0.1691
     34 H13        -7.6417    5.4466    3.1534 H         1 <0>         0.4420
     35 H14        -8.0298    4.6201    1.7431 H         1 <0>         0.4300
     36 H15        -2.2024    4.2474    4.3159 H         1 <0>         0.4413
     37 H16        -3.3977    5.1824    5.0370 H         1 <0>         0.4308
     38 N6         -5.8276    3.5255    1.3282 N.ar      1 <0>        -0.5937
     39 H17        -6.4818    3.2752    0.6145 H         1 <0>         0.4549
@<TRIPOS>BOND
     1    1    2 1
     2    1   22 1
     3    1   23 1
     4    1   24 1
     5    2    3 1
     6    2   11 1
     7    3    8 ar
     8    3    4 ar
     9    4    5 ar
    10    4   25 1
    11    5    6 ar
    12    5   26 1
    13    6    7 ar
    14    6    9 1
    15    7    8 ar
    16    7   27 1
    17    8   28 1
    18    9   10 1
    19   10   29 1
    20   10   30 1
    21   10   31 1
    22   11   16 ar
    23   11   12 ar
    24   12   13 ar
    25   12   32 1
    26   13   14 ar
    27   13   33 1
    28   14   15 ar
    29   14   38 ar
    30   15   16 ar
    31   15   17 ar
    32   17   18 ar
    33   17   21 1
    34   18   19 ar
    35   19   20 1
    36   19   38 ar
    37   20   34 1
    38   20   35 1
    39   21   36 1
    40   21   37 1
    41   38   39 1
@<TRIPOS>MOLECULE
ZINC03814938
   42    44     0     0     0
SMALL
USER_CHARGES

@<TRIPOS>ATOM
      1 C1          3.0534    0.7423    1.2463 C.3       1 <0>         0.1092
      2 N1          2.4017    1.1052   -0.0145 N.pl3     1 <0>        -0.5576
      3 C2          2.9974    0.7732   -1.2254 C.ar      1 <0>         0.3982
      4 C3          2.4158    1.2190   -2.4206 C.ar      1 <0>        -0.1470
      5 C4          2.9900    0.9009   -3.6159 C.ar      1 <0>        -0.0468
      6 C5          4.1639    0.1244   -3.6045 C.ar      1 <0>         0.1514
      7 C6          4.6989   -0.2929   -2.3646 C.ar      1 <0>        -0.0039
      8 N2          4.0995    0.0507   -1.2247 N.ar      1 <0>        -0.5016
      9 C7          5.8830   -1.0749   -2.3786 C.ar      1 <0>         0.5167
     10 N3          6.4265   -1.3745   -3.5480 N.ar      1 <0>        -0.6227
     11 C8          5.8874   -0.9598   -4.6908 C.ar      1 <0>         0.6005
     12 N4          4.7887   -0.2308   -4.7353 N.ar      1 <0>        -0.5967
     13 N5          6.5037   -1.3065   -5.8808 N.pl3     1 <0>        -0.8217
     14 N6          6.4547   -1.5122   -1.2012 N.pl3     1 <0>        -0.8074
     15 C9          1.1788    1.7865    0.0004 C.ar      1 <0>         0.1497
     16 C10        -0.0126    1.0758    0.0080 C.ar      1 <0>        -0.1069
     17 C11        -1.2220    1.7533    0.0174 C.ar      1 <0>         0.1010
     18 C12        -1.2412    3.1403    0.0304 C.ar      1 <0>        -0.1603
     19 C13        -0.0551    3.8508    0.0234 C.ar      1 <0>        -0.1635
     20 C14         1.1560    3.1793    0.0081 C.ar      1 <0>         0.0977
     21 O1          2.3227    3.8795    0.0003 O.3       1 <0>        -0.3042
     22 C15         2.2239    5.3051    0.0090 C.3       1 <0>         0.0250
     23 O2         -2.3903    1.0577    0.0191 O.3       1 <0>        -0.3150
     24 C16        -3.5991    1.8198    0.0290 C.3       1 <0>         0.0266
     25 H1          2.7149   -0.2454    1.5592 H         1 <0>         0.0509
     26 H2          4.1342    0.7284    1.1058 H         1 <0>         0.0788
     27 H3          2.7960    1.4740    2.0121 H         1 <0>         0.0637
     28 H4          1.5142    1.8131   -2.3947 H         1 <0>         0.1371
     29 H5          2.5559    1.2361   -4.5463 H         1 <0>         0.1490
     30 H6          6.1269   -1.0140   -6.7254 H         1 <0>         0.4147
     31 H7          7.3124   -1.8420   -5.8701 H         1 <0>         0.4122
     32 H8          7.2644   -2.0459   -1.2241 H         1 <0>         0.4094
     33 H9          6.0468   -1.2860   -0.3507 H         1 <0>         0.4220
     34 H10         0.0021   -0.0041    0.0020 H         1 <0>         0.1420
     35 H11        -2.1844    3.6662    0.0416 H         1 <0>         0.1355
     36 H12        -0.0731    4.9306    0.0294 H         1 <0>         0.1373
     37 H13         3.2239    5.7387    0.0014 H         1 <0>         0.1007
     38 H14         1.6773    5.6368   -0.8738 H         1 <0>         0.0559
     39 H15         1.6951    5.6272    0.9060 H         1 <0>         0.0556
     40 H16        -4.4545    1.1443    0.0293 H         1 <0>         0.1021
     41 H17        -3.6282    2.4434    0.9225 H         1 <0>         0.0560
     42 H18        -3.6366    2.4531   -0.8574 H         1 <0>         0.0563
@<TRIPOS>BOND
     1    1    2 1
     2    1   25 1
     3    1   26 1
     4    1   27 1
     5    2    3 1
     6    2   15 1
     7    3    8 ar
     8    3    4 ar
     9    4    5 ar
    10    4   28 1
    11    5    6 ar
    12    5   29 1
    13    6   12 ar
    14    6    7 ar
    15    7    8 ar
    16    7    9 ar
    17    9   10 ar
    18    9   14 1
    19   10   11 ar
    20   11   12 ar
    21   11   13 1
    22   13   30 1
    23   13   31 1
    24   14   32 1
    25   14   33 1
    26   15   20 ar
    27   15   16 ar
    28   16   17 ar
    29   16   34 1
    30   17   18 ar
    31   17   23 1
    32   18   19 ar
    33   18   35 1
    34   19   20 ar
    35   19   36 1
    36   20   21 1
    37   21   22 1
    38   22   37 1
    39   22   38 1
    40   22   39 1
    41   23   24 1
    42   24   40 1
    43   24   41 1
    44   24   42 1
@<TRIPOS>MOLECULE
ZINC03814938
   43    45     0     0     0
SMALL
USER_CHARGES

@<TRIPOS>ATOM
      1 C1          3.0534    0.7423    1.2463 C.3       1 <0>         0.0954
      2 N1          2.4017    1.1052   -0.0145 N.pl3     1 <0>        -0.5315
      3 C2          2.9974    0.7732   -1.2254 C.ar      1 <0>         0.4308
      4 C3          2.4158    1.2190   -2.4206 C.ar      1 <0>        -0.1192
      5 C4          2.9900    0.9009   -3.6159 C.ar      1 <0>        -0.0619
      6 C5          4.1639    0.1244   -3.6045 C.ar      1 <0>         0.0874
      7 C6          4.6989   -0.2929   -2.3646 C.ar      1 <0>         0.0788
      8 N2          4.0995    0.0507   -1.2247 N.ar      1 <0>        -0.4933
      9 C7          5.8830   -1.0749   -2.3786 C.ar      1 <0>         0.5672
     10 N3          6.4265   -1.3745   -3.5480 N.ar      1 <0>        -0.5777
     11 C8          5.8874   -0.9598   -4.6908 C.ar      1 <0>         0.6894
     12 N4          6.5037   -1.3065   -5.8808 N.pl3     1 <0>        -0.7916
     13 N5          6.4547   -1.5122   -1.2012 N.pl3     1 <0>        -0.7465
     14 C9          1.1788    1.7865    0.0004 C.ar      1 <0>         0.1183
     15 C10        -0.0126    1.0758    0.0080 C.ar      1 <0>        -0.1048
     16 C11        -1.2220    1.7533    0.0174 C.ar      1 <0>         0.1067
     17 C12        -1.2412    3.1403    0.0304 C.ar      1 <0>        -0.1497
     18 C13        -0.0551    3.8508    0.0234 C.ar      1 <0>        -0.1586
     19 C14         1.1560    3.1793    0.0081 C.ar      1 <0>         0.1015
     20 O1          2.3227    3.8795    0.0003 O.3       1 <0>        -0.3099
     21 C15         2.2239    5.3051    0.0090 C.3       1 <0>         0.0233
     22 O2         -2.3903    1.0577    0.0191 O.3       1 <0>        -0.3129
     23 C16        -3.5991    1.8198    0.0290 C.3       1 <0>         0.0242
     24 H1          2.7149   -0.2454    1.5592 H         1 <0>         0.0645
     25 H2          4.1342    0.7284    1.1058 H         1 <0>         0.0833
     26 H3          2.7960    1.4740    2.0121 H         1 <0>         0.0781
     27 H4          1.5142    1.8131   -2.3947 H         1 <0>         0.1593
     28 H5          2.5559    1.2361   -4.5463 H         1 <0>         0.1675
     29 H6          6.1269   -1.0140   -6.7254 H         1 <0>         0.4297
     30 H7          7.3124   -1.8420   -5.8701 H         1 <0>         0.4417
     31 H8          7.2644   -2.0459   -1.2241 H         1 <0>         0.4307
     32 H9          6.0468   -1.2860   -0.3507 H         1 <0>         0.4404
     33 H10         0.0021   -0.0041    0.0020 H         1 <0>         0.1443
     34 H11        -2.1844    3.6662    0.0416 H         1 <0>         0.1414
     35 H12        -0.0731    4.9306    0.0294 H         1 <0>         0.1427
     36 H13         3.2239    5.7387    0.0014 H         1 <0>         0.1042
     37 H14         1.6773    5.6368   -0.8738 H         1 <0>         0.0586
     38 H15         1.6951    5.6272    0.9060 H         1 <0>         0.0606
     39 H16        -4.4545    1.1443    0.0293 H         1 <0>         0.1068
     40 H17        -3.6282    2.4434    0.9225 H         1 <0>         0.0596
     41 H18        -3.6366    2.4531   -0.8574 H         1 <0>         0.0586
     42 N6          4.7626   -0.2103   -4.7985 N.ar      1 <0>        -0.5923
     43 H19         4.3632    0.0982   -5.6618 H         1 <0>         0.4547
@<TRIPOS>BOND
     1    1    2 1
     2    1   24 1
     3    1   25 1
     4    1   26 1
     5    2    3 1
     6    2   14 1
     7    3    8 ar
     8    3    4 ar
     9    4    5 ar
    10    4   27 1
    11    5    6 ar
    12    5   28 1
    13    6    7 ar
    14    6   42 ar
    15    7    8 ar
    16    7    9 ar
    17    9   10 ar
    18    9   13 1
    19   10   11 ar
    20   11   12 1
    21   11   42 ar
    22   12   29 1
    23   12   30 1
    24   13   31 1
    25   13   32 1
    26   14   19 ar
    27   14   15 ar
    28   15   16 ar
    29   15   33 1
    30   16   17 ar
    31   16   22 1
    32   17   18 ar
    33   17   34 1
    34   18   19 ar
    35   18   35 1
    36   19   20 1
    37   20   21 1
    38   21   36 1
    39   21   37 1
    40   21   38 1
    41   22   23 1
    42   23   39 1
    43   23   40 1
    44   23   41 1
    45   42   43 1
@<TRIPOS>MOLECULE
ZINC03814940
   46    48     0     0     0
SMALL
USER_CHARGES

@<TRIPOS>ATOM
      1 C1          0.7469    5.4293   -1.6263 C.3       1 <0>         0.1048
      2 N1          0.1674    5.9887   -0.4026 N.pl3     1 <0>        -0.5729
      3 C2         -0.0309    7.3598   -0.2912 C.ar      1 <0>         0.3907
      4 C3         -0.5856    7.8787    0.8870 C.ar      1 <0>        -0.1517
      5 C4         -0.7808    9.2227    1.0119 C.ar      1 <0>        -0.0442
      6 C5         -0.4217   10.0503   -0.0685 C.ar      1 <0>         0.1542
      7 C6          0.1276    9.4626   -1.2305 C.ar      1 <0>        -0.0065
      8 N2          0.3018    8.1428   -1.2977 N.ar      1 <0>        -0.4993
      9 C7          0.4818   10.3175   -2.3065 C.ar      1 <0>         0.5177
     10 N3          0.2811   11.6189   -2.1695 N.ar      1 <0>        -0.6220
     11 C8         -0.2391   12.1279   -1.0565 C.ar      1 <0>         0.6027
     12 N4         -0.5857   11.3795   -0.0268 N.ar      1 <0>        -0.5964
     13 N5         -0.4237   13.4974   -0.9749 N.pl3     1 <0>        -0.8203
     14 N6          1.0221    9.8045   -3.4680 N.pl3     1 <0>        -0.8069
     15 C9         -0.1867    5.1423    0.6544 C.ar      1 <0>         0.2212
     16 C10         0.7362    4.8527    1.6505 C.ar      1 <0>        -0.2300
     17 C11         0.3863    4.0146    2.6975 C.ar      1 <0>         0.1590
     18 C12        -0.8904    3.4682    2.7529 C.ar      1 <0>         0.0338
     19 C13        -1.8118    3.7540    1.7525 C.ar      1 <0>         0.1591
     20 C14        -1.4605    4.5922    0.7061 C.ar      1 <0>        -0.2292
     21 O1         -3.0596    3.2157    1.8032 O.3       1 <0>        -0.2983
     22 C15        -3.9569    3.5571    0.7448 C.3       1 <0>         0.0234
     23 O2         -1.2367    2.6492    3.7843 O.3       1 <0>        -0.3112
     24 C16        -0.9940    1.2515    3.6124 C.3       1 <0>         0.0349
     25 O3          1.2902    3.7314    3.6733 O.3       1 <0>        -0.2983
     26 C17         2.5814    4.3323    3.5557 C.3       1 <0>         0.0235
     27 H1         -0.0509    5.1868   -2.3283 H         1 <0>         0.0520
     28 H2          1.4181    6.1601   -2.0774 H         1 <0>         0.0819
     29 H3          1.3048    4.5249   -1.3836 H         1 <0>         0.0659
     30 H4         -0.8544    7.2157    1.6960 H         1 <0>         0.1410
     31 H5         -1.2033    9.6402    1.9138 H         1 <0>         0.1511
     32 H6         -0.1751   14.0656   -1.7207 H         1 <0>         0.4129
     33 H7         -0.8016   13.8889   -0.1719 H         1 <0>         0.4155
     34 H8          1.1640    8.8490   -3.5562 H         1 <0>         0.4217
     35 H9          1.2600   10.3994   -4.1963 H         1 <0>         0.4101
     36 H10         1.7271    5.2803    1.6092 H         1 <0>         0.1401
     37 H11        -2.1778    4.8179   -0.0691 H         1 <0>         0.1399
     38 H12        -4.9146    3.0623    0.9065 H         1 <0>         0.1056
     39 H13        -3.5364    3.2325   -0.2070 H         1 <0>         0.0578
     40 H14        -4.1043    4.6370    0.7275 H         1 <0>         0.0594
     41 H15        -1.3145    0.7146    4.5052 H         1 <0>         0.0943
     42 H16        -1.5534    0.8890    2.7500 H         1 <0>         0.0451
     43 H17         0.0710    1.0848    3.4510 H         1 <0>         0.0452
     44 H18         3.0472    4.0130    2.6233 H         1 <0>         0.0577
     45 H19         2.4787    5.4174    3.5576 H         1 <0>         0.0594
     46 H20         3.2032    4.0247    4.3964 H         1 <0>         0.1056
@<TRIPOS>BOND
     1    1    2 1
     2    1   27 1
     3    1   28 1
     4    1   29 1
     5    2    3 1
     6    2   15 1
     7    3    8 ar
     8    3    4 ar
     9    4    5 ar
    10    4   30 1
    11    5    6 ar
    12    5   31 1
    13    6   12 ar
    14    6    7 ar
    15    7    8 ar
    16    7    9 ar
    17    9   10 ar
    18    9   14 1
    19   10   11 ar
    20   11   12 ar
    21   11   13 1
    22   13   32 1
    23   13   33 1
    24   14   34 1
    25   14   35 1
    26   15   20 ar
    27   15   16 ar
    28   16   17 ar
    29   16   36 1
    30   17   18 ar
    31   17   25 1
    32   18   19 ar
    33   18   23 1
    34   19   20 ar
    35   19   21 1
    36   20   37 1
    37   21   22 1
    38   22   38 1
    39   22   39 1
    40   22   40 1
    41   23   24 1
    42   24   41 1
    43   24   42 1
    44   24   43 1
    45   25   26 1
    46   26   44 1
    47   26   45 1
    48   26   46 1
@<TRIPOS>MOLECULE
ZINC03814940
   47    49     0     0     0
SMALL
USER_CHARGES

@<TRIPOS>ATOM
      1 C1          0.7469    5.4293   -1.6263 C.3       1 <0>         0.0911
      2 N1          0.1674    5.9887   -0.4026 N.pl3     1 <0>        -0.5474
      3 C2         -0.0309    7.3598   -0.2912 C.ar      1 <0>         0.4248
      4 C3         -0.5856    7.8787    0.8870 C.ar      1 <0>        -0.1235
      5 C4         -0.7808    9.2227    1.0119 C.ar      1 <0>        -0.0596
      6 C5         -0.4217   10.0503   -0.0685 C.ar      1 <0>         0.0913
      7 C6          0.1276    9.4626   -1.2305 C.ar      1 <0>         0.0771
      8 N2          0.3018    8.1428   -1.2977 N.ar      1 <0>        -0.4917
      9 C7          0.4818   10.3175   -2.3065 C.ar      1 <0>         0.5674
     10 N3          0.2811   11.6189   -2.1695 N.ar      1 <0>        -0.5769
     11 C8         -0.2391   12.1279   -1.0565 C.ar      1 <0>         0.6904
     12 N4         -0.4237   13.4974   -0.9749 N.pl3     1 <0>        -0.7899
     13 N5          1.0221    9.8045   -3.4680 N.pl3     1 <0>        -0.7461
     14 C9         -0.1867    5.1423    0.6544 C.ar      1 <0>         0.1897
     15 C10         0.7362    4.8527    1.6505 C.ar      1 <0>        -0.2274
     16 C11         0.3863    4.0146    2.6975 C.ar      1 <0>         0.1623
     17 C12        -0.8904    3.4682    2.7529 C.ar      1 <0>         0.0454
     18 C13        -1.8118    3.7540    1.7525 C.ar      1 <0>         0.1624
     19 C14        -1.4605    4.5922    0.7061 C.ar      1 <0>        -0.2264
     20 O1         -3.0596    3.2157    1.8032 O.3       1 <0>        -0.2937
     21 C15        -3.9569    3.5571    0.7448 C.3       1 <0>         0.0227
     22 O2         -1.2367    2.6492    3.7843 O.3       1 <0>        -0.3111
     23 C16        -0.9940    1.2515    3.6124 C.3       1 <0>         0.0344
     24 O3          1.2902    3.7314    3.6733 O.3       1 <0>        -0.2937
     25 C17         2.5814    4.3323    3.5557 C.3       1 <0>         0.0227
     26 H1         -0.0509    5.1868   -2.3283 H         1 <0>         0.0656
     27 H2          1.4181    6.1601   -2.0774 H         1 <0>         0.0861
     28 H3          1.3048    4.5249   -1.3836 H         1 <0>         0.0802
     29 H4         -0.8544    7.2157    1.6960 H         1 <0>         0.1634
     30 H5         -1.2033    9.6402    1.9138 H         1 <0>         0.1697
     31 H6         -0.1751   14.0656   -1.7207 H         1 <0>         0.4422
     32 H7         -0.8016   13.8889   -0.1719 H         1 <0>         0.4304
     33 H8          1.1640    8.8490   -3.5562 H         1 <0>         0.4402
     34 H9          1.2600   10.3994   -4.1963 H         1 <0>         0.4313
     35 H10         1.7271    5.2803    1.6092 H         1 <0>         0.1420
     36 H11        -2.1778    4.8179   -0.0691 H         1 <0>         0.1418
     37 H12        -4.9146    3.0623    0.9065 H         1 <0>         0.1100
     38 H13        -3.5364    3.2325   -0.2070 H         1 <0>         0.0595
     39 H14        -4.1043    4.6370    0.7275 H         1 <0>         0.0580
     40 H15        -1.3145    0.7146    4.5052 H         1 <0>         0.0993
     41 H16        -1.5534    0.8890    2.7500 H         1 <0>         0.0478
     42 H17         0.0710    1.0848    3.4510 H         1 <0>         0.0478
     43 H18         3.0472    4.0130    2.6233 H         1 <0>         0.0594
     44 H19         2.4787    5.4174    3.5576 H         1 <0>         0.0580
     45 H20         3.2032    4.0247    4.3964 H         1 <0>         0.1100
     46 N6         -0.6133   11.4102    0.0314 N.ar      1 <0>        -0.5929
     47 H21        -1.0039   11.8003    0.8652 H         1 <0>         0.4556
@<TRIPOS>BOND
     1    1    2 1
     2    1   26 1
     3    1   27 1
     4    1   28 1
     5    2    3 1
     6    2   14 1
     7    3    8 ar
     8    3    4 ar
     9    4    5 ar
    10    4   29 1
    11    5    6 ar
    12    5   30 1
    13    6    7 ar
    14    6   46 ar
    15    7    8 ar
    16    7    9 ar
    17    9   10 ar
    18    9   13 1
    19   10   11 ar
    20   11   12 1
    21   11   46 ar
    22   12   31 1
    23   12   32 1
    24   13   33 1
    25   13   34 1
    26   14   19 ar
    27   14   15 ar
    28   15   16 ar
    29   15   35 1
    30   16   17 ar
    31   16   24 1
    32   17   18 ar
    33   17   22 1
    34   18   19 ar
    35   18   20 1
    36   19   36 1
    37   20   21 1
    38   21   37 1
    39   21   38 1
    40   21   39 1
    41   22   23 1
    42   23   40 1
    43   23   41 1
    44   23   42 1
    45   24   25 1
    46   25   43 1
    47   25   44 1
    48   25   45 1
    49   46   47 1
@<TRIPOS>MOLECULE
ZINC03814941
   34    36     0     0     0
SMALL
USER_CHARGES

@<TRIPOS>ATOM
      1 C1          1.5127    4.7332    4.5914 C.3       1 <0>         0.0249
      2 O1          0.3441    3.9926    4.2336 O.3       1 <0>        -0.2997
      3 C2          0.5139    2.6759    3.9386 C.ar      1 <0>         0.1840
      4 C3          1.7768    2.1097    3.9924 C.ar      1 <0>        -0.2204
      5 C4          1.9479    0.7704    3.6931 C.ar      1 <0>        -0.0502
      6 C5          0.8607   -0.0073    3.3391 C.ar      1 <0>        -0.1674
      7 C6         -0.4027    0.5496    3.2829 C.ar      1 <0>        -0.0234
      8 C7         -0.5831    1.8917    3.5870 C.ar      1 <0>        -0.1615
      9 S1         -2.1937    2.6034    3.5229 S.3       1 <0>         0.0559
     10 C8         -2.6612    2.7532    5.2151 C.ar      1 <0>         0.0960
     11 C9         -3.8548    3.4129    5.5410 C.ar      1 <0>        -0.0932
     12 C10        -4.2290    3.5356    6.8464 C.ar      1 <0>        -0.0685
     13 C11        -3.3893    2.9865    7.8340 C.ar      1 <0>         0.1882
     14 C12        -2.1997    2.3339    7.4383 C.ar      1 <0>        -0.0398
     15 N1         -1.8838    2.2377    6.1469 N.ar      1 <0>        -0.4291
     16 C13        -1.3693    1.7889    8.4519 C.ar      1 <0>         0.5288
     17 N2         -1.7482    1.9178    9.7138 N.ar      1 <0>        -0.6273
     18 C14        -2.8772    2.5405   10.0396 C.ar      1 <0>         0.6137
     19 N3         -3.6854    3.0651    9.1383 N.ar      1 <0>        -0.6026
     20 N4         -3.2182    2.6419   11.3774 N.pl3     1 <0>        -0.8164
     21 N5         -0.1950    1.1395    8.1298 N.pl3     1 <0>        -0.8037
     22 H1          2.2258    4.7072    3.7675 H         1 <0>         0.0588
     23 H2          1.9660    4.2904    5.4783 H         1 <0>         0.0551
     24 H3          1.2376    5.7668    4.8014 H         1 <0>         0.1025
     25 H4          2.6281    2.7141    4.2686 H         1 <0>         0.1319
     26 H5          2.9333    0.3307    3.7364 H         1 <0>         0.1293
     27 H6          0.9994   -1.0528    3.1062 H         1 <0>         0.1304
     28 H7         -1.2501   -0.0603    3.0065 H         1 <0>         0.1375
     29 H8         -4.4767    3.8235    4.7593 H         1 <0>         0.1487
     30 H9         -5.1451    4.0402    7.1155 H         1 <0>         0.1537
     31 H10        -4.0376    3.0919   11.6363 H         1 <0>         0.4168
     32 H11        -2.6378    2.2630   12.0559 H         1 <0>         0.4140
     33 H12         0.3638    0.7710    8.8318 H         1 <0>         0.4109
     34 H13         0.0717    1.0516    7.2013 H         1 <0>         0.4221
@<TRIPOS>BOND
     1    1    2 1
     2    1   22 1
     3    1   23 1
     4    1   24 1
     5    2    3 1
     6    3    8 ar
     7    3    4 ar
     8    4    5 ar
     9    4   25 1
    10    5    6 ar
    11    5   26 1
    12    6    7 ar
    13    6   27 1
    14    7    8 ar
    15    7   28 1
    16    8    9 1
    17    9   10 1
    18   10   15 ar
    19   10   11 ar
    20   11   12 ar
    21   11   29 1
    22   12   13 ar
    23   12   30 1
    24   13   19 ar
    25   13   14 ar
    26   14   15 ar
    27   14   16 ar
    28   16   17 ar
    29   16   21 1
    30   17   18 ar
    31   18   19 ar
    32   18   20 1
    33   20   31 1
    34   20   32 1
    35   21   33 1
    36   21   34 1
@<TRIPOS>MOLECULE
ZINC03814941
   35    37     0     0     0
SMALL
USER_CHARGES

@<TRIPOS>ATOM
      1 C1          1.5127    4.7332    4.5914 C.3       1 <0>         0.0228
      2 O1          0.3441    3.9926    4.2336 O.3       1 <0>        -0.3055
      3 C2          0.5139    2.6759    3.9386 C.ar      1 <0>         0.1858
      4 C3          1.7768    2.1097    3.9924 C.ar      1 <0>        -0.2198
      5 C4          1.9479    0.7704    3.6931 C.ar      1 <0>        -0.0389
      6 C5          0.8607   -0.0073    3.3391 C.ar      1 <0>        -0.1640
      7 C6         -0.4027    0.5496    3.2829 C.ar      1 <0>        -0.0185
      8 C7         -0.5831    1.8917    3.5870 C.ar      1 <0>        -0.1895
      9 S1         -2.1937    2.6034    3.5229 S.3       1 <0>         0.1223
     10 C8         -2.6612    2.7532    5.2151 C.ar      1 <0>         0.1192
     11 C9         -3.8548    3.4129    5.5410 C.ar      1 <0>        -0.0613
     12 C10        -4.2290    3.5356    6.8464 C.ar      1 <0>        -0.0816
     13 C11        -3.3893    2.9865    7.8340 C.ar      1 <0>         0.1303
     14 C12        -2.1997    2.3339    7.4383 C.ar      1 <0>         0.0395
     15 N1         -1.8838    2.2377    6.1469 N.ar      1 <0>        -0.4249
     16 C13        -1.3693    1.7889    8.4519 C.ar      1 <0>         0.5727
     17 N2         -1.7482    1.9178    9.7138 N.ar      1 <0>        -0.5790
     18 C14        -2.8772    2.5405   10.0396 C.ar      1 <0>         0.6947
     19 N3         -3.2182    2.6419   11.3774 N.pl3     1 <0>        -0.7870
     20 N4         -0.1950    1.1395    8.1298 N.pl3     1 <0>        -0.7447
     21 H1          2.2258    4.7072    3.7675 H         1 <0>         0.0645
     22 H2          1.9660    4.2904    5.4783 H         1 <0>         0.0566
     23 H3          1.2376    5.7668    4.8014 H         1 <0>         0.1061
     24 H4          2.6281    2.7141    4.2686 H         1 <0>         0.1371
     25 H5          2.9333    0.3307    3.7364 H         1 <0>         0.1357
     26 H6          0.9994   -1.0528    3.1062 H         1 <0>         0.1365
     27 H7         -1.2501   -0.0603    3.0065 H         1 <0>         0.1413
     28 H8         -4.4767    3.8235    4.7593 H         1 <0>         0.1719
     29 H9         -5.1451    4.0402    7.1155 H         1 <0>         0.1729
     30 H10        -4.0376    3.0919   11.6363 H         1 <0>         0.4312
     31 H11        -2.6378    2.2630   12.0559 H         1 <0>         0.4429
     32 H12         0.3638    0.7710    8.8318 H         1 <0>         0.4316
     33 H13         0.0717    1.0516    7.2013 H         1 <0>         0.4399
     34 N5         -3.7452    3.0978    9.1594 N.ar      1 <0>        -0.5978
     35 H14        -4.5927    3.5647    9.4120 H         1 <0>         0.4570
@<TRIPOS>BOND
     1    1    2 1
     2    1   21 1
     3    1   22 1
     4    1   23 1
     5    2    3 1
     6    3    8 ar
     7    3    4 ar
     8    4    5 ar
     9    4   24 1
    10    5    6 ar
    11    5   25 1
    12    6    7 ar
    13    6   26 1
    14    7    8 ar
    15    7   27 1
    16    8    9 1
    17    9   10 1
    18   10   15 ar
    19   10   11 ar
    20   11   12 ar
    21   11   28 1
    22   12   13 ar
    23   12   29 1
    24   13   14 ar
    25   13   34 ar
    26   14   15 ar
    27   14   16 ar
    28   16   17 ar
    29   16   20 1
    30   17   18 ar
    31   18   19 1
    32   18   34 ar
    33   19   30 1
    34   19   31 1
    35   20   32 1
    36   20   33 1
    37   34   35 1
@<TRIPOS>MOLECULE
ZINC03814942
   34    36     0     0     0
SMALL
USER_CHARGES

@<TRIPOS>ATOM
      1 C1          4.1664   -0.9614   -1.1522 C.3       1 <0>         0.0244
      2 O1          3.5710   -0.6573    0.1108 O.3       1 <0>        -0.3140
      3 C2          2.3887    0.0143    0.0903 C.ar      1 <0>         0.1581
      4 C3          1.7565    0.3413    1.2810 C.ar      1 <0>        -0.1624
      5 C4          0.5560    1.0232    1.2612 C.ar      1 <0>        -0.0185
      6 C5         -0.0187    1.3818    0.0484 C.ar      1 <0>        -0.1647
      7 C6          0.6152    1.0540   -1.1434 C.ar      1 <0>        -0.0156
      8 C7          1.8159    0.3724   -1.1214 C.ar      1 <0>        -0.2198
      9 S1         -1.5542    2.2457    0.0216 S.3       1 <0>         0.0402
     10 C8         -1.0933    3.9392    0.1777 C.ar      1 <0>         0.0884
     11 C9         -2.0934    4.9116    0.3204 C.ar      1 <0>        -0.0929
     12 C10        -1.7507    6.2253    0.4466 C.ar      1 <0>        -0.0683
     13 C11        -0.3842    6.5624    0.4187 C.ar      1 <0>         0.1902
     14 C12         0.5737    5.5343    0.2667 C.ar      1 <0>        -0.0416
     15 N1          0.1840    4.2648    0.1522 N.ar      1 <0>        -0.4289
     16 C13         1.9449    5.8989    0.2414 C.ar      1 <0>         0.5299
     17 N2          2.2586    7.1795    0.3610 N.ar      1 <0>        -0.6273
     18 C14         1.3225    8.1135    0.5022 C.ar      1 <0>         0.6153
     19 N3          0.0343    7.8301    0.5321 N.ar      1 <0>        -0.6031
     20 N4          1.7154    9.4354    0.6230 N.pl3     1 <0>        -0.8156
     21 N5          2.9279    4.9415    0.0951 N.pl3     1 <0>        -0.8025
     22 H1          3.4863   -1.5834   -1.7341 H         1 <0>         0.0588
     23 H2          4.3647   -0.0359   -1.6927 H         1 <0>         0.0579
     24 H3          5.1023   -1.4969   -0.9931 H         1 <0>         0.1034
     25 H4          2.2032    0.0621    2.2238 H         1 <0>         0.1364
     26 H5          0.0641    1.2780    2.1883 H         1 <0>         0.1361
     27 H6          0.1693    1.3323   -2.0868 H         1 <0>         0.1330
     28 H7          2.3090    0.1177   -2.0479 H         1 <0>         0.1338
     29 H8         -3.1332    4.6201    0.3339 H         1 <0>         0.1494
     30 H9         -2.5076    6.9872    0.5610 H         1 <0>         0.1542
     31 H10         2.6576    9.6651    0.6037 H         1 <0>         0.4144
     32 H11         1.0484   10.1320    0.7268 H         1 <0>         0.4171
     33 H12         2.6851    4.0064    0.0081 H         1 <0>         0.4226
     34 H13         3.8617    5.2035    0.0793 H         1 <0>         0.4114
@<TRIPOS>BOND
     1    1    2 1
     2    1   22 1
     3    1   23 1
     4    1   24 1
     5    2    3 1
     6    3    8 ar
     7    3    4 ar
     8    4    5 ar
     9    4   25 1
    10    5    6 ar
    11    5   26 1
    12    6    7 ar
    13    6    9 1
    14    7    8 ar
    15    7   27 1
    16    8   28 1
    17    9   10 1
    18   10   15 ar
    19   10   11 ar
    20   11   12 ar
    21   11   29 1
    22   12   13 ar
    23   12   30 1
    24   13   19 ar
    25   13   14 ar
    26   14   15 ar
    27   14   16 ar
    28   16   17 ar
    29   16   21 1
    30   17   18 ar
    31   18   19 ar
    32   18   20 1
    33   20   31 1
    34   20   32 1
    35   21   33 1
    36   21   34 1
@<TRIPOS>MOLECULE
ZINC03814942
   35    37     0     0     0
SMALL
USER_CHARGES

@<TRIPOS>ATOM
      1 C1          4.1664   -0.9614   -1.1522 C.3       1 <0>         0.0219
      2 O1          3.5710   -0.6573    0.1108 O.3       1 <0>        -0.3093
      3 C2          2.3887    0.0143    0.0903 C.ar      1 <0>         0.1713
      4 C3          1.7565    0.3413    1.2810 C.ar      1 <0>        -0.1628
      5 C4          0.5560    1.0232    1.2612 C.ar      1 <0>        -0.0147
      6 C5         -0.0187    1.3818    0.0484 C.ar      1 <0>        -0.1954
      7 C6          0.6152    1.0540   -1.1434 C.ar      1 <0>        -0.0105
      8 C7          1.8159    0.3724   -1.1214 C.ar      1 <0>        -0.2209
      9 S1         -1.5542    2.2457    0.0216 S.3       1 <0>         0.1057
     10 C8         -1.0933    3.9392    0.1777 C.ar      1 <0>         0.1125
     11 C9         -2.0934    4.9116    0.3204 C.ar      1 <0>        -0.0606
     12 C10        -1.7507    6.2253    0.4466 C.ar      1 <0>        -0.0818
     13 C11        -0.3842    6.5624    0.4187 C.ar      1 <0>         0.1333
     14 C12         0.5737    5.5343    0.2667 C.ar      1 <0>         0.0383
     15 N1          0.1840    4.2648    0.1522 N.ar      1 <0>        -0.4247
     16 C13         1.9449    5.8989    0.2414 C.ar      1 <0>         0.5728
     17 N2          2.2586    7.1795    0.3610 N.ar      1 <0>        -0.5789
     18 C14         1.3225    8.1135    0.5022 C.ar      1 <0>         0.6954
     19 N3          1.7154    9.4354    0.6230 N.pl3     1 <0>        -0.7863
     20 N4          2.9279    4.9415    0.0951 N.pl3     1 <0>        -0.7433
     21 H1          3.4863   -1.5834   -1.7341 H         1 <0>         0.0626
     22 H2          4.3647   -0.0359   -1.6927 H         1 <0>         0.0594
     23 H3          5.1023   -1.4969   -0.9931 H         1 <0>         0.1086
     24 H4          2.2032    0.0621    2.2238 H         1 <0>         0.1417
     25 H5          0.0641    1.2780    2.1883 H         1 <0>         0.1387
     26 H6          0.1693    1.3323   -2.0868 H         1 <0>         0.1360
     27 H7          2.3090    0.1177   -2.0479 H         1 <0>         0.1392
     28 H8         -3.1332    4.6201    0.3339 H         1 <0>         0.1726
     29 H9         -2.5076    6.9872    0.5610 H         1 <0>         0.1734
     30 H10         2.6576    9.6651    0.6037 H         1 <0>         0.4432
     31 H11         1.0484   10.1320    0.7268 H         1 <0>         0.4314
     32 H12         2.6851    4.0064    0.0081 H         1 <0>         0.4404
     33 H13         3.8617    5.2035    0.0793 H         1 <0>         0.4320
     34 N5         -0.0132    7.8828    0.5398 N.ar      1 <0>        -0.5985
     35 H14        -0.7115    8.5906    0.6462 H         1 <0>         0.4573
@<TRIPOS>BOND
     1    1    2 1
     2    1   21 1
     3    1   22 1
     4    1   23 1
     5    2    3 1
     6    3    8 ar
     7    3    4 ar
     8    4    5 ar
     9    4   24 1
    10    5    6 ar
    11    5   25 1
    12    6    7 ar
    13    6    9 1
    14    7    8 ar
    15    7   26 1
    16    8   27 1
    17    9   10 1
    18   10   15 ar
    19   10   11 ar
    20   11   12 ar
    21   11   28 1
    22   12   13 ar
    23   12   29 1
    24   13   14 ar
    25   13   34 ar
    26   14   15 ar
    27   14   16 ar
    28   16   17 ar
    29   16   20 1
    30   17   18 ar
    31   18   19 1
    32   18   34 ar
    33   19   30 1
    34   19   31 1
    35   20   32 1
    36   20   33 1
    37   34   35 1
@<TRIPOS>MOLECULE
ZINC03814943
   38    40     0     0     0
SMALL
USER_CHARGES

@<TRIPOS>ATOM
      1 C1         -1.7500    0.5853    0.6597 C.3       1 <0>         0.0234
      2 O1         -0.7585    1.4646    1.1943 O.3       1 <0>        -0.3025
      3 C2         -0.2058    1.1192    2.3888 C.ar      1 <0>         0.1310
      4 C3         -0.6105   -0.0406    3.0298 C.ar      1 <0>        -0.1847
      5 C4         -0.0500   -0.3932    4.2426 C.ar      1 <0>        -0.0508
      6 C5          0.9205    0.4145    4.8218 C.ar      1 <0>        -0.1260
      7 C6          1.3282    1.5776    4.1818 C.ar      1 <0>        -0.1119
      8 C7          0.7700    1.9279    2.9637 C.ar      1 <0>         0.0894
      9 O2          1.1716    3.0634    2.3323 O.3       1 <0>        -0.3041
     10 C8          2.1771    3.8451    2.9804 C.3       1 <0>         0.0242
     11 S1          1.6337   -0.0364    6.3686 S.3       1 <0>         0.0431
     12 C9          2.9500   -1.1227    5.9307 C.ar      1 <0>         0.0881
     13 C10         3.6630   -1.7795    6.9438 C.ar      1 <0>        -0.0925
     14 C11         4.6837   -2.6232    6.6190 C.ar      1 <0>        -0.0680
     15 C12         4.9882   -2.8062    5.2568 C.ar      1 <0>         0.1910
     16 C13         4.2307   -2.1141    4.2849 C.ar      1 <0>        -0.0418
     17 N1          3.2394   -1.3044    4.6573 N.ar      1 <0>        -0.4282
     18 C14         4.5562   -2.3151    2.9183 C.ar      1 <0>         0.5301
     19 N2          5.5499   -3.1382    2.6219 N.ar      1 <0>        -0.6272
     20 C15         6.2359   -3.7686    3.5708 C.ar      1 <0>         0.6158
     21 N3          5.9755   -3.6181    4.8554 N.ar      1 <0>        -0.6033
     22 N4          7.2637   -4.6168    3.1958 N.pl3     1 <0>        -0.8154
     23 N5          3.8539   -1.6678    1.9222 N.pl3     1 <0>        -0.8021
     24 H1         -2.5839    0.5108    1.3577 H         1 <0>         0.0581
     25 H2         -1.3151   -0.4024    0.5065 H         1 <0>         0.0570
     26 H3         -2.1073    0.9767   -0.2928 H         1 <0>         0.1037
     27 H4         -1.3647   -0.6700    2.5808 H         1 <0>         0.1413
     28 H5         -0.3671   -1.2974    4.7409 H         1 <0>         0.1345
     29 H6          2.0827    2.2060    4.6314 H         1 <0>         0.1427
     30 H7          2.4049    4.7204    2.3722 H         1 <0>         0.1031
     31 H8          1.8147    4.1656    3.9571 H         1 <0>         0.0570
     32 H9          3.0786    3.2454    3.1061 H         1 <0>         0.0551
     33 H10         3.4043   -1.6170    7.9797 H         1 <0>         0.1495
     34 H11         5.2433   -3.1376    7.3863 H         1 <0>         0.1545
     35 H12         7.4711   -4.7417    2.2565 H         1 <0>         0.4145
     36 H13         7.7763   -5.0863    3.8723 H         1 <0>         0.4171
     37 H14         3.1281   -1.0670    2.1524 H         1 <0>         0.4226
     38 H15         4.0862   -1.8137    0.9917 H         1 <0>         0.4117
@<TRIPOS>BOND
     1    1    2 1
     2    1   24 1
     3    1   25 1
     4    1   26 1
     5    2    3 1
     6    3    8 ar
     7    3    4 ar
     8    4    5 ar
     9    4   27 1
    10    5    6 ar
    11    5   28 1
    12    6    7 ar
    13    6   11 1
    14    7    8 ar
    15    7   29 1
    16    8    9 1
    17    9   10 1
    18   10   30 1
    19   10   31 1
    20   10   32 1
    21   11   12 1
    22   12   17 ar
    23   12   13 ar
    24   13   14 ar
    25   13   33 1
    26   14   15 ar
    27   14   34 1
    28   15   21 ar
    29   15   16 ar
    30   16   17 ar
    31   16   18 ar
    32   18   19 ar
    33   18   23 1
    34   19   20 ar
    35   20   21 ar
    36   20   22 1
    37   22   35 1
    38   22   36 1
    39   23   37 1
    40   23   38 1
@<TRIPOS>MOLECULE
ZINC03814943
   39    41     0     0     0
SMALL
USER_CHARGES

@<TRIPOS>ATOM
      1 C1         -1.7500    0.5853    0.6597 C.3       1 <0>         0.0211
      2 O1         -0.7585    1.4646    1.1943 O.3       1 <0>        -0.2980
      3 C2         -0.2058    1.1192    2.3888 C.ar      1 <0>         0.1437
      4 C3         -0.6105   -0.0406    3.0298 C.ar      1 <0>        -0.1868
      5 C4         -0.0500   -0.3932    4.2426 C.ar      1 <0>        -0.0458
      6 C5          0.9205    0.4145    4.8218 C.ar      1 <0>        -0.1561
      7 C6          1.3282    1.5776    4.1818 C.ar      1 <0>        -0.1117
      8 C7          0.7700    1.9279    2.9637 C.ar      1 <0>         0.0914
      9 O2          1.1716    3.0634    2.3323 O.3       1 <0>        -0.3003
     10 C8          2.1771    3.8451    2.9804 C.3       1 <0>         0.0232
     11 S1          1.6337   -0.0364    6.3686 S.3       1 <0>         0.1083
     12 C9          2.9500   -1.1227    5.9307 C.ar      1 <0>         0.1126
     13 C10         3.6630   -1.7795    6.9438 C.ar      1 <0>        -0.0603
     14 C11         4.6837   -2.6232    6.6190 C.ar      1 <0>        -0.0815
     15 C12         4.9882   -2.8062    5.2568 C.ar      1 <0>         0.1341
     16 C13         4.2307   -2.1141    4.2849 C.ar      1 <0>         0.0382
     17 N1          3.2394   -1.3044    4.6573 N.ar      1 <0>        -0.4241
     18 C14         4.5562   -2.3151    2.9183 C.ar      1 <0>         0.5727
     19 N2          5.5499   -3.1382    2.6219 N.ar      1 <0>        -0.5786
     20 C15         6.2359   -3.7686    3.5708 C.ar      1 <0>         0.6955
     21 N3          7.2637   -4.6168    3.1958 N.pl3     1 <0>        -0.7861
     22 N4          3.8539   -1.6678    1.9222 N.pl3     1 <0>        -0.7428
     23 H1         -2.5839    0.5108    1.3577 H         1 <0>         0.0618
     24 H2         -1.3151   -0.4024    0.5065 H         1 <0>         0.0584
     25 H3         -2.1073    0.9767   -0.2928 H         1 <0>         0.1089
     26 H4         -1.3647   -0.6700    2.5808 H         1 <0>         0.1463
     27 H5         -0.3671   -1.2974    4.7409 H         1 <0>         0.1371
     28 H6          2.0827    2.2060    4.6314 H         1 <0>         0.1452
     29 H7          2.4049    4.7204    2.3722 H         1 <0>         0.1077
     30 H8          1.8147    4.1656    3.9571 H         1 <0>         0.0595
     31 H9          3.0786    3.2454    3.1061 H         1 <0>         0.0537
     32 H10         3.4043   -1.6170    7.9797 H         1 <0>         0.1728
     33 H11         5.2433   -3.1376    7.3863 H         1 <0>         0.1737
     34 H12         7.4711   -4.7417    2.2565 H         1 <0>         0.4433
     35 H13         7.7763   -5.0863    3.8723 H         1 <0>         0.4314
     36 H14         3.1281   -1.0670    2.1524 H         1 <0>         0.4404
     37 H15         4.0862   -1.8137    0.9917 H         1 <0>         0.4323
     38 N5          6.0144   -3.6535    4.9036 N.ar      1 <0>        -0.5987
     39 H16         6.5347   -4.1310    5.6116 H         1 <0>         0.4574
@<TRIPOS>BOND
     1    1    2 1
     2    1   23 1
     3    1   24 1
     4    1   25 1
     5    2    3 1
     6    3    8 ar
     7    3    4 ar
     8    4    5 ar
     9    4   26 1
    10    5    6 ar
    11    5   27 1
    12    6    7 ar
    13    6   11 1
    14    7    8 ar
    15    7   28 1
    16    8    9 1
    17    9   10 1
    18   10   29 1
    19   10   30 1
    20   10   31 1
    21   11   12 1
    22   12   17 ar
    23   12   13 ar
    24   13   14 ar
    25   13   32 1
    26   14   15 ar
    27   14   33 1
    28   15   16 ar
    29   15   38 ar
    30   16   17 ar
    31   16   18 ar
    32   18   19 ar
    33   18   22 1
    34   19   20 ar
    35   20   21 1
    36   20   38 ar
    37   21   34 1
    38   21   35 1
    39   22   36 1
    40   22   37 1
    41   38   39 1
@<TRIPOS>MOLECULE
ZINC03814944
   40    42     0     0     0
SMALL
USER_CHARGES

@<TRIPOS>ATOM
      1 C1         -2.3605    5.2398    0.0534 C.3       1 <0>         0.0202
      2 O1         -2.4214    3.8121    0.0463 O.3       1 <0>        -0.2984
      3 C2         -1.2371    3.1437    0.0313 C.ar      1 <0>         0.1606
      4 C3         -0.0431    3.8467    0.0237 C.ar      1 <0>        -0.1960
      5 C4          1.1599    3.1657    0.0080 C.ar      1 <0>        -0.0112
      6 C5          1.1751    1.7833    0.0004 C.ar      1 <0>        -0.6595
      7 C6         -0.0126    1.0758    0.0080 C.ar      1 <0>        -0.0739
      8 C7         -1.2218    1.7523    0.0174 C.ar      1 <0>         0.0820
      9 O2         -2.3911    1.0578    0.0191 O.3       1 <0>        -0.3028
     10 C8         -2.2988   -0.3681    0.0109 C.3       1 <0>         0.0191
     11 S1          2.7117    0.9212   -0.0195 S.o2      1 <0>         2.6006
     12 O3          3.6806    1.8054    0.5269 O.2       1 <0>        -0.9251
     13 O4          2.4619   -0.3668    0.5264 O.2       1 <0>        -0.9185
     14 C9          3.1495    0.6759   -1.7085 C.ar      1 <0>        -0.4562
     15 C10         3.9135    1.6423   -2.3593 C.ar      1 <0>        -0.0517
     16 C11         4.2632    1.4689   -3.6694 C.ar      1 <0>        -0.0939
     17 C12         3.8300    0.3010   -4.3199 C.ar      1 <0>         0.2370
     18 C13         3.0567   -0.6374   -3.5957 C.ar      1 <0>        -0.0663
     19 N1          2.7524   -0.4151   -2.3206 N.ar      1 <0>        -0.3232
     20 C14         2.6200   -1.8441   -4.2997 C.ar      1 <0>         0.5476
     21 N2          2.9763   -1.9808   -5.5690 N.ar      1 <0>        -0.6307
     22 C15         3.7054   -1.0568   -6.1869 C.ar      1 <0>         0.6364
     23 N3          4.1248    0.0466   -5.6009 N.ar      1 <0>        -0.6156
     24 N4          4.0413   -1.2642   -7.5127 N.pl3     1 <0>        -0.8065
     25 N5          1.8634   -2.8057   -3.6642 N.pl3     1 <0>        -0.7893
     26 H1         -1.8231    5.5761    0.9401 H         1 <0>         0.0616
     27 H2         -1.8402    5.5857   -0.8397 H         1 <0>         0.0606
     28 H3         -3.3717    5.6465    0.0653 H         1 <0>         0.1068
     29 H4         -0.0522    4.9266    0.0296 H         1 <0>         0.1489
     30 H5          2.0898    3.7148    0.0021 H         1 <0>         0.1504
     31 H6          0.0021   -0.0041    0.0020 H         1 <0>         0.1558
     32 H7         -1.7584   -0.7024    0.8965 H         1 <0>         0.0616
     33 H8         -3.3009   -0.7971    0.0132 H         1 <0>         0.1058
     34 H9         -1.7668   -0.6926   -0.8834 H         1 <0>         0.0575
     35 H10         4.2292    2.5285   -1.8289 H         1 <0>         0.1626
     36 H11         4.8552    2.2077   -4.1891 H         1 <0>         0.1599
     37 H12         3.7457   -2.0681   -7.9678 H         1 <0>         0.4174
     38 H13         4.5725   -0.6057   -7.9871 H         1 <0>         0.4199
     39 H14         1.6116   -2.6887   -2.7348 H         1 <0>         0.4286
     40 H15         1.5829   -3.5992   -4.1466 H         1 <0>         0.4178
@<TRIPOS>BOND
     1    1    2 1
     2    1   26 1
     3    1   27 1
     4    1   28 1
     5    2    3 1
     6    3    8 ar
     7    3    4 ar
     8    4    5 ar
     9    4   29 1
    10    5    6 ar
    11    5   30 1
    12    6    7 ar
    13    6   11 1
    14    7    8 ar
    15    7   31 1
    16    8    9 1
    17    9   10 1
    18   10   32 1
    19   10   33 1
    20   10   34 1
    21   11   12 2
    22   11   13 2
    23   11   14 1
    24   14   19 ar
    25   14   15 ar
    26   15   16 ar
    27   15   35 1
    28   16   17 ar
    29   16   36 1
    30   17   23 ar
    31   17   18 ar
    32   18   19 ar
    33   18   20 ar
    34   20   21 ar
    35   20   25 1
    36   21   22 ar
    37   22   23 ar
    38   22   24 1
    39   24   37 1
    40   24   38 1
    41   25   39 1
    42   25   40 1
@<TRIPOS>MOLECULE
ZINC03814944
   41    43     0     0     0
SMALL
USER_CHARGES

@<TRIPOS>ATOM
      1 C1         -2.3605    5.2398    0.0534 C.3       1 <0>         0.0182
      2 O1         -2.4214    3.8121    0.0463 O.3       1 <0>        -0.2942
      3 C2         -1.2371    3.1437    0.0313 C.ar      1 <0>         0.1712
      4 C3         -0.0431    3.8467    0.0237 C.ar      1 <0>        -0.1957
      5 C4          1.1599    3.1657    0.0080 C.ar      1 <0>        -0.0097
      6 C5          1.1751    1.7833    0.0004 C.ar      1 <0>        -0.6672
      7 C6         -0.0126    1.0758    0.0080 C.ar      1 <0>        -0.0782
      8 C7         -1.2218    1.7523    0.0174 C.ar      1 <0>         0.0857
      9 O2         -2.3911    1.0578    0.0191 O.3       1 <0>        -0.2992
     10 C8         -2.2988   -0.3681    0.0109 C.3       1 <0>         0.0191
     11 S1          2.7117    0.9212   -0.0195 S.o2      1 <0>         2.5894
     12 O3          3.6806    1.8054    0.5269 O.2       1 <0>        -0.9053
     13 O4          2.4619   -0.3668    0.5264 O.2       1 <0>        -0.8992
     14 C9          3.1495    0.6759   -1.7085 C.ar      1 <0>        -0.4182
     15 C10         3.9135    1.6423   -2.3593 C.ar      1 <0>        -0.0111
     16 C11         4.2632    1.4689   -3.6694 C.ar      1 <0>        -0.1036
     17 C12         3.8300    0.3010   -4.3199 C.ar      1 <0>         0.1876
     18 C13         3.0567   -0.6374   -3.5957 C.ar      1 <0>         0.0076
     19 N1          2.7524   -0.4151   -2.3206 N.ar      1 <0>        -0.3141
     20 C14         2.6200   -1.8441   -4.2997 C.ar      1 <0>         0.5818
     21 N2          2.9763   -1.9808   -5.5690 N.ar      1 <0>        -0.5769
     22 C15         3.7054   -1.0568   -6.1869 C.ar      1 <0>         0.7056
     23 N3          4.0413   -1.2642   -7.5127 N.pl3     1 <0>        -0.7776
     24 N4          1.8634   -2.8057   -3.6642 N.pl3     1 <0>        -0.7290
     25 H1         -1.8231    5.5761    0.9401 H         1 <0>         0.0649
     26 H2         -1.8402    5.5857   -0.8397 H         1 <0>         0.0619
     27 H3         -3.3717    5.6465    0.0653 H         1 <0>         0.1113
     28 H4         -0.0522    4.9266    0.0296 H         1 <0>         0.1527
     29 H5          2.0898    3.7148    0.0021 H         1 <0>         0.1515
     30 H6          0.0021   -0.0041    0.0020 H         1 <0>         0.1562
     31 H7         -1.7584   -0.7024    0.8965 H         1 <0>         0.0635
     32 H8         -3.3009   -0.7971    0.0132 H         1 <0>         0.1094
     33 H9         -1.7668   -0.6926   -0.8834 H         1 <0>         0.0547
     34 H10         4.2292    2.5285   -1.8289 H         1 <0>         0.1882
     35 H11         4.8552    2.2077   -4.1891 H         1 <0>         0.1826
     36 H12         3.7457   -2.0681   -7.9678 H         1 <0>         0.4459
     37 H13         4.5725   -0.6057   -7.9871 H         1 <0>         0.4336
     38 H14         1.6116   -2.6887   -2.7348 H         1 <0>         0.4461
     39 H15         1.5829   -3.5992   -4.1466 H         1 <0>         0.4379
     40 N5          4.1657    0.0956   -5.6401 N.ar      1 <0>        -0.6087
     41 H16         4.7139    0.7749   -6.1281 H         1 <0>         0.4611
@<TRIPOS>BOND
     1    1    2 1
     2    1   25 1
     3    1   26 1
     4    1   27 1
     5    2    3 1
     6    3    8 ar
     7    3    4 ar
     8    4    5 ar
     9    4   28 1
    10    5    6 ar
    11    5   29 1
    12    6    7 ar
    13    6   11 1
    14    7    8 ar
    15    7   30 1
    16    8    9 1
    17    9   10 1
    18   10   31 1
    19   10   32 1
    20   10   33 1
    21   11   12 2
    22   11   13 2
    23   11   14 1
    24   14   19 ar
    25   14   15 ar
    26   15   16 ar
    27   15   34 1
    28   16   17 ar
    29   16   35 1
    30   17   18 ar
    31   17   40 ar
    32   18   19 ar
    33   18   20 ar
    34   20   21 ar
    35   20   24 1
    36   21   22 ar
    37   22   23 1
    38   22   40 ar
    39   23   36 1
    40   23   37 1
    41   24   38 1
    42   24   39 1
    43   40   41 1
@<TRIPOS>MOLECULE
ZINC03814945
   37    39     0     0     0
SMALL
USER_CHARGES

@<TRIPOS>ATOM
      1 C1         -0.0700   -0.0033    0.6150 C.3       1 <0>        -0.1550
      2 C2         -0.0875    1.5035    0.5983 C.ar      1 <0>         0.0617
      3 C3         -1.2454    2.1982    0.8324 C.ar      1 <0>        -0.2206
      4 C4         -1.2346    3.5874    0.8144 C.ar      1 <0>         0.2106
      5 N1         -0.1370    4.2679    0.5695 N.ar      1 <0>        -0.4889
      6 C5          1.0200    3.6503    0.3300 C.ar      1 <0>         0.4177
      7 C6          1.0769    2.2347    0.3375 C.ar      1 <0>        -0.2830
      8 C7          2.3199    1.6054    0.0792 C.ar      1 <0>         0.5250
      9 N2          3.3743    2.3726   -0.1580 N.ar      1 <0>        -0.6167
     10 C8          3.2781    3.6991   -0.1557 C.ar      1 <0>         0.6262
     11 N3          2.1452    4.3344    0.0784 N.ar      1 <0>        -0.5914
     12 N4          4.4134    4.4445   -0.4100 N.pl3     1 <0>        -0.8094
     13 N5          2.4294    0.2322    0.0742 N.pl3     1 <0>        -0.8447
     14 C9         -2.5273    1.4568    1.1120 C.3       1 <0>         0.1758
     15 N6         -2.5467    1.0258    2.5121 N.pl3     1 <0>        -0.7367
     16 C10        -3.6421    0.3146    3.0090 C.ar      1 <0>         0.2350
     17 C11        -4.7159    0.0206    2.1780 C.ar      1 <0>        -0.1834
     18 C12        -5.7947   -0.6878    2.6695 C.ar      1 <0>        -0.0473
     19 C13        -5.8126   -1.0947    3.9920 C.ar      1 <0>        -0.0908
     20 C14        -4.7467   -0.7980    4.8247 C.ar      1 <0>         0.0202
     21 C15        -3.6617   -0.0946    4.3358 C.ar      1 <0>        -0.1794
     22 Cl1        -4.7727   -1.3102    6.4832 Cl        1 <0>        -0.0485
     23 Cl2        -7.1734   -1.9792    4.6081 Cl        1 <0>        -0.0575
     24 H1          0.2751   -0.3519    1.5884 H         1 <0>         0.0874
     25 H2         -1.0758   -0.3804    0.4297 H         1 <0>         0.0857
     26 H3          0.6032   -0.3675   -0.1610 H         1 <0>         0.1002
     27 H4         -2.1534    4.1226    1.0036 H         1 <0>         0.1680
     28 H5          5.2570    3.9988   -0.5850 H         1 <0>         0.4167
     29 H6          4.3668    5.4133   -0.4134 H         1 <0>         0.4194
     30 H7          2.9687   -0.2089   -0.6007 H         1 <0>         0.4113
     31 H8          1.9673   -0.2936    0.7456 H         1 <0>         0.4185
     32 H9         -3.3760    2.1140    0.9224 H         1 <0>         0.0769
     33 H10        -2.5914    0.5840    0.4622 H         1 <0>         0.0764
     34 H11        -1.7992    1.2340    3.0941 H         1 <0>         0.4034
     35 H12        -4.7048    0.3416    1.1469 H         1 <0>         0.1368
     36 H13        -6.6273   -0.9205    2.0222 H         1 <0>         0.1418
     37 H14        -2.8304    0.1369    4.9853 H         1 <0>         0.1386
@<TRIPOS>BOND
     1    1    2 1
     2    1   24 1
     3    1   25 1
     4    1   26 1
     5    2    7 ar
     6    2    3 ar
     7    3    4 ar
     8    3   14 1
     9    4    5 ar
    10    4   27 1
    11    5    6 ar
    12    6   11 ar
    13    6    7 ar
    14    7    8 ar
    15    8    9 ar
    16    8   13 1
    17    9   10 ar
    18   10   11 ar
    19   10   12 1
    20   12   28 1
    21   12   29 1
    22   13   30 1
    23   13   31 1
    24   14   15 1
    25   14   32 1
    26   14   33 1
    27   15   16 1
    28   15   34 1
    29   16   21 ar
    30   16   17 ar
    31   17   18 ar
    32   17   35 1
    33   18   19 ar
    34   18   36 1
    35   19   20 ar
    36   19   23 1
    37   20   21 ar
    38   20   22 1
    39   21   37 1
@<TRIPOS>MOLECULE
ZINC03814945
   38    40     0     0     0
SMALL
USER_CHARGES

@<TRIPOS>ATOM
      1 C1         -0.0700   -0.0033    0.6150 C.3       1 <0>        -0.1682
      2 C2         -0.0875    1.5035    0.5983 C.ar      1 <0>         0.0785
      3 C3         -1.2454    2.1982    0.8324 C.ar      1 <0>        -0.1772
      4 C4         -1.2346    3.5874    0.8144 C.ar      1 <0>         0.2382
      5 N1         -0.1370    4.2679    0.5695 N.ar      1 <0>        -0.4999
      6 C5          1.0200    3.6503    0.3300 C.ar      1 <0>         0.4083
      7 C6          1.0769    2.2347    0.3375 C.ar      1 <0>        -0.2345
      8 C7          2.3199    1.6054    0.0792 C.ar      1 <0>         0.5806
      9 N2          3.3743    2.3726   -0.1580 N.ar      1 <0>        -0.5711
     10 C8          3.2781    3.6991   -0.1557 C.ar      1 <0>         0.6942
     11 N3          4.4134    4.4445   -0.4100 N.pl3     1 <0>        -0.7768
     12 N4          2.4294    0.2322    0.0742 N.pl3     1 <0>        -0.8008
     13 C9         -2.5273    1.4568    1.1120 C.3       1 <0>         0.1664
     14 N5         -2.5467    1.0258    2.5121 N.pl3     1 <0>        -0.7445
     15 C10        -3.6421    0.3146    3.0090 C.ar      1 <0>         0.2243
     16 C11        -4.7159    0.0206    2.1780 C.ar      1 <0>        -0.1795
     17 C12        -5.7947   -0.6878    2.6695 C.ar      1 <0>        -0.0482
     18 C13        -5.8126   -1.0947    3.9920 C.ar      1 <0>        -0.0818
     19 C14        -4.7467   -0.7980    4.8247 C.ar      1 <0>         0.0171
     20 C15        -3.6617   -0.0946    4.3358 C.ar      1 <0>        -0.1725
     21 Cl1        -4.7727   -1.3102    6.4832 Cl        1 <0>        -0.0398
     22 Cl2        -7.1734   -1.9792    4.6081 Cl        1 <0>        -0.0468
     23 H1          0.2751   -0.3519    1.5884 H         1 <0>         0.1073
     24 H2         -1.0758   -0.3804    0.4297 H         1 <0>         0.1069
     25 H3          0.6032   -0.3675   -0.1610 H         1 <0>         0.1066
     26 H4         -2.1534    4.1226    1.0036 H         1 <0>         0.1934
     27 H5          5.2570    3.9988   -0.5850 H         1 <0>         0.4465
     28 H6          4.3668    5.4133   -0.4134 H         1 <0>         0.4338
     29 H7          2.9687   -0.2089   -0.6007 H         1 <0>         0.4317
     30 H8          1.9673   -0.2936    0.7456 H         1 <0>         0.4366
     31 H9         -3.3760    2.1140    0.9224 H         1 <0>         0.0877
     32 H10        -2.5914    0.5840    0.4622 H         1 <0>         0.0877
     33 H11        -1.7992    1.2340    3.0941 H         1 <0>         0.4026
     34 H12        -4.7048    0.3416    1.1469 H         1 <0>         0.1363
     35 H13        -6.6273   -0.9205    2.0222 H         1 <0>         0.1451
     36 H14        -2.8304    0.1369    4.9853 H         1 <0>         0.1394
     37 N6          2.1441    4.4066    0.0776 N.ar      1 <0>        -0.5899
     38 H15         2.1655    5.4062    0.0585 H         1 <0>         0.4620
@<TRIPOS>BOND
     1    1    2 1
     2    1   23 1
     3    1   24 1
     4    1   25 1
     5    2    7 ar
     6    2    3 ar
     7    3    4 ar
     8    3   13 1
     9    4    5 ar
    10    4   26 1
    11    5    6 ar
    12    6    7 ar
    13    6   37 ar
    14    7    8 ar
    15    8    9 ar
    16    8   12 1
    17    9   10 ar
    18   10   11 1
    19   10   37 ar
    20   11   27 1
    21   11   28 1
    22   12   29 1
    23   12   30 1
    24   13   14 1
    25   13   31 1
    26   13   32 1
    27   14   15 1
    28   14   33 1
    29   15   20 ar
    30   15   16 ar
    31   16   17 ar
    32   16   34 1
    33   17   18 ar
    34   17   35 1
    35   18   19 ar
    36   18   22 1
    37   19   20 ar
    38   19   21 1
    39   20   36 1
    40   37   38 1
@<TRIPOS>MOLECULE
ZINC03814946
   51    53     0     0     0
SMALL
USER_CHARGES

@<TRIPOS>ATOM
      1 C1          1.2329    3.6559    0.2102 C.3       1 <0>        -0.1625
      2 C2          2.1769    2.4825    0.1572 C.ar      1 <0>         0.0657
      3 C3          1.8357    1.2769    0.7125 C.ar      1 <0>        -0.2292
      4 C4          2.7215    0.2087    0.6453 C.ar      1 <0>         0.2042
      5 N1          3.8927    0.3165    0.0582 N.ar      1 <0>        -0.4878
      6 C5          4.2827    1.4624   -0.5006 C.ar      1 <0>         0.4179
      7 C6          3.4255    2.5899   -0.4658 C.ar      1 <0>        -0.2825
      8 C7          3.8658    3.7945   -1.0680 C.ar      1 <0>         0.5250
      9 N2          5.0628    3.8104   -1.6372 N.ar      1 <0>        -0.6195
     10 C8          5.8371    2.7293   -1.6477 C.ar      1 <0>         0.6270
     11 N3          5.4746    1.5834   -1.1023 N.ar      1 <0>        -0.5932
     12 N4          7.0748    2.8088   -2.2568 N.pl3     1 <0>        -0.8101
     13 N5          3.0710    4.9196   -1.0618 N.pl3     1 <0>        -0.8412
     14 C9          0.5021    1.1101    1.3943 C.3       1 <0>         0.1631
     15 N6         -0.5207    0.7913    0.3951 N.am      1 <0>        -0.5803
     16 C10        -0.6839   -0.4805   -0.0201 C.2       1 <0>         0.4977
     17 O1         -1.5825   -0.7577   -0.7862 O.2       1 <0>        -0.5265
     18 C11        -1.3290    1.8084   -0.1289 C.ar      1 <0>         0.2147
     19 C12        -2.2757    2.4264    0.6767 C.ar      1 <0>        -0.2374
     20 C13        -3.0726    3.4361    0.1604 C.ar      1 <0>         0.1610
     21 C14        -2.9310    3.8225   -1.1671 C.ar      1 <0>         0.0291
     22 C15        -1.9866    3.1995   -1.9743 C.ar      1 <0>         0.1606
     23 C16        -1.1869    2.1936   -1.4549 C.ar      1 <0>        -0.2198
     24 O2         -1.8474    3.5765   -3.2735 O.3       1 <0>        -0.2976
     25 C17        -0.8575    2.8931   -4.0449 C.3       1 <0>         0.0247
     26 O3         -3.7167    4.8110   -1.6763 O.3       1 <0>        -0.3117
     27 C18        -4.9577    4.4154   -2.2641 C.3       1 <0>         0.0346
     28 O4         -3.9963    4.0450    0.9512 O.3       1 <0>        -0.2988
     29 C19        -4.0198    3.6683    2.3295 C.3       1 <0>         0.0236
     30 H1          1.5223    4.3185    1.0259 H         1 <0>         0.0884
     31 H2          1.2766    4.2003   -0.7331 H         1 <0>         0.0995
     32 H3          0.2169    3.2977    0.3762 H         1 <0>         0.0873
     33 H4          2.4402   -0.7358    1.0870 H         1 <0>         0.1667
     34 H5          7.3620    3.6407   -2.6648 H         1 <0>         0.4164
     35 H6          7.6565    2.0328   -2.2765 H         1 <0>         0.4190
     36 H7          2.5350    5.1304   -0.2814 H         1 <0>         0.4189
     37 H8          3.0475    5.5010   -1.8379 H         1 <0>         0.4110
     38 H9          0.5645    0.3005    2.1214 H         1 <0>         0.1020
     39 H10         0.2362    2.0363    1.9038 H         1 <0>         0.0980
     40 H11        -0.0146   -1.2527    0.3294 H         1 <0>         0.1420
     41 H12        -2.3884    2.1232    1.7071 H         1 <0>         0.1403
     42 H13        -0.4527    1.7097   -2.0819 H         1 <0>         0.1339
     43 H14        -0.8505    3.2894   -5.0602 H         1 <0>         0.1056
     44 H15         0.1224    3.0402   -3.5907 H         1 <0>         0.0552
     45 H16        -1.0892    1.8283   -4.0720 H         1 <0>         0.0587
     46 H17        -4.7661    3.7363   -3.0949 H         1 <0>         0.0451
     47 H18        -5.5695    3.9111   -1.5162 H         1 <0>         0.0454
     48 H19        -5.4840    5.2972   -2.6296 H         1 <0>         0.0939
     49 H20        -4.1566    2.5899    2.4091 H         1 <0>         0.0580
     50 H21        -3.0778    3.9507    2.7994 H         1 <0>         0.0588
     51 H22        -4.8430    4.1770    2.8312 H         1 <0>         0.1048
@<TRIPOS>BOND
     1    1    2 1
     2    1   30 1
     3    1   31 1
     4    1   32 1
     5    2    7 ar
     6    2    3 ar
     7    3    4 ar
     8    3   14 1
     9    4    5 ar
    10    4   33 1
    11    5    6 ar
    12    6   11 ar
    13    6    7 ar
    14    7    8 ar
    15    8    9 ar
    16    8   13 1
    17    9   10 ar
    18   10   11 ar
    19   10   12 1
    20   12   34 1
    21   12   35 1
    22   13   36 1
    23   13   37 1
    24   14   15 1
    25   14   38 1
    26   14   39 1
    27   15   16 am
    28   15   18 1
    29   16   17 2
    30   16   40 1
    31   18   23 ar
    32   18   19 ar
    33   19   20 ar
    34   19   41 1
    35   20   21 ar
    36   20   28 1
    37   21   22 ar
    38   21   26 1
    39   22   23 ar
    40   22   24 1
    41   23   42 1
    42   24   25 1
    43   25   43 1
    44   25   44 1
    45   25   45 1
    46   26   27 1
    47   27   46 1
    48   27   47 1
    49   27   48 1
    50   28   29 1
    51   29   49 1
    52   29   50 1
    53   29   51 1
@<TRIPOS>MOLECULE
ZINC03814946
   52    54     0     0     0
SMALL
USER_CHARGES

@<TRIPOS>ATOM
      1 C1          1.2329    3.6559    0.2102 C.3       1 <0>        -0.1776
      2 C2          2.1769    2.4825    0.1572 C.ar      1 <0>         0.0818
      3 C3          1.8357    1.2769    0.7125 C.ar      1 <0>        -0.1854
      4 C4          2.7215    0.2087    0.6453 C.ar      1 <0>         0.2298
      5 N1          3.8927    0.3165    0.0582 N.ar      1 <0>        -0.4980
      6 C5          4.2827    1.4624   -0.5006 C.ar      1 <0>         0.4071
      7 C6          3.4255    2.5899   -0.4658 C.ar      1 <0>        -0.2332
      8 C7          3.8658    3.7945   -1.0680 C.ar      1 <0>         0.5783
      9 N2          5.0628    3.8104   -1.6372 N.ar      1 <0>        -0.5730
     10 C8          5.8371    2.7293   -1.6477 C.ar      1 <0>         0.6946
     11 N3          7.0748    2.8088   -2.2568 N.pl3     1 <0>        -0.7779
     12 N4          3.0710    4.9196   -1.0618 N.pl3     1 <0>        -0.7952
     13 C9          0.5021    1.1101    1.3943 C.3       1 <0>         0.1524
     14 N5         -0.5207    0.7913    0.3951 N.am      1 <0>        -0.5829
     15 C10        -0.6839   -0.4805   -0.0201 C.2       1 <0>         0.4932
     16 O1         -1.5825   -0.7577   -0.7862 O.2       1 <0>        -0.5093
     17 C11        -1.3290    1.8084   -0.1289 C.ar      1 <0>         0.2004
     18 C12        -2.2757    2.4264    0.6767 C.ar      1 <0>        -0.2351
     19 C13        -3.0726    3.4361    0.1604 C.ar      1 <0>         0.1648
     20 C14        -2.9310    3.8225   -1.1671 C.ar      1 <0>         0.0358
     21 C15        -1.9866    3.1995   -1.9743 C.ar      1 <0>         0.1598
     22 C16        -1.1869    2.1936   -1.4549 C.ar      1 <0>        -0.2259
     23 O2         -1.8474    3.5765   -3.2735 O.3       1 <0>        -0.2946
     24 C17        -0.8575    2.8931   -4.0449 C.3       1 <0>         0.0259
     25 O3         -3.7167    4.8110   -1.6763 O.3       1 <0>        -0.3121
     26 C18        -4.9577    4.4154   -2.2641 C.3       1 <0>         0.0342
     27 O4         -3.9963    4.0450    0.9512 O.3       1 <0>        -0.2953
     28 C19        -4.0198    3.6683    2.3295 C.3       1 <0>         0.0225
     29 H1          1.5223    4.3185    1.0259 H         1 <0>         0.1093
     30 H2          1.2766    4.2003   -0.7331 H         1 <0>         0.1066
     31 H3          0.2169    3.2977    0.3762 H         1 <0>         0.1075
     32 H4          2.4402   -0.7358    1.0870 H         1 <0>         0.1923
     33 H5          7.3620    3.6407   -2.6648 H         1 <0>         0.4462
     34 H6          7.6565    2.0328   -2.2765 H         1 <0>         0.4335
     35 H7          2.5350    5.1304   -0.2814 H         1 <0>         0.4368
     36 H8          3.0475    5.5010   -1.8379 H         1 <0>         0.4316
     37 H9          0.5645    0.3005    2.1214 H         1 <0>         0.1144
     38 H10         0.2362    2.0363    1.9038 H         1 <0>         0.1106
     39 H11        -0.0146   -1.2527    0.3294 H         1 <0>         0.1438
     40 H12        -2.3884    2.1232    1.7071 H         1 <0>         0.1428
     41 H13        -0.4527    1.7097   -2.0819 H         1 <0>         0.1319
     42 H14        -0.8505    3.2894   -5.0602 H         1 <0>         0.1080
     43 H15         0.1224    3.0402   -3.5907 H         1 <0>         0.0493
     44 H16        -1.0892    1.8283   -4.0720 H         1 <0>         0.0597
     45 H17        -4.7661    3.7363   -3.0949 H         1 <0>         0.0466
     46 H18        -5.5695    3.9111   -1.5162 H         1 <0>         0.0479
     47 H19        -5.4840    5.2972   -2.6296 H         1 <0>         0.0980
     48 H20        -4.1566    2.5899    2.4091 H         1 <0>         0.0596
     49 H21        -3.0778    3.9507    2.7994 H         1 <0>         0.0594
     50 H22        -4.8430    4.1770    2.8312 H         1 <0>         0.1088
     51 N6          5.5195    1.5270   -1.1050 N.ar      1 <0>        -0.5911
     52 H23         6.1662    0.7664   -1.1615 H         1 <0>         0.4615
@<TRIPOS>BOND
     1    1    2 1
     2    1   29 1
     3    1   30 1
     4    1   31 1
     5    2    7 ar
     6    2    3 ar
     7    3    4 ar
     8    3   13 1
     9    4    5 ar
    10    4   32 1
    11    5    6 ar
    12    6    7 ar
    13    6   51 ar
    14    7    8 ar
    15    8    9 ar
    16    8   12 1
    17    9   10 ar
    18   10   11 1
    19   10   51 ar
    20   11   33 1
    21   11   34 1
    22   12   35 1
    23   12   36 1
    24   13   14 1
    25   13   37 1
    26   13   38 1
    27   14   15 am
    28   14   17 1
    29   15   16 2
    30   15   39 1
    31   17   22 ar
    32   17   18 ar
    33   18   19 ar
    34   18   40 1
    35   19   20 ar
    36   19   27 1
    37   20   21 ar
    38   20   25 1
    39   21   22 ar
    40   21   23 1
    41   22   41 1
    42   23   24 1
    43   24   42 1
    44   24   43 1
    45   24   44 1
    46   25   26 1
    47   26   45 1
    48   26   46 1
    49   26   47 1
    50   27   28 1
    51   28   48 1
    52   28   49 1
    53   28   50 1
    54   51   52 1
@<TRIPOS>MOLECULE
ZINC03814947
   39    41     0     0     0
SMALL
USER_CHARGES

@<TRIPOS>ATOM
      1 C1          0.8208    0.0470    0.4190 C.3       1 <0>        -0.1667
      2 C2          0.9340    1.5495    0.3972 C.ar      1 <0>         0.0565
      3 C3         -0.1635    2.3429    0.6075 C.ar      1 <0>        -0.2250
      4 C4         -0.0322    3.7258    0.5852 C.ar      1 <0>         0.2104
      5 N1          1.1245    4.3077    0.3586 N.ar      1 <0>        -0.4858
      6 C5          2.2279    3.5913    0.1426 C.ar      1 <0>         0.4173
      7 C6          2.1619    2.1760    0.1556 C.ar      1 <0>        -0.2795
      8 C7          3.3503    1.4404   -0.0776 C.ar      1 <0>         0.5238
      9 N2          4.4713    2.1125   -0.2976 N.ar      1 <0>        -0.6156
     10 C8          4.4901    3.4423   -0.3014 C.ar      1 <0>         0.6257
     11 N3          3.4124    4.1743   -0.0903 N.ar      1 <0>        -0.5903
     12 N4          5.6902    4.0855   -0.5369 N.pl3     1 <0>        -0.8096
     13 N5          3.3407    0.0629   -0.0761 N.pl3     1 <0>        -0.8453
     14 C9         -1.5096    1.7164    0.8657 C.3       1 <0>         0.1618
     15 N6         -1.5917    1.2953    2.2665 N.am      1 <0>        -0.5757
     16 C10        -1.1983    0.0562    2.6219 C.2       1 <0>         0.4876
     17 O1         -1.1835   -0.2631    3.7919 O.2       1 <0>        -0.5245
     18 C11        -2.0787    2.1799    3.2358 C.ar      1 <0>         0.1526
     19 C12        -3.4096    2.5762    3.2098 C.ar      1 <0>        -0.1044
     20 C13        -3.8899    3.4438    4.1709 C.ar      1 <0>        -0.0870
     21 C14        -3.0434    3.9289    5.1523 C.ar      1 <0>        -0.0313
     22 C15        -1.7144    3.5406    5.1772 C.ar      1 <0>        -0.0202
     23 C16        -1.2307    2.6671    4.2211 C.ar      1 <0>        -0.0829
     24 Cl1        -0.6553    4.1506    6.4101 Cl        1 <0>        -0.0404
     25 Cl2        -3.6486    5.0255    6.3543 Cl        1 <0>        -0.0422
     26 H1          1.1086   -0.3248    1.4024 H         1 <0>         0.0882
     27 H2         -0.2085   -0.2430    0.2079 H         1 <0>         0.0851
     28 H3          1.4805   -0.3782   -0.3374 H         1 <0>         0.1074
     29 H4         -0.9044    4.3393    0.7564 H         1 <0>         0.1649
     30 H5          6.4951    3.5678   -0.6948 H         1 <0>         0.4166
     31 H6          5.7277    5.0548   -0.5443 H         1 <0>         0.4193
     32 H7          3.8508   -0.4264   -0.7404 H         1 <0>         0.4115
     33 H8          2.8238   -0.4178    0.5892 H         1 <0>         0.4179
     34 H9         -2.2946    2.4436    0.6583 H         1 <0>         0.1009
     35 H10        -1.6371    0.8493    0.2176 H         1 <0>         0.1031
     36 H11        -0.8963   -0.6524    1.8649 H         1 <0>         0.1431
     37 H12        -4.0698    2.2022    2.4412 H         1 <0>         0.1440
     38 H13        -4.9260    3.7481    4.1536 H         1 <0>         0.1496
     39 H14        -0.1943    2.3642    4.2406 H         1 <0>         0.1391
@<TRIPOS>BOND
     1    1    2 1
     2    1   26 1
     3    1   27 1
     4    1   28 1
     5    2    7 ar
     6    2    3 ar
     7    3    4 ar
     8    3   14 1
     9    4    5 ar
    10    4   29 1
    11    5    6 ar
    12    6   11 ar
    13    6    7 ar
    14    7    8 ar
    15    8    9 ar
    16    8   13 1
    17    9   10 ar
    18   10   11 ar
    19   10   12 1
    20   12   30 1
    21   12   31 1
    22   13   32 1
    23   13   33 1
    24   14   15 1
    25   14   34 1
    26   14   35 1
    27   15   16 am
    28   15   18 1
    29   16   17 2
    30   16   36 1
    31   18   23 ar
    32   18   19 ar
    33   19   20 ar
    34   19   37 1
    35   20   21 ar
    36   20   38 1
    37   21   22 ar
    38   21   25 1
    39   22   23 ar
    40   22   24 1
    41   23   39 1
@<TRIPOS>MOLECULE
ZINC03814947
   40    42     0     0     0
SMALL
USER_CHARGES

@<TRIPOS>ATOM
      1 C1          0.8208    0.0470    0.4190 C.3       1 <0>        -0.1806
      2 C2          0.9340    1.5495    0.3972 C.ar      1 <0>         0.0733
      3 C3         -0.1635    2.3429    0.6075 C.ar      1 <0>        -0.1832
      4 C4         -0.0322    3.7258    0.5852 C.ar      1 <0>         0.2380
      5 N1          1.1245    4.3077    0.3586 N.ar      1 <0>        -0.4969
      6 C5          2.2279    3.5913    0.1426 C.ar      1 <0>         0.4074
      7 C6          2.1619    2.1760    0.1556 C.ar      1 <0>        -0.2314
      8 C7          3.3503    1.4404   -0.0776 C.ar      1 <0>         0.5804
      9 N2          4.4713    2.1125   -0.2976 N.ar      1 <0>        -0.5701
     10 C8          4.4901    3.4423   -0.3014 C.ar      1 <0>         0.6940
     11 N3          5.6902    4.0855   -0.5369 N.pl3     1 <0>        -0.7767
     12 N4          3.3407    0.0629   -0.0761 N.pl3     1 <0>        -0.8020
     13 C9         -1.5096    1.7164    0.8657 C.3       1 <0>         0.1517
     14 N5         -1.5917    1.2953    2.2665 N.am      1 <0>        -0.5780
     15 C10        -1.1983    0.0562    2.6219 C.2       1 <0>         0.4827
     16 O1         -1.1835   -0.2631    3.7919 O.2       1 <0>        -0.5079
     17 C11        -2.0787    2.1799    3.2358 C.ar      1 <0>         0.1389
     18 C12        -3.4096    2.5762    3.2098 C.ar      1 <0>        -0.1011
     19 C13        -3.8899    3.4438    4.1709 C.ar      1 <0>        -0.0839
     20 C14        -3.0434    3.9289    5.1523 C.ar      1 <0>        -0.0275
     21 C15        -1.7144    3.5406    5.1772 C.ar      1 <0>        -0.0226
     22 C16        -1.2307    2.6671    4.2211 C.ar      1 <0>        -0.0867
     23 Cl1        -0.6553    4.1506    6.4101 Cl        1 <0>        -0.0355
     24 Cl2        -3.6486    5.0255    6.3543 Cl        1 <0>        -0.0320
     25 H1          1.1086   -0.3248    1.4024 H         1 <0>         0.1075
     26 H2         -0.2085   -0.2430    0.2079 H         1 <0>         0.1063
     27 H3          1.4805   -0.3782   -0.3374 H         1 <0>         0.1140
     28 H4         -0.9044    4.3393    0.7564 H         1 <0>         0.1907
     29 H5          6.4951    3.5678   -0.6948 H         1 <0>         0.4464
     30 H6          5.7277    5.0548   -0.5443 H         1 <0>         0.4339
     31 H7          3.8508   -0.4264   -0.7404 H         1 <0>         0.4320
     32 H8          2.8238   -0.4178    0.5892 H         1 <0>         0.4360
     33 H9         -2.2946    2.4436    0.6583 H         1 <0>         0.1131
     34 H10        -1.6371    0.8493    0.2176 H         1 <0>         0.1155
     35 H11        -0.8963   -0.6524    1.8649 H         1 <0>         0.1452
     36 H12        -4.0698    2.2022    2.4412 H         1 <0>         0.1462
     37 H13        -4.9260    3.7481    4.1536 H         1 <0>         0.1533
     38 H14        -0.1943    2.3642    4.2406 H         1 <0>         0.1369
     39 N6          3.4175    4.2463   -0.0914 N.ar      1 <0>        -0.5893
     40 H15         3.5258    5.2402   -0.1132 H         1 <0>         0.4621
@<TRIPOS>BOND
     1    1    2 1
     2    1   25 1
     3    1   26 1
     4    1   27 1
     5    2    7 ar
     6    2    3 ar
     7    3    4 ar
     8    3   13 1
     9    4    5 ar
    10    4   28 1
    11    5    6 ar
    12    6    7 ar
    13    6   39 ar
    14    7    8 ar
    15    8    9 ar
    16    8   12 1
    17    9   10 ar
    18   10   11 1
    19   10   39 ar
    20   11   29 1
    21   11   30 1
    22   12   31 1
    23   12   32 1
    24   13   14 1
    25   13   33 1
    26   13   34 1
    27   14   15 am
    28   14   17 1
    29   15   16 2
    30   15   35 1
    31   17   22 ar
    32   17   18 ar
    33   18   19 ar
    34   18   36 1
    35   19   20 ar
    36   19   37 1
    37   20   21 ar
    38   20   24 1
    39   21   22 ar
    40   21   23 1
    41   22   38 1
    42   39   40 1
@<TRIPOS>MOLECULE
ZINC03814948
   45    47     0     0     0
SMALL
USER_CHARGES

@<TRIPOS>ATOM
      1 C1          0.6018    1.5059    0.0250 C.3       1 <0>        -0.1541
      2 C2          0.5970   -0.0011    0.0161 C.ar      1 <0>         0.0606
      3 C3          0.7585   -0.7002   -1.1515 C.ar      1 <0>        -0.2155
      4 C4          0.7532   -2.0894   -1.1326 C.ar      1 <0>         0.2105
      5 N1          0.5888   -2.7658   -0.0176 N.ar      1 <0>        -0.4899
      6 C5          0.4225   -2.1439    1.1498 C.ar      1 <0>         0.4161
      7 C6          0.4215   -0.7279    1.1991 C.ar      1 <0>        -0.2820
      8 C7          0.2422   -0.0940    2.4535 C.ar      1 <0>         0.5247
      9 N2          0.0832   -0.8573    3.5253 N.ar      1 <0>        -0.6176
     10 C8          0.0905   -2.1842    3.4357 C.ar      1 <0>         0.6248
     11 N3          0.2532   -2.8238    2.2928 N.ar      1 <0>        -0.5915
     12 N4         -0.0802   -2.9254    4.5893 N.pl3     1 <0>        -0.8107
     13 N5          0.2328    1.2797    2.5563 N.pl3     1 <0>        -0.8450
     14 C9          0.9447    0.0365   -2.4530 C.3       1 <0>         0.1770
     15 N6          2.3364    0.4790   -2.5689 N.pl3     1 <0>        -0.7346
     16 C10         2.7529    1.1893   -3.7005 C.ar      1 <0>         0.2347
     17 C11         1.8504    1.4701   -4.7157 C.ar      1 <0>        -0.2023
     18 C12         2.2647    2.1785   -5.8331 C.ar      1 <0>         0.1432
     19 C13         3.5828    2.5966   -5.9411 C.ar      1 <0>        -0.2291
     20 C14         4.4855    2.3133   -4.9327 C.ar      1 <0>        -0.1223
     21 C15         4.0759    1.6106   -3.8121 C.ar      1 <0>         0.0198
     22 O1          4.9654    1.3315   -2.8206 O.3       1 <0>        -0.3233
     23 C16         6.3052    1.7942   -3.0018 C.3       1 <0>         0.0325
     24 O2          1.3796    2.4588   -6.8265 O.3       1 <0>        -0.3177
     25 C17         1.8760    3.1870   -7.9514 C.3       1 <0>         0.0287
     26 H1          1.5932    1.8644    0.3020 H         1 <0>         0.0872
     27 H2          0.3459    1.8759   -0.9678 H         1 <0>         0.0862
     28 H3         -0.1301    1.8674    0.7473 H         1 <0>         0.0989
     29 H4          0.8854   -2.6280   -2.0594 H         1 <0>         0.1679
     30 H5         -0.2018   -2.4766    5.4406 H         1 <0>         0.4161
     31 H6         -0.0784   -3.8945    4.5478 H         1 <0>         0.4188
     32 H7         -0.4080    1.7182    3.1377 H         1 <0>         0.4106
     33 H8          0.8670    1.8085    2.0474 H         1 <0>         0.4186
     34 H9          0.7040   -0.6270   -3.2836 H         1 <0>         0.0741
     35 H10         0.2845    0.9035   -2.4774 H         1 <0>         0.0738
     36 H11         2.9693    0.2796   -1.8613 H         1 <0>         0.4072
     37 H12         0.8252    1.1404   -4.6340 H         1 <0>         0.1368
     38 H13         3.9048    3.1442   -6.8145 H         1 <0>         0.1266
     39 H14         5.5112    2.6401   -5.0195 H         1 <0>         0.1293
     40 H15         6.9088    1.5057   -2.1412 H         1 <0>         0.0968
     41 H16         6.7241    1.3498   -3.9047 H         1 <0>         0.0526
     42 H17         6.3048    2.8800   -3.0977 H         1 <0>         0.0521
     43 H18         1.0695    3.3430   -8.6678 H         1 <0>         0.0992
     44 H19         2.2588    4.1520   -7.6193 H         1 <0>         0.0549
     45 H20         2.6783    2.6213   -8.4250 H         1 <0>         0.0552
@<TRIPOS>BOND
     1    1    2 1
     2    1   26 1
     3    1   27 1
     4    1   28 1
     5    2    7 ar
     6    2    3 ar
     7    3    4 ar
     8    3   14 1
     9    4    5 ar
    10    4   29 1
    11    5    6 ar
    12    6   11 ar
    13    6    7 ar
    14    7    8 ar
    15    8    9 ar
    16    8   13 1
    17    9   10 ar
    18   10   11 ar
    19   10   12 1
    20   12   30 1
    21   12   31 1
    22   13   32 1
    23   13   33 1
    24   14   15 1
    25   14   34 1
    26   14   35 1
    27   15   16 1
    28   15   36 1
    29   16   21 ar
    30   16   17 ar
    31   17   18 ar
    32   17   37 1
    33   18   19 ar
    34   18   24 1
    35   19   20 ar
    36   19   38 1
    37   20   21 ar
    38   20   39 1
    39   21   22 1
    40   22   23 1
    41   23   40 1
    42   23   41 1
    43   23   42 1
    44   24   25 1
    45   25   43 1
    46   25   44 1
    47   25   45 1
@<TRIPOS>MOLECULE
ZINC03814948
   46    48     0     0     0
SMALL
USER_CHARGES

@<TRIPOS>ATOM
      1 C1          0.6018    1.5059    0.0250 C.3       1 <0>        -0.1674
      2 C2          0.5970   -0.0011    0.0161 C.ar      1 <0>         0.0781
      3 C3          0.7585   -0.7002   -1.1515 C.ar      1 <0>        -0.1724
      4 C4          0.7532   -2.0894   -1.1326 C.ar      1 <0>         0.2377
      5 N1          0.5888   -2.7658   -0.0176 N.ar      1 <0>        -0.5005
      6 C5          0.4225   -2.1439    1.1498 C.ar      1 <0>         0.4060
      7 C6          0.4215   -0.7279    1.1991 C.ar      1 <0>        -0.2342
      8 C7          0.2422   -0.0940    2.4535 C.ar      1 <0>         0.5809
      9 N2          0.0832   -0.8573    3.5253 N.ar      1 <0>        -0.5721
     10 C8          0.0905   -2.1842    3.4357 C.ar      1 <0>         0.6939
     11 N3         -0.0802   -2.9254    4.5893 N.pl3     1 <0>        -0.7783
     12 N4          0.2328    1.2797    2.5563 N.pl3     1 <0>        -0.8011
     13 C9          0.9447    0.0365   -2.4530 C.3       1 <0>         0.1673
     14 N5          2.3364    0.4790   -2.5689 N.pl3     1 <0>        -0.7418
     15 C10         2.7529    1.1893   -3.7005 C.ar      1 <0>         0.2240
     16 C11         1.8504    1.4701   -4.7157 C.ar      1 <0>        -0.1979
     17 C12         2.2647    2.1785   -5.8331 C.ar      1 <0>         0.1437
     18 C13         3.5828    2.5966   -5.9411 C.ar      1 <0>        -0.2185
     19 C14         4.4855    2.3133   -4.9327 C.ar      1 <0>        -0.1206
     20 C15         4.0759    1.6106   -3.8121 C.ar      1 <0>         0.0246
     21 O1          4.9654    1.3315   -2.8206 O.3       1 <0>        -0.3268
     22 C16         6.3052    1.7942   -3.0018 C.3       1 <0>         0.0308
     23 O2          1.3796    2.4588   -6.8265 O.3       1 <0>        -0.3168
     24 C17         1.8760    3.1870   -7.9514 C.3       1 <0>         0.0268
     25 H1          1.5932    1.8644    0.3020 H         1 <0>         0.1073
     26 H2          0.3459    1.8759   -0.9678 H         1 <0>         0.1074
     27 H3         -0.1301    1.8674    0.7473 H         1 <0>         0.1053
     28 H4          0.8854   -2.6280   -2.0594 H         1 <0>         0.1933
     29 H5         -0.2018   -2.4766    5.4406 H         1 <0>         0.4459
     30 H6         -0.0784   -3.8945    4.5478 H         1 <0>         0.4334
     31 H7         -0.4080    1.7182    3.1377 H         1 <0>         0.4311
     32 H8          0.8670    1.8085    2.0474 H         1 <0>         0.4368
     33 H9          0.7040   -0.6270   -3.2836 H         1 <0>         0.0850
     34 H10         0.2845    0.9035   -2.4774 H         1 <0>         0.0852
     35 H11         2.9693    0.2796   -1.8613 H         1 <0>         0.4065
     36 H12         0.8252    1.1404   -4.6340 H         1 <0>         0.1364
     37 H13         3.9048    3.1442   -6.8145 H         1 <0>         0.1308
     38 H14         5.5112    2.6401   -5.0195 H         1 <0>         0.1328
     39 H15         6.9088    1.5057   -2.1412 H         1 <0>         0.0983
     40 H16         6.7241    1.3498   -3.9047 H         1 <0>         0.0552
     41 H17         6.3048    2.8800   -3.0977 H         1 <0>         0.0548
     42 H18         1.0695    3.3430   -8.6678 H         1 <0>         0.1026
     43 H19         2.2588    4.1520   -7.6193 H         1 <0>         0.0572
     44 H20         2.6783    2.6213   -8.4250 H         1 <0>         0.0574
     45 N6          0.2529   -2.8960    2.2921 N.ar      1 <0>        -0.5896
     46 H21         0.2439   -3.8956    2.3198 H         1 <0>         0.4614
@<TRIPOS>BOND
     1    1    2 1
     2    1   25 1
     3    1   26 1
     4    1   27 1
     5    2    7 ar
     6    2    3 ar
     7    3    4 ar
     8    3   13 1
     9    4    5 ar
    10    4   28 1
    11    5    6 ar
    12    6    7 ar
    13    6   45 ar
    14    7    8 ar
    15    8    9 ar
    16    8   12 1
    17    9   10 ar
    18   10   11 1
    19   10   45 ar
    20   11   29 1
    21   11   30 1
    22   12   31 1
    23   12   32 1
    24   13   14 1
    25   13   33 1
    26   13   34 1
    27   14   15 1
    28   14   35 1
    29   15   20 ar
    30   15   16 ar
    31   16   17 ar
    32   16   36 1
    33   17   18 ar
    34   17   23 1
    35   18   19 ar
    36   18   37 1
    37   19   20 ar
    38   19   38 1
    39   20   21 1
    40   21   22 1
    41   22   39 1
    42   22   40 1
    43   22   41 1
    44   23   24 1
    45   24   42 1
    46   24   43 1
    47   24   44 1
    48   45   46 1
@<TRIPOS>MOLECULE
ZINC03814949
   45    47     0     0     0
SMALL
USER_CHARGES

@<TRIPOS>ATOM
      1 C1         -0.2047    0.0038    1.0672 C.3       1 <0>        -0.1585
      2 C2         -0.2171    1.5104    1.0320 C.ar      1 <0>         0.0611
      3 C3          0.9309    2.2303    1.2368 C.ar      1 <0>        -0.2177
      4 C4          0.8931    3.6186    1.1988 C.ar      1 <0>         0.2103
      5 N1         -0.2227    4.2746    0.9694 N.ar      1 <0>        -0.4898
      6 C5         -1.3722    3.6318    0.7626 C.ar      1 <0>         0.4165
      7 C6         -1.4001    2.2154    0.7835 C.ar      1 <0>        -0.2823
      8 C7         -2.6346    1.5588    0.5544 C.ar      1 <0>         0.5246
      9 N2         -3.7080    2.3023    0.3263 N.ar      1 <0>        -0.6171
     10 C8         -3.6378    3.6302    0.3108 C.ar      1 <0>         0.6251
     11 N3         -2.5159    4.2907    0.5273 N.ar      1 <0>        -0.5914
     12 N4         -4.7919    4.3501    0.0673 N.pl3     1 <0>        -0.8104
     13 N5         -2.7173    0.1838    0.5689 N.pl3     1 <0>        -0.8447
     14 C9          2.2319    1.5175    1.5021 C.3       1 <0>         0.1770
     15 N6          2.7976    1.0462    0.2356 N.pl3     1 <0>        -0.7362
     16 C10         4.0096    0.3523    0.2274 C.ar      1 <0>         0.2870
     17 C11         4.6817    0.1139    1.4189 C.ar      1 <0>        -0.2637
     18 C12         5.8821   -0.5795    1.4104 C.ar      1 <0>         0.2078
     19 C13         6.4176   -1.0251    0.2111 C.ar      1 <0>        -0.3493
     20 C14         5.7496   -0.7829   -0.9800 C.ar      1 <0>         0.2078
     21 C15         4.5462   -0.0946   -0.9728 C.ar      1 <0>        -0.2617
     22 O1          6.2747   -1.2207   -2.1545 O.3       1 <0>        -0.3145
     23 C16         7.5175   -1.9228   -2.0878 C.3       1 <0>         0.0278
     24 O2          6.5369   -0.8182    2.5770 O.3       1 <0>        -0.3140
     25 C17         7.7712   -1.5335    2.4935 C.3       1 <0>         0.0277
     26 H1         -0.5220   -0.3393    2.0519 H         1 <0>         0.0878
     27 H2         -0.8871   -0.3829    0.3103 H         1 <0>         0.1005
     28 H3          0.8041   -0.3560    0.8647 H         1 <0>         0.0884
     29 H4          1.8050    4.1737    1.3618 H         1 <0>         0.1682
     30 H5         -5.6294    3.8859   -0.0877 H         1 <0>         0.4163
     31 H6         -4.7645    5.3196    0.0513 H         1 <0>         0.4190
     32 H7         -2.2352   -0.3240    1.2402 H         1 <0>         0.4187
     33 H8         -3.2575   -0.2766   -0.0922 H         1 <0>         0.4108
     34 H9          2.9314    2.2037    1.9794 H         1 <0>         0.0764
     35 H10         2.0525    0.6663    2.1589 H         1 <0>         0.0747
     36 H11         2.3304    1.2160   -0.5974 H         1 <0>         0.4034
     37 H12         4.2671    0.4647    2.3524 H         1 <0>         0.1310
     38 H13         7.3550   -1.5614    0.2047 H         1 <0>         0.1303
     39 H14         4.0260    0.0937   -1.9004 H         1 <0>         0.1285
     40 H15         7.8237   -2.2157   -3.0921 H         1 <0>         0.1010
     41 H16         8.2775   -1.2754   -1.6505 H         1 <0>         0.0558
     42 H17         7.3992   -2.8130   -1.4699 H         1 <0>         0.0555
     43 H18         7.5938   -2.5139    2.0514 H         1 <0>         0.0554
     44 H19         8.4727   -0.9765    1.8726 H         1 <0>         0.0558
     45 H20         8.1885   -1.6559    3.4930 H         1 <0>         0.1011
@<TRIPOS>BOND
     1    1    2 1
     2    1   26 1
     3    1   27 1
     4    1   28 1
     5    2    7 ar
     6    2    3 ar
     7    3    4 ar
     8    3   14 1
     9    4    5 ar
    10    4   29 1
    11    5    6 ar
    12    6   11 ar
    13    6    7 ar
    14    7    8 ar
    15    8    9 ar
    16    8   13 1
    17    9   10 ar
    18   10   11 ar
    19   10   12 1
    20   12   30 1
    21   12   31 1
    22   13   32 1
    23   13   33 1
    24   14   15 1
    25   14   34 1
    26   14   35 1
    27   15   16 1
    28   15   36 1
    29   16   21 ar
    30   16   17 ar
    31   17   18 ar
    32   17   37 1
    33   18   19 ar
    34   18   24 1
    35   19   20 ar
    36   19   38 1
    37   20   21 ar
    38   20   22 1
    39   21   39 1
    40   22   23 1
    41   23   40 1
    42   23   41 1
    43   23   42 1
    44   24   25 1
    45   25   43 1
    46   25   44 1
    47   25   45 1
@<TRIPOS>MOLECULE
ZINC03814949
   46    48     0     0     0
SMALL
USER_CHARGES

@<TRIPOS>ATOM
      1 C1         -0.2047    0.0038    1.0672 C.3       1 <0>        -0.1716
      2 C2         -0.2171    1.5104    1.0320 C.ar      1 <0>         0.0784
      3 C3          0.9309    2.2303    1.2368 C.ar      1 <0>        -0.1744
      4 C4          0.8931    3.6186    1.1988 C.ar      1 <0>         0.2375
      5 N1         -0.2227    4.2746    0.9694 N.ar      1 <0>        -0.5003
      6 C5         -1.3722    3.6318    0.7626 C.ar      1 <0>         0.4067
      7 C6         -1.4001    2.2154    0.7835 C.ar      1 <0>        -0.2344
      8 C7         -2.6346    1.5588    0.5544 C.ar      1 <0>         0.5807
      9 N2         -3.7080    2.3023    0.3263 N.ar      1 <0>        -0.5717
     10 C8         -3.6378    3.6302    0.3108 C.ar      1 <0>         0.6939
     11 N3         -4.7919    4.3501    0.0673 N.pl3     1 <0>        -0.7779
     12 N4         -2.7173    0.1838    0.5689 N.pl3     1 <0>        -0.8010
     13 C9          2.2319    1.5175    1.5021 C.3       1 <0>         0.1669
     14 N5          2.7976    1.0462    0.2356 N.pl3     1 <0>        -0.7436
     15 C10         4.0096    0.3523    0.2274 C.ar      1 <0>         0.2787
     16 C11         4.6817    0.1139    1.4189 C.ar      1 <0>        -0.2628
     17 C12         5.8821   -0.5795    1.4104 C.ar      1 <0>         0.2105
     18 C13         6.4176   -1.0251    0.2111 C.ar      1 <0>        -0.3423
     19 C14         5.7496   -0.7829   -0.9800 C.ar      1 <0>         0.2109
     20 C15         4.5462   -0.0946   -0.9728 C.ar      1 <0>        -0.2582
     21 O1          6.2747   -1.2207   -2.1545 O.3       1 <0>        -0.3130
     22 C16         7.5175   -1.9228   -2.0878 C.3       1 <0>         0.0259
     23 O2          6.5369   -0.8182    2.5770 O.3       1 <0>        -0.3130
     24 C17         7.7712   -1.5335    2.4935 C.3       1 <0>         0.0258
     25 H1         -0.5220   -0.3393    2.0519 H         1 <0>         0.1081
     26 H2         -0.8871   -0.3829    0.3103 H         1 <0>         0.1068
     27 H3          0.8041   -0.3560    0.8647 H         1 <0>         0.1092
     28 H4          1.8050    4.1737    1.3618 H         1 <0>         0.1936
     29 H5         -5.6294    3.8859   -0.0877 H         1 <0>         0.4461
     30 H6         -4.7645    5.3196    0.0513 H         1 <0>         0.4335
     31 H7         -2.2352   -0.3240    1.2402 H         1 <0>         0.4368
     32 H8         -3.2575   -0.2766   -0.0922 H         1 <0>         0.4313
     33 H9          2.9314    2.2037    1.9794 H         1 <0>         0.0874
     34 H10         2.0525    0.6663    2.1589 H         1 <0>         0.0867
     35 H11         2.3304    1.2160   -0.5974 H         1 <0>         0.4027
     36 H12         4.2671    0.4647    2.3524 H         1 <0>         0.1305
     37 H13         7.3550   -1.5614    0.2047 H         1 <0>         0.1341
     38 H14         4.0260    0.0937   -1.9004 H         1 <0>         0.1292
     39 H15         7.8237   -2.2157   -3.0921 H         1 <0>         0.1045
     40 H16         8.2775   -1.2754   -1.6505 H         1 <0>         0.0580
     41 H17         7.3992   -2.8130   -1.4699 H         1 <0>         0.0578
     42 H18         7.5938   -2.5139    2.0514 H         1 <0>         0.0577
     43 H19         8.4727   -0.9765    1.8726 H         1 <0>         0.0580
     44 H20         8.1885   -1.6559    3.4930 H         1 <0>         0.1045
     45 N6         -2.5164    4.3628    0.5264 N.ar      1 <0>        -0.5897
     46 H21        -2.5602    5.3617    0.5067 H         1 <0>         0.4616
@<TRIPOS>BOND
     1    1    2 1
     2    1   25 1
     3    1   26 1
     4    1   27 1
     5    2    7 ar
     6    2    3 ar
     7    3    4 ar
     8    3   13 1
     9    4    5 ar
    10    4   28 1
    11    5    6 ar
    12    6    7 ar
    13    6   45 ar
    14    7    8 ar
    15    8    9 ar
    16    8   12 1
    17    9   10 ar
    18   10   11 1
    19   10   45 ar
    20   11   29 1
    21   11   30 1
    22   12   31 1
    23   12   32 1
    24   13   14 1
    25   13   33 1
    26   13   34 1
    27   14   15 1
    28   14   35 1
    29   15   20 ar
    30   15   16 ar
    31   16   17 ar
    32   16   36 1
    33   17   18 ar
    34   17   23 1
    35   18   19 ar
    36   18   37 1
    37   19   20 ar
    38   19   21 1
    39   20   38 1
    40   21   22 1
    41   22   39 1
    42   22   40 1
    43   22   41 1
    44   23   24 1
    45   24   42 1
    46   24   43 1
    47   24   44 1
    48   45   46 1
@<TRIPOS>MOLECULE
ZINC03814950
   45    47     0     0     0
SMALL
USER_CHARGES

@<TRIPOS>ATOM
      1 C1          0.6018    1.5059    0.0250 C.3       1 <0>        -0.1532
      2 C2          0.5970   -0.0011    0.0161 C.ar      1 <0>         0.0600
      3 C3          0.7585   -0.7002   -1.1515 C.ar      1 <0>        -0.2144
      4 C4          0.7532   -2.0894   -1.1326 C.ar      1 <0>         0.2100
      5 N1          0.5888   -2.7658   -0.0176 N.ar      1 <0>        -0.4902
      6 C5          0.4225   -2.1439    1.1498 C.ar      1 <0>         0.4157
      7 C6          0.4215   -0.7279    1.1991 C.ar      1 <0>        -0.2819
      8 C7          0.2422   -0.0940    2.4535 C.ar      1 <0>         0.5245
      9 N2          0.0832   -0.8573    3.5253 N.ar      1 <0>        -0.6175
     10 C8          0.0905   -2.1842    3.4357 C.ar      1 <0>         0.6246
     11 N3          0.2532   -2.8238    2.2928 N.ar      1 <0>        -0.5915
     12 N4         -0.0802   -2.9254    4.5893 N.pl3     1 <0>        -0.8108
     13 N5          0.2328    1.2797    2.5563 N.pl3     1 <0>        -0.8451
     14 C9          0.9447    0.0365   -2.4530 C.3       1 <0>         0.1812
     15 N6          2.3364    0.4790   -2.5689 N.pl3     1 <0>        -0.7424
     16 C10         2.7538    1.1907   -3.7028 C.ar      1 <0>         0.1622
     17 C11         1.8496    1.4761   -4.7148 C.ar      1 <0>        -0.1280
     18 C12         2.2608    2.1785   -5.8321 C.ar      1 <0>        -0.1934
     19 C13         3.5777    2.5988   -5.9438 C.ar      1 <0>         0.1098
     20 C14         4.4855    2.3157   -4.9343 C.ar      1 <0>        -0.1957
     21 C15         4.0754    1.6167   -3.8111 C.ar      1 <0>         0.0954
     22 O1          4.9628    1.3431   -2.8174 O.3       1 <0>        -0.3175
     23 C16         6.3012    1.8107   -2.9961 C.3       1 <0>         0.0295
     24 O2          3.9792    3.2896   -7.0443 O.3       1 <0>        -0.3208
     25 C17         2.9919    3.5467   -8.0449 C.3       1 <0>         0.0292
     26 H1          1.5932    1.8644    0.3020 H         1 <0>         0.0871
     27 H2          0.3459    1.8759   -0.9678 H         1 <0>         0.0858
     28 H3         -0.1301    1.8674    0.7473 H         1 <0>         0.0983
     29 H4          0.8847   -2.6280   -2.0595 H         1 <0>         0.1674
     30 H5         -0.2018   -2.4766    5.4406 H         1 <0>         0.4161
     31 H6         -0.0784   -3.8945    4.5478 H         1 <0>         0.4188
     32 H7         -0.4080    1.7182    3.1377 H         1 <0>         0.4105
     33 H8          0.8670    1.8085    2.0474 H         1 <0>         0.4186
     34 H9          0.7040   -0.6270   -3.2836 H         1 <0>         0.0699
     35 H10         0.2845    0.9035   -2.4774 H         1 <0>         0.0698
     36 H11         2.9693    0.2796   -1.8613 H         1 <0>         0.4040
     37 H12         0.8236    1.1497   -4.6299 H         1 <0>         0.1315
     38 H13         1.5554    2.4006   -6.6192 H         1 <0>         0.1286
     39 H14         5.5106    2.6441   -5.0218 H         1 <0>         0.1355
     40 H15         6.2968    2.8963   -3.0940 H         1 <0>         0.0557
     41 H16         6.9037    1.5263   -2.1334 H         1 <0>         0.0991
     42 H17         6.7242    1.3664   -3.8970 H         1 <0>         0.0562
     43 H18         2.1798    4.1311   -7.6123 H         1 <0>         0.0544
     44 H19         3.4432    4.1037   -8.8659 H         1 <0>         0.0983
     45 H20         2.5997    2.6012   -8.4196 H         1 <0>         0.0547
@<TRIPOS>BOND
     1    1    2 1
     2    1   26 1
     3    1   27 1
     4    1   28 1
     5    2    7 ar
     6    2    3 ar
     7    3    4 ar
     8    3   14 1
     9    4    5 ar
    10    4   29 1
    11    5    6 ar
    12    6   11 ar
    13    6    7 ar
    14    7    8 ar
    15    8    9 ar
    16    8   13 1
    17    9   10 ar
    18   10   11 ar
    19   10   12 1
    20   12   30 1
    21   12   31 1
    22   13   32 1
    23   13   33 1
    24   14   15 1
    25   14   34 1
    26   14   35 1
    27   15   16 1
    28   15   36 1
    29   16   21 ar
    30   16   17 ar
    31   17   18 ar
    32   17   37 1
    33   18   19 ar
    34   18   38 1
    35   19   20 ar
    36   19   24 1
    37   20   21 ar
    38   20   39 1
    39   21   22 1
    40   22   23 1
    41   23   40 1
    42   23   41 1
    43   23   42 1
    44   24   25 1
    45   25   43 1
    46   25   44 1
    47   25   45 1
@<TRIPOS>MOLECULE
ZINC03814950
   46    48     0     0     0
SMALL
USER_CHARGES

@<TRIPOS>ATOM
      1 C1          0.6018    1.5059    0.0250 C.3       1 <0>        -0.1665
      2 C2          0.5970   -0.0011    0.0161 C.ar      1 <0>         0.0775
      3 C3          0.7585   -0.7002   -1.1515 C.ar      1 <0>        -0.1714
      4 C4          0.7532   -2.0894   -1.1326 C.ar      1 <0>         0.2370
      5 N1          0.5888   -2.7658   -0.0176 N.ar      1 <0>        -0.5007
      6 C5          0.4225   -2.1439    1.1498 C.ar      1 <0>         0.4055
      7 C6          0.4215   -0.7279    1.1991 C.ar      1 <0>        -0.2341
      8 C7          0.2422   -0.0940    2.4535 C.ar      1 <0>         0.5808
      9 N2          0.0832   -0.8573    3.5253 N.ar      1 <0>        -0.5722
     10 C8          0.0905   -2.1842    3.4357 C.ar      1 <0>         0.6938
     11 N3         -0.0802   -2.9254    4.5893 N.pl3     1 <0>        -0.7784
     12 N4          0.2328    1.2797    2.5563 N.pl3     1 <0>        -0.8012
     13 C9          0.9447    0.0365   -2.4530 C.3       1 <0>         0.1714
     14 N5          2.3364    0.4790   -2.5689 N.pl3     1 <0>        -0.7484
     15 C10         2.7538    1.1907   -3.7028 C.ar      1 <0>         0.1479
     16 C11         1.8496    1.4761   -4.7148 C.ar      1 <0>        -0.1205
     17 C12         2.2608    2.1785   -5.8321 C.ar      1 <0>        -0.1970
     18 C13         3.5777    2.5988   -5.9438 C.ar      1 <0>         0.1237
     19 C14         4.4855    2.3157   -4.9343 C.ar      1 <0>        -0.1979
     20 C15         4.0754    1.6167   -3.8111 C.ar      1 <0>         0.1033
     21 O1          4.9628    1.3431   -2.8174 O.3       1 <0>        -0.3210
     22 C16         6.3012    1.8107   -2.9961 C.3       1 <0>         0.0279
     23 O2          3.9792    3.2896   -7.0443 O.3       1 <0>        -0.3178
     24 C17         2.9919    3.5467   -8.0449 C.3       1 <0>         0.0275
     25 H1          1.5932    1.8644    0.3020 H         1 <0>         0.1071
     26 H2          0.3459    1.8759   -0.9678 H         1 <0>         0.1070
     27 H3         -0.1301    1.8674    0.7473 H         1 <0>         0.1047
     28 H4          0.8847   -2.6280   -2.0595 H         1 <0>         0.1928
     29 H5         -0.2018   -2.4766    5.4406 H         1 <0>         0.4459
     30 H6         -0.0784   -3.8945    4.5478 H         1 <0>         0.4333
     31 H7         -0.4080    1.7182    3.1377 H         1 <0>         0.4310
     32 H8          0.8670    1.8085    2.0474 H         1 <0>         0.4368
     33 H9          0.7040   -0.6270   -3.2836 H         1 <0>         0.0809
     34 H10         0.2845    0.9035   -2.4774 H         1 <0>         0.0812
     35 H11         2.9693    0.2796   -1.8613 H         1 <0>         0.4033
     36 H12         0.8236    1.1497   -4.6299 H         1 <0>         0.1310
     37 H13         1.5554    2.4006   -6.6192 H         1 <0>         0.1320
     38 H14         5.5106    2.6441   -5.0218 H         1 <0>         0.1388
     39 H15         6.2968    2.8963   -3.0940 H         1 <0>         0.0584
     40 H16         6.9037    1.5263   -2.1334 H         1 <0>         0.1006
     41 H17         6.7242    1.3664   -3.8970 H         1 <0>         0.0588
     42 H18         2.1798    4.1311   -7.6123 H         1 <0>         0.0562
     43 H19         3.4432    4.1037   -8.8659 H         1 <0>         0.1022
     44 H20         2.5997    2.6012   -8.4196 H         1 <0>         0.0565
     45 N6          0.2529   -2.8960    2.2921 N.ar      1 <0>        -0.5896
     46 H21         0.2439   -3.8956    2.3198 H         1 <0>         0.4613
@<TRIPOS>BOND
     1    1    2 1
     2    1   25 1
     3    1   26 1
     4    1   27 1
     5    2    7 ar
     6    2    3 ar
     7    3    4 ar
     8    3   13 1
     9    4    5 ar
    10    4   28 1
    11    5    6 ar
    12    6    7 ar
    13    6   45 ar
    14    7    8 ar
    15    8    9 ar
    16    8   12 1
    17    9   10 ar
    18   10   11 1
    19   10   45 ar
    20   11   29 1
    21   11   30 1
    22   12   31 1
    23   12   32 1
    24   13   14 1
    25   13   33 1
    26   13   34 1
    27   14   15 1
    28   14   35 1
    29   15   20 ar
    30   15   16 ar
    31   16   17 ar
    32   16   36 1
    33   17   18 ar
    34   17   37 1
    35   18   19 ar
    36   18   23 1
    37   19   20 ar
    38   19   38 1
    39   20   21 1
    40   21   22 1
    41   22   39 1
    42   22   40 1
    43   22   41 1
    44   23   24 1
    45   24   42 1
    46   24   43 1
    47   24   44 1
    48   45   46 1
@<TRIPOS>MOLECULE
ZINC03814951
   45    47     0     0     0
SMALL
USER_CHARGES

@<TRIPOS>ATOM
      1 C1         -0.0700   -0.0033    0.6150 C.3       1 <0>        -0.1539
      2 C2         -0.0875    1.5035    0.5983 C.ar      1 <0>         0.0598
      3 C3         -1.2455    2.1982    0.8324 C.ar      1 <0>        -0.2169
      4 C4         -1.2346    3.5874    0.8144 C.ar      1 <0>         0.2097
      5 N1         -0.1370    4.2679    0.5695 N.ar      1 <0>        -0.4896
      6 C5          1.0200    3.6503    0.3300 C.ar      1 <0>         0.4162
      7 C6          1.0769    2.2347    0.3375 C.ar      1 <0>        -0.2825
      8 C7          2.3199    1.6054    0.0792 C.ar      1 <0>         0.5246
      9 N2          3.3743    2.3726   -0.1580 N.ar      1 <0>        -0.6171
     10 C8          3.2781    3.6991   -0.1557 C.ar      1 <0>         0.6252
     11 N3          2.1452    4.3344    0.0784 N.ar      1 <0>        -0.5915
     12 N4          4.4134    4.4445   -0.4100 N.pl3     1 <0>        -0.8101
     13 N5          2.4294    0.2322    0.0742 N.pl3     1 <0>        -0.8449
     14 C9         -2.5273    1.4568    1.1120 C.3       1 <0>         0.1796
     15 N6         -2.5467    1.0258    2.5121 N.pl3     1 <0>        -0.7437
     16 C10        -3.6436    0.3136    3.0097 C.ar      1 <0>         0.2219
     17 C11        -4.7162    0.0204    2.1780 C.ar      1 <0>        -0.1951
     18 C12        -5.7980   -0.6876    2.6667 C.ar      1 <0>        -0.1226
     19 C13        -5.8192   -1.0970    3.9900 C.ar      1 <0>         0.0425
     20 C14        -4.7486   -0.7998    4.8274 C.ar      1 <0>         0.1470
     21 C15        -3.6620   -0.0948    4.3364 C.ar      1 <0>        -0.2480
     22 O1         -4.7687   -1.2013    6.1265 O.3       1 <0>        -0.3046
     23 C16        -3.6354   -0.8618    6.9281 C.3       1 <0>         0.0267
     24 O2         -6.8875   -1.7895    4.4710 O.3       1 <0>        -0.3112
     25 C17        -7.9510   -2.0596    3.5555 C.3       1 <0>         0.0284
     26 H1          0.2751   -0.3519    1.5884 H         1 <0>         0.0865
     27 H2         -1.0758   -0.3804    0.4297 H         1 <0>         0.0862
     28 H3          0.6032   -0.3675   -0.1610 H         1 <0>         0.0992
     29 H4         -2.1533    4.1226    1.0043 H         1 <0>         0.1677
     30 H5          5.2570    3.9988   -0.5850 H         1 <0>         0.4164
     31 H6          4.3668    5.4133   -0.4134 H         1 <0>         0.4191
     32 H7          2.9687   -0.2089   -0.6007 H         1 <0>         0.4109
     33 H8          1.9673   -0.2936    0.7456 H         1 <0>         0.4184
     34 H9         -3.3760    2.1140    0.9224 H         1 <0>         0.0726
     35 H10        -2.5914    0.5840    0.4622 H         1 <0>         0.0725
     36 H11        -1.7992    1.2340    3.0941 H         1 <0>         0.3985
     37 H12        -4.7035    0.3426    1.1473 H         1 <0>         0.1257
     38 H13        -6.6295   -0.9183    2.0173 H         1 <0>         0.1341
     39 H14        -2.8302    0.1371    4.9850 H         1 <0>         0.1320
     40 H15        -3.7796   -1.2405    7.9400 H         1 <0>         0.1001
     41 H16        -2.7390   -1.3080    6.4975 H         1 <0>         0.0540
     42 H17        -3.5233    0.2220    6.9583 H         1 <0>         0.0547
     43 H18        -8.3559   -1.1193    3.1814 H         1 <0>         0.0520
     44 H19        -7.5713   -2.6493    2.7212 H         1 <0>         0.0517
     45 H20        -8.7371   -2.6162    4.0659 H         1 <0>         0.0976
@<TRIPOS>BOND
     1    1    2 1
     2    1   26 1
     3    1   27 1
     4    1   28 1
     5    2    7 ar
     6    2    3 ar
     7    3    4 ar
     8    3   14 1
     9    4    5 ar
    10    4   29 1
    11    5    6 ar
    12    6   11 ar
    13    6    7 ar
    14    7    8 ar
    15    8    9 ar
    16    8   13 1
    17    9   10 ar
    18   10   11 ar
    19   10   12 1
    20   12   30 1
    21   12   31 1
    22   13   32 1
    23   13   33 1
    24   14   15 1
    25   14   34 1
    26   14   35 1
    27   15   16 1
    28   15   36 1
    29   16   21 ar
    30   16   17 ar
    31   17   18 ar
    32   17   37 1
    33   18   19 ar
    34   18   38 1
    35   19   20 ar
    36   19   24 1
    37   20   21 ar
    38   20   22 1
    39   21   39 1
    40   22   23 1
    41   23   40 1
    42   23   41 1
    43   23   42 1
    44   24   25 1
    45   25   43 1
    46   25   44 1
    47   25   45 1
@<TRIPOS>MOLECULE
ZINC03814951
   46    48     0     0     0
SMALL
USER_CHARGES

@<TRIPOS>ATOM
      1 C1         -0.0700   -0.0033    0.6150 C.3       1 <0>        -0.1672
      2 C2         -0.0875    1.5035    0.5983 C.ar      1 <0>         0.0770
      3 C3         -1.2455    2.1982    0.8324 C.ar      1 <0>        -0.1737
      4 C4         -1.2346    3.5874    0.8144 C.ar      1 <0>         0.2370
      5 N1         -0.1370    4.2679    0.5695 N.ar      1 <0>        -0.5003
      6 C5          1.0200    3.6503    0.3300 C.ar      1 <0>         0.4063
      7 C6          1.0769    2.2347    0.3375 C.ar      1 <0>        -0.2343
      8 C7          2.3199    1.6054    0.0792 C.ar      1 <0>         0.5806
      9 N2          3.3743    2.3726   -0.1580 N.ar      1 <0>        -0.5717
     10 C8          3.2781    3.6991   -0.1557 C.ar      1 <0>         0.6940
     11 N3          4.4134    4.4445   -0.4100 N.pl3     1 <0>        -0.7776
     12 N4          2.4294    0.2322    0.0742 N.pl3     1 <0>        -0.8010
     13 C9         -2.5273    1.4568    1.1120 C.3       1 <0>         0.1698
     14 N5         -2.5467    1.0258    2.5121 N.pl3     1 <0>        -0.7500
     15 C10        -3.6436    0.3136    3.0097 C.ar      1 <0>         0.2099
     16 C11        -4.7162    0.0204    2.1780 C.ar      1 <0>        -0.1907
     17 C12        -5.7980   -0.6876    2.6667 C.ar      1 <0>        -0.1256
     18 C13        -5.8192   -1.0970    3.9900 C.ar      1 <0>         0.0553
     19 C14        -4.7486   -0.7998    4.8274 C.ar      1 <0>         0.1472
     20 C15        -3.6620   -0.0948    4.3364 C.ar      1 <0>        -0.2419
     21 O1         -4.7687   -1.2013    6.1265 O.3       1 <0>        -0.3013
     22 C16        -3.6354   -0.8618    6.9281 C.3       1 <0>         0.0265
     23 O2         -6.8875   -1.7895    4.4710 O.3       1 <0>        -0.3084
     24 C17        -7.9510   -2.0596    3.5555 C.3       1 <0>         0.0269
     25 H1          0.2751   -0.3519    1.5884 H         1 <0>         0.1065
     26 H2         -1.0758   -0.3804    0.4297 H         1 <0>         0.1075
     27 H3          0.6032   -0.3675   -0.1610 H         1 <0>         0.1055
     28 H4         -2.1533    4.1226    1.0043 H         1 <0>         0.1931
     29 H5          5.2570    3.9988   -0.5850 H         1 <0>         0.4462
     30 H6          4.3668    5.4133   -0.4134 H         1 <0>         0.4336
     31 H7          2.9687   -0.2089   -0.6007 H         1 <0>         0.4314
     32 H8          1.9673   -0.2936    0.7456 H         1 <0>         0.4366
     33 H9         -3.3760    2.1140    0.9224 H         1 <0>         0.0837
     34 H10        -2.5914    0.5840    0.4622 H         1 <0>         0.0840
     35 H11        -1.7992    1.2340    3.0941 H         1 <0>         0.3978
     36 H12        -4.7035    0.3426    1.1473 H         1 <0>         0.1251
     37 H13        -6.6295   -0.9183    2.0173 H         1 <0>         0.1372
     38 H14        -2.8302    0.1371    4.9850 H         1 <0>         0.1327
     39 H15        -3.7796   -1.2405    7.9400 H         1 <0>         0.1032
     40 H16        -2.7390   -1.3080    6.4975 H         1 <0>         0.0539
     41 H17        -3.5233    0.2220    6.9583 H         1 <0>         0.0546
     42 H18        -8.3559   -1.1193    3.1814 H         1 <0>         0.0538
     43 H19        -7.5713   -2.6493    2.7212 H         1 <0>         0.0535
     44 H20        -8.7371   -2.6162    4.0659 H         1 <0>         0.1015
     45 N6          2.1441    4.4066    0.0776 N.ar      1 <0>        -0.5898
     46 H21         2.1655    5.4062    0.0585 H         1 <0>         0.4616
@<TRIPOS>BOND
     1    1    2 1
     2    1   25 1
     3    1   26 1
     4    1   27 1
     5    2    7 ar
     6    2    3 ar
     7    3    4 ar
     8    3   13 1
     9    4    5 ar
    10    4   28 1
    11    5    6 ar
    12    6    7 ar
    13    6   45 ar
    14    7    8 ar
    15    8    9 ar
    16    8   12 1
    17    9   10 ar
    18   10   11 1
    19   10   45 ar
    20   11   29 1
    21   11   30 1
    22   12   31 1
    23   12   32 1
    24   13   14 1
    25   13   33 1
    26   13   34 1
    27   14   15 1
    28   14   35 1
    29   15   20 ar
    30   15   16 ar
    31   16   17 ar
    32   16   36 1
    33   17   18 ar
    34   17   37 1
    35   18   19 ar
    36   18   23 1
    37   19   20 ar
    38   19   21 1
    39   20   38 1
    40   21   22 1
    41   22   39 1
    42   22   40 1
    43   22   41 1
    44   23   24 1
    45   24   42 1
    46   24   43 1
    47   24   44 1
    48   45   46 1
@<TRIPOS>MOLECULE
ZINC03814952
   51    53     0     0     0
SMALL
USER_CHARGES

@<TRIPOS>ATOM
      1 C1          0.7443    3.4018   -8.9591 C.3       1 <0>        -0.1534
      2 C2          1.8761    3.1840   -7.9528 C.3       1 <0>         0.0562
      3 O1          1.3795    2.4566   -6.8275 O.3       1 <0>        -0.3164
      4 C3          2.2644    2.1775   -5.8335 C.ar      1 <0>         0.1460
      5 C4          3.5824    2.5960   -5.9414 C.ar      1 <0>        -0.2294
      6 C5          4.4851    2.3131   -4.9329 C.ar      1 <0>        -0.1228
      7 C6          4.0754    1.6108   -3.8120 C.ar      1 <0>         0.0229
      8 C7          2.7524    1.1895   -3.7003 C.ar      1 <0>         0.2345
      9 C8          1.8499    1.4703   -4.7154 C.ar      1 <0>        -0.2025
     10 N1          2.3360    0.4792   -2.5687 N.pl3     1 <0>        -0.7345
     11 C9          0.9442    0.0367   -2.4527 C.3       1 <0>         0.1772
     12 C10         0.7581   -0.7000   -1.1513 C.ar      1 <0>        -0.2153
     13 C11         0.7545   -2.0896   -1.1322 C.ar      1 <0>         0.2108
     14 N2          0.5894   -2.7660   -0.0176 N.ar      1 <0>        -0.4898
     15 C12         0.4223   -2.1441    1.1501 C.ar      1 <0>         0.4161
     16 C13         0.4214   -0.7281    1.1994 C.ar      1 <0>        -0.2820
     17 C14         0.5967   -0.0010    0.0160 C.ar      1 <0>         0.0606
     18 C15         0.6016    1.5059    0.0249 C.3       1 <0>        -0.1540
     19 C16         0.2422   -0.0944    2.4535 C.ar      1 <0>         0.5246
     20 N3          0.0833   -0.8578    3.5256 N.ar      1 <0>        -0.6176
     21 C17         0.0906   -2.1844    3.4359 C.ar      1 <0>         0.6247
     22 N4          0.2532   -2.8240    2.2927 N.ar      1 <0>        -0.5913
     23 N5         -0.0800   -2.9256    4.5895 N.pl3     1 <0>        -0.8108
     24 N6          0.2328    1.2794    2.5563 N.pl3     1 <0>        -0.8450
     25 O2          4.9648    1.3320   -2.8203 O.3       1 <0>        -0.3218
     26 C18         6.3046    1.7947   -3.0016 C.3       1 <0>         0.0602
     27 C19         7.1517    1.3902   -1.7934 C.3       1 <0>        -0.1525
     28 H1          0.3620    2.4363   -9.2905 H         1 <0>         0.0664
     29 H2         -0.0584    3.9676   -8.4862 H         1 <0>         0.0660
     30 H3          1.1231    3.9566   -9.8175 H         1 <0>         0.0780
     31 H4          2.2585    4.1495   -7.6215 H         1 <0>         0.0611
     32 H5          2.6788    2.6182   -8.4257 H         1 <0>         0.0614
     33 H6          3.9043    3.1436   -6.8149 H         1 <0>         0.1256
     34 H7          5.5108    2.6398   -5.0197 H         1 <0>         0.1283
     35 H8          0.8245    1.1410   -4.6336 H         1 <0>         0.1362
     36 H9          2.9688    0.2798   -1.8612 H         1 <0>         0.4071
     37 H10         0.7034   -0.6267   -3.2834 H         1 <0>         0.0738
     38 H11         0.2841    0.9038   -2.4770 H         1 <0>         0.0736
     39 H12         0.8873   -2.6282   -2.0588 H         1 <0>         0.1678
     40 H13         1.5930    1.8644    0.3018 H         1 <0>         0.0871
     41 H14         0.3455    1.8759   -0.9678 H         1 <0>         0.0862
     42 H15        -0.1303    1.8673    0.7473 H         1 <0>         0.0988
     43 H16        -0.2015   -2.4769    5.4409 H         1 <0>         0.4161
     44 H17        -0.0781   -3.8947    4.5480 H         1 <0>         0.4188
     45 H18        -0.4080    1.7178    3.1376 H         1 <0>         0.4105
     46 H19         0.8670    1.8081    2.0473 H         1 <0>         0.4186
     47 H20         6.7236    1.3499   -3.9043 H         1 <0>         0.0587
     48 H21         6.3042    2.8804   -3.0980 H         1 <0>         0.0583
     49 H22         7.1521    0.3045   -1.6971 H         1 <0>         0.0653
     50 H23         8.1737    1.7431   -1.9317 H         1 <0>         0.0775
     51 H24         6.7328    1.8349   -0.8907 H         1 <0>         0.0643
@<TRIPOS>BOND
     1    1    2 1
     2    1   28 1
     3    1   29 1
     4    1   30 1
     5    2    3 1
     6    2   31 1
     7    2   32 1
     8    3    4 1
     9    4    9 ar
    10    4    5 ar
    11    5    6 ar
    12    5   33 1
    13    6    7 ar
    14    6   34 1
    15    7    8 ar
    16    7   25 1
    17    8    9 ar
    18    8   10 1
    19    9   35 1
    20   10   11 1
    21   10   36 1
    22   11   12 1
    23   11   37 1
    24   11   38 1
    25   12   17 ar
    26   12   13 ar
    27   13   14 ar
    28   13   39 1
    29   14   15 ar
    30   15   22 ar
    31   15   16 ar
    32   16   17 ar
    33   16   19 ar
    34   17   18 1
    35   18   40 1
    36   18   41 1
    37   18   42 1
    38   19   20 ar
    39   19   24 1
    40   20   21 ar
    41   21   22 ar
    42   21   23 1
    43   23   43 1
    44   23   44 1
    45   24   45 1
    46   24   46 1
    47   25   26 1
    48   26   27 1
    49   26   47 1
    50   26   48 1
    51   27   49 1
    52   27   50 1
    53   27   51 1
@<TRIPOS>MOLECULE
ZINC03814952
   52    54     0     0     0
SMALL
USER_CHARGES

@<TRIPOS>ATOM
      1 C1          0.7443    3.4018   -8.9591 C.3       1 <0>        -0.1541
      2 C2          1.8761    3.1840   -7.9528 C.3       1 <0>         0.0554
      3 O1          1.3795    2.4566   -6.8275 O.3       1 <0>        -0.3157
      4 C3          2.2644    2.1775   -5.8335 C.ar      1 <0>         0.1466
      5 C4          3.5824    2.5960   -5.9414 C.ar      1 <0>        -0.2189
      6 C5          4.4851    2.3131   -4.9329 C.ar      1 <0>        -0.1212
      7 C6          4.0754    1.6108   -3.8120 C.ar      1 <0>         0.0277
      8 C7          2.7524    1.1895   -3.7003 C.ar      1 <0>         0.2238
      9 C8          1.8499    1.4703   -4.7154 C.ar      1 <0>        -0.1981
     10 N1          2.3360    0.4792   -2.5687 N.pl3     1 <0>        -0.7417
     11 C9          0.9442    0.0367   -2.4527 C.3       1 <0>         0.1674
     12 C10         0.7581   -0.7000   -1.1513 C.ar      1 <0>        -0.1723
     13 C11         0.7545   -2.0896   -1.1322 C.ar      1 <0>         0.2382
     14 N2          0.5894   -2.7660   -0.0176 N.ar      1 <0>        -0.5011
     15 C12         0.4223   -2.1441    1.1501 C.ar      1 <0>         0.3990
     16 C13         0.4214   -0.7281    1.1994 C.ar      1 <0>        -0.2350
     17 C14         0.5967   -0.0010    0.0160 C.ar      1 <0>         0.0779
     18 C15         0.6016    1.5059    0.0249 C.3       1 <0>        -0.1674
     19 C16         0.2422   -0.0944    2.4535 C.ar      1 <0>         0.5807
     20 N3          0.0833   -0.8578    3.5256 N.ar      1 <0>        -0.5708
     21 C17         0.0906   -2.1844    3.4359 C.ar      1 <0>         0.7012
     22 N4         -0.0800   -2.9256    4.5895 N.pl3     1 <0>        -0.7780
     23 N5          0.2328    1.2794    2.5563 N.pl3     1 <0>        -0.8012
     24 O2          4.9648    1.3320   -2.8203 O.3       1 <0>        -0.3252
     25 C18         6.3046    1.7947   -3.0016 C.3       1 <0>         0.0586
     26 C19         7.1517    1.3902   -1.7934 C.3       1 <0>        -0.1518
     27 H1          0.3620    2.4363   -9.2905 H         1 <0>         0.0670
     28 H2         -0.0584    3.9676   -8.4862 H         1 <0>         0.0666
     29 H3          1.1231    3.9566   -9.8175 H         1 <0>         0.0808
     30 H4          2.2585    4.1495   -7.6215 H         1 <0>         0.0632
     31 H5          2.6788    2.6182   -8.4257 H         1 <0>         0.0634
     32 H6          3.9043    3.1436   -6.8149 H         1 <0>         0.1298
     33 H7          5.5108    2.6398   -5.0197 H         1 <0>         0.1318
     34 H8          0.8245    1.1410   -4.6336 H         1 <0>         0.1359
     35 H9          2.9688    0.2798   -1.8612 H         1 <0>         0.4064
     36 H10         0.7034   -0.6267   -3.2834 H         1 <0>         0.0847
     37 H11         0.2841    0.9038   -2.4770 H         1 <0>         0.0849
     38 H12         0.8873   -2.6282   -2.0588 H         1 <0>         0.1932
     39 H13         1.5930    1.8644    0.3018 H         1 <0>         0.1071
     40 H14         0.3455    1.8759   -0.9678 H         1 <0>         0.1073
     41 H15        -0.1303    1.8673    0.7473 H         1 <0>         0.1051
     42 H16        -0.2015   -2.4769    5.4409 H         1 <0>         0.4457
     43 H17        -0.0781   -3.8947    4.5480 H         1 <0>         0.4335
     44 H18        -0.4080    1.7178    3.1376 H         1 <0>         0.4310
     45 H19         0.8670    1.8081    2.0473 H         1 <0>         0.4368
     46 H20         6.7236    1.3499   -3.9043 H         1 <0>         0.0613
     47 H21         6.3042    2.8804   -3.0980 H         1 <0>         0.0610
     48 H22         7.1521    0.3045   -1.6971 H         1 <0>         0.0642
     49 H23         8.1737    1.7431   -1.9317 H         1 <0>         0.0804
     50 H24         6.7328    1.8349   -0.8907 H         1 <0>         0.0631
     51 N6          0.2529   -2.8962    2.2920 N.ar      1 <0>        -0.5915
     52 H25         0.2558   -3.8947    2.2380 H         1 <0>         0.4632
@<TRIPOS>BOND
     1    1    2 1
     2    1   27 1
     3    1   28 1
     4    1   29 1
     5    2    3 1
     6    2   30 1
     7    2   31 1
     8    3    4 1
     9    4    9 ar
    10    4    5 ar
    11    5    6 ar
    12    5   32 1
    13    6    7 ar
    14    6   33 1
    15    7    8 ar
    16    7   24 1
    17    8    9 ar
    18    8   10 1
    19    9   34 1
    20   10   11 1
    21   10   35 1
    22   11   12 1
    23   11   36 1
    24   11   37 1
    25   12   17 ar
    26   12   13 ar
    27   13   14 ar
    28   13   38 1
    29   14   15 ar
    30   15   16 ar
    31   15   51 ar
    32   16   17 ar
    33   16   19 ar
    34   17   18 1
    35   18   39 1
    36   18   40 1
    37   18   41 1
    38   19   20 ar
    39   19   23 1
    40   20   21 ar
    41   21   22 1
    42   21   51 ar
    43   22   42 1
    44   22   43 1
    45   23   44 1
    46   23   45 1
    47   24   25 1
    48   25   26 1
    49   25   46 1
    50   25   47 1
    51   26   48 1
    52   26   49 1
    53   26   50 1
    54   51   52 1
@<TRIPOS>MOLECULE
ZINC03814953
   48    50     0     0     0
SMALL
USER_CHARGES

@<TRIPOS>ATOM
      1 C1          0.2524   -3.0368   -2.4213 C.3       1 <0>        -0.1553
      2 C2         -0.1224   -2.3172   -1.1513 C.ar      1 <0>         0.0687
      3 C3         -0.6679   -1.0605   -1.1873 C.ar      1 <0>        -0.1904
      4 C4         -1.0075   -0.4194   -0.0024 C.ar      1 <0>         0.1986
      5 N1         -0.8137   -0.9826    1.1694 N.ar      1 <0>        -0.4921
      6 C5         -0.2830   -2.2014    1.2711 C.ar      1 <0>         0.4105
      7 C6          0.0819   -2.9101    0.0998 C.ar      1 <0>        -0.2794
      8 C7          0.6442   -4.2032    0.2382 C.ar      1 <0>         0.5238
      9 N2          0.8030   -4.6910    1.4603 N.ar      1 <0>        -0.6191
     10 C8          0.4469   -3.9924    2.5346 C.ar      1 <0>         0.6217
     11 N3         -0.0803   -2.7847    2.4610 N.ar      1 <0>        -0.5923
     12 N4          0.6375   -4.5554    3.7820 N.pl3     1 <0>        -0.8132
     13 N5          1.0165   -4.9342   -0.8685 N.pl3     1 <0>        -0.8449
     14 C9         -0.9019   -0.3766   -2.5096 C.3       1 <0>         0.1088
     15 N6          0.3782    0.1063   -3.0444 N.pl3     1 <0>        -0.4853
     16 C10         0.8660    1.2618   -2.2796 C.3       1 <0>         0.0286
     17 C11         0.2688    0.4155   -4.4049 C.ar      1 <0>         0.0923
     18 C12        -0.6342    1.3796   -4.8278 C.ar      1 <0>        -0.1418
     19 C13        -0.7367    1.6875   -6.1758 C.ar      1 <0>         0.1018
     20 C14         0.0551    1.0245   -7.1018 C.ar      1 <0>        -0.1685
     21 C15         0.9522    0.0593   -6.6830 C.ar      1 <0>        -0.1652
     22 C16         1.0624   -0.2485   -5.3375 C.ar      1 <0>         0.1173
     23 O1          1.9451   -1.1993   -4.9264 O.3       1 <0>        -0.2942
     24 C17         2.7265   -1.8394   -5.9372 C.3       1 <0>         0.0226
     25 O2         -1.6179    2.6362   -6.5909 O.3       1 <0>        -0.3179
     26 C18        -1.6754    2.8986   -7.9944 C.3       1 <0>         0.0274
     27 H1         -0.5515   -3.7163   -2.7046 H         1 <0>         0.0761
     28 H2          0.4112   -2.3097   -3.2176 H         1 <0>         0.1032
     29 H3          1.1685   -3.6051   -2.2601 H         1 <0>         0.0962
     30 H4         -1.4402    0.5692   -0.0452 H         1 <0>         0.1618
     31 H5          1.0237   -5.4418    3.8601 H         1 <0>         0.4151
     32 H6          0.3852   -4.0642    4.5795 H         1 <0>         0.4178
     33 H7          1.8469   -5.4356   -0.8617 H         1 <0>         0.4092
     34 H8          0.4483   -4.9476   -1.6545 H         1 <0>         0.4184
     35 H9         -1.3451   -1.0836   -3.2109 H         1 <0>         0.0869
     36 H10        -1.5778    0.4668   -2.3679 H         1 <0>         0.0543
     37 H11         1.0994    0.9511   -1.2612 H         1 <0>         0.0737
     38 H12         1.7641    1.6582   -2.7533 H         1 <0>         0.0705
     39 H13         0.0965    2.0334   -2.2566 H         1 <0>         0.0351
     40 H14        -1.2543    1.8926   -4.1075 H         1 <0>         0.1360
     41 H15        -0.0296    1.2624   -8.1519 H         1 <0>         0.1318
     42 H16         1.5674   -0.4553   -7.4062 H         1 <0>         0.1346
     43 H17         3.3230   -1.0933   -6.4622 H         1 <0>         0.0526
     44 H18         3.3869   -2.5734   -5.4755 H         1 <0>         0.0997
     45 H19         2.0655   -2.3398   -6.6450 H         1 <0>         0.0529
     46 H20        -0.6983    3.2346   -8.3415 H         1 <0>         0.0551
     47 H21        -1.9552    1.9875   -8.5232 H         1 <0>         0.0552
     48 H22        -2.4164    3.6738   -8.1891 H         1 <0>         0.1010
@<TRIPOS>BOND
     1    1    2 1
     2    1   27 1
     3    1   28 1
     4    1   29 1
     5    2    7 ar
     6    2    3 ar
     7    3    4 ar
     8    3   14 1
     9    4    5 ar
    10    4   30 1
    11    5    6 ar
    12    6   11 ar
    13    6    7 ar
    14    7    8 ar
    15    8    9 ar
    16    8   13 1
    17    9   10 ar
    18   10   11 ar
    19   10   12 1
    20   12   31 1
    21   12   32 1
    22   13   33 1
    23   13   34 1
    24   14   15 1
    25   14   35 1
    26   14   36 1
    27   15   16 1
    28   15   17 1
    29   16   37 1
    30   16   38 1
    31   16   39 1
    32   17   22 ar
    33   17   18 ar
    34   18   19 ar
    35   18   40 1
    36   19   20 ar
    37   19   25 1
    38   20   21 ar
    39   20   41 1
    40   21   22 ar
    41   21   42 1
    42   22   23 1
    43   23   24 1
    44   24   43 1
    45   24   44 1
    46   24   45 1
    47   25   26 1
    48   26   46 1
    49   26   47 1
    50   26   48 1
@<TRIPOS>MOLECULE
ZINC03814953
   49    51     0     0     0
SMALL
USER_CHARGES

@<TRIPOS>ATOM
      1 C1          0.2524   -3.0368   -2.4213 C.3       1 <0>        -0.1690
      2 C2         -0.1224   -2.3172   -1.1513 C.ar      1 <0>         0.0871
      3 C3         -0.6679   -1.0605   -1.1873 C.ar      1 <0>        -0.1461
      4 C4         -1.0075   -0.4194   -0.0024 C.ar      1 <0>         0.2224
      5 N1         -0.8137   -0.9826    1.1694 N.ar      1 <0>        -0.5013
      6 C5         -0.2830   -2.2014    1.2711 C.ar      1 <0>         0.3982
      7 C6          0.0819   -2.9101    0.0998 C.ar      1 <0>        -0.2326
      8 C7          0.6442   -4.2032    0.2382 C.ar      1 <0>         0.5811
      9 N2          0.8030   -4.6910    1.4603 N.ar      1 <0>        -0.5740
     10 C8          0.4469   -3.9924    2.5346 C.ar      1 <0>         0.6929
     11 N3          0.6375   -4.5554    3.7820 N.pl3     1 <0>        -0.7810
     12 N4          1.0165   -4.9342   -0.8685 N.pl3     1 <0>        -0.8011
     13 C9         -0.9019   -0.3766   -2.5096 C.3       1 <0>         0.0923
     14 N5          0.3782    0.1063   -3.0444 N.pl3     1 <0>        -0.4833
     15 C10         0.8660    1.2618   -2.2796 C.3       1 <0>         0.0235
     16 C11         0.2688    0.4155   -4.4049 C.ar      1 <0>         0.0804
     17 C12        -0.6342    1.3796   -4.8278 C.ar      1 <0>        -0.1419
     18 C13        -0.7367    1.6875   -6.1758 C.ar      1 <0>         0.1068
     19 C14         0.0551    1.0245   -7.1018 C.ar      1 <0>        -0.1621
     20 C15         0.9522    0.0593   -6.6830 C.ar      1 <0>        -0.1611
     21 C16         1.0624   -0.2485   -5.3375 C.ar      1 <0>         0.1178
     22 O1          1.9451   -1.1993   -4.9264 O.3       1 <0>        -0.3004
     23 C17         2.7265   -1.8394   -5.9372 C.3       1 <0>         0.0211
     24 O2         -1.6179    2.6362   -6.5909 O.3       1 <0>        -0.3167
     25 C18        -1.6754    2.8986   -7.9944 C.3       1 <0>         0.0256
     26 H1         -0.5515   -3.7163   -2.7046 H         1 <0>         0.0976
     27 H2          0.4112   -2.3097   -3.2176 H         1 <0>         0.1227
     28 H3          1.1685   -3.6051   -2.2601 H         1 <0>         0.1029
     29 H4         -1.4402    0.5692   -0.0452 H         1 <0>         0.1873
     30 H5          1.0237   -5.4418    3.8601 H         1 <0>         0.4451
     31 H6          0.3852   -4.0642    4.5795 H         1 <0>         0.4325
     32 H7          1.8469   -5.4356   -0.8617 H         1 <0>         0.4300
     33 H8          0.4483   -4.9476   -1.6545 H         1 <0>         0.4366
     34 H9         -1.3451   -1.0836   -3.2109 H         1 <0>         0.1010
     35 H10        -1.5778    0.4668   -2.3679 H         1 <0>         0.0673
     36 H11         1.0994    0.9511   -1.2612 H         1 <0>         0.0683
     37 H12         1.7641    1.6582   -2.7533 H         1 <0>         0.0784
     38 H13         0.0965    2.0334   -2.2566 H         1 <0>         0.0407
     39 H14        -1.2543    1.8926   -4.1075 H         1 <0>         0.1361
     40 H15        -0.0296    1.2624   -8.1519 H         1 <0>         0.1357
     41 H16         1.5674   -0.4553   -7.4062 H         1 <0>         0.1377
     42 H17         3.3230   -1.0933   -6.4622 H         1 <0>         0.0559
     43 H18         3.3869   -2.5734   -5.4755 H         1 <0>         0.1007
     44 H19         2.0655   -2.3398   -6.6450 H         1 <0>         0.0554
     45 H20        -0.6983    3.2346   -8.3415 H         1 <0>         0.0576
     46 H21        -1.9552    1.9875   -8.5232 H         1 <0>         0.0573
     47 H22        -2.4164    3.6738   -8.1891 H         1 <0>         0.1044
     48 N6         -0.0983   -2.7500    2.5217 N.ar      1 <0>        -0.5895
     49 H23        -0.3351   -2.2989    3.3822 H         1 <0>         0.4599
@<TRIPOS>BOND
     1    1    2 1
     2    1   26 1
     3    1   27 1
     4    1   28 1
     5    2    7 ar
     6    2    3 ar
     7    3    4 ar
     8    3   13 1
     9    4    5 ar
    10    4   29 1
    11    5    6 ar
    12    6    7 ar
    13    6   48 ar
    14    7    8 ar
    15    8    9 ar
    16    8   12 1
    17    9   10 ar
    18   10   11 1
    19   10   48 ar
    20   11   30 1
    21   11   31 1
    22   12   32 1
    23   12   33 1
    24   13   14 1
    25   13   34 1
    26   13   35 1
    27   14   15 1
    28   14   16 1
    29   15   36 1
    30   15   37 1
    31   15   38 1
    32   16   21 ar
    33   16   17 ar
    34   17   18 ar
    35   17   39 1
    36   18   19 ar
    37   18   24 1
    38   19   20 ar
    39   19   40 1
    40   20   21 ar
    41   20   41 1
    42   21   22 1
    43   22   23 1
    44   23   42 1
    45   23   43 1
    46   23   44 1
    47   24   25 1
    48   25   45 1
    49   25   46 1
    50   25   47 1
    51   48   49 1
@<TRIPOS>MOLECULE
ZINC03814954
   48    50     0     0     0
SMALL
USER_CHARGES

@<TRIPOS>ATOM
      1 C1          5.1292    1.5771   -1.1433 C.3       1 <0>        -0.1395
      2 C2          5.1035    0.0982   -0.8552 C.ar      1 <0>         0.0682
      3 C3          4.0319   -0.4794   -0.2256 C.ar      1 <0>        -0.1910
      4 C4          4.0352   -1.8442    0.0341 C.ar      1 <0>         0.1981
      5 N1          5.0410   -2.6135   -0.3185 N.ar      1 <0>        -0.4926
      6 C5          6.1121   -2.1118   -0.9337 C.ar      1 <0>         0.4101
      7 C6          6.1733   -0.7260   -1.2222 C.ar      1 <0>        -0.2795
      8 C7          7.3237   -0.2208   -1.8772 C.ar      1 <0>         0.5240
      9 N2          8.2915   -1.0705   -2.1903 N.ar      1 <0>        -0.6188
     10 C8          8.1945   -2.3650   -1.9014 C.ar      1 <0>         0.6215
     11 N3          7.1457   -2.8863   -1.2930 N.ar      1 <0>        -0.5923
     12 N4          9.2373   -3.2006   -2.2533 N.pl3     1 <0>        -0.8133
     13 N5          7.4336    1.1185   -2.1801 N.pl3     1 <0>        -0.8460
     14 C9          2.8550    0.3653    0.1897 C.3       1 <0>         0.1098
     15 N6          3.2199    1.1705    1.3629 N.pl3     1 <0>        -0.4819
     16 C10         3.3503    0.3284    2.5595 C.3       1 <0>         0.0293
     17 C11         2.2931    2.2017    1.5727 C.ar      1 <0>         0.0148
     18 C12         0.9595    1.8999    1.8044 C.ar      1 <0>        -0.0680
     19 C13         0.0450    2.9166    2.0060 C.ar      1 <0>        -0.2360
     20 C14         0.4606    4.2396    1.9884 C.ar      1 <0>         0.1675
     21 C15         1.7932    4.5463    1.7570 C.ar      1 <0>        -0.2417
     22 C16         2.7109    3.5301    1.5490 C.ar      1 <0>         0.1927
     23 O1          4.0183    3.8289    1.3225 O.3       1 <0>        -0.2890
     24 C17         4.3751    5.2126    1.3121 C.3       1 <0>         0.0197
     25 O2         -0.4405    5.2374    2.1926 O.3       1 <0>        -0.3160
     26 C18        -1.7962    4.8498    2.4249 C.3       1 <0>         0.0265
     27 H1          5.6864    2.0903   -0.3595 H         1 <0>         0.0919
     28 H2          5.6110    1.7516   -2.1053 H         1 <0>         0.0887
     29 H3          4.1088    1.9593   -1.1733 H         1 <0>         0.0805
     30 H4          3.1865   -2.2858    0.5353 H         1 <0>         0.1610
     31 H5         10.0183   -2.8394   -2.7010 H         1 <0>         0.4151
     32 H6          9.1883   -4.1483   -2.0525 H         1 <0>         0.4177
     33 H7          7.1556    1.7864   -1.5339 H         1 <0>         0.4193
     34 H8          7.7890    1.3938   -3.0397 H         1 <0>         0.4090
     35 H9          2.0140   -0.2813    0.4401 H         1 <0>         0.0500
     36 H10         2.5741    1.0254   -0.6309 H         1 <0>         0.0871
     37 H11         2.4108   -0.1939    2.7403 H         1 <0>         0.0310
     38 H12         4.1470   -0.3996    2.4064 H         1 <0>         0.0710
     39 H13         3.5898    0.9537    3.4195 H         1 <0>         0.0693
     40 H14         0.6346    0.8701    1.8229 H         1 <0>         0.1302
     41 H15        -0.9940    2.6801    2.1819 H         1 <0>         0.1302
     42 H16         2.1150    5.5771    1.7388 H         1 <0>         0.1395
     43 H17         3.8174    5.7258    0.5288 H         1 <0>         0.0565
     44 H18         4.1365    5.6566    2.2786 H         1 <0>         0.0559
     45 H19         5.4438    5.3108    1.1212 H         1 <0>         0.1014
     46 H20        -2.4084    5.7395    2.5721 H         1 <0>         0.1022
     47 H21        -2.1670    4.2918    1.5651 H         1 <0>         0.0578
     48 H22        -1.8473    4.2224    3.3148 H         1 <0>         0.0577
@<TRIPOS>BOND
     1    1    2 1
     2    1   27 1
     3    1   28 1
     4    1   29 1
     5    2    7 ar
     6    2    3 ar
     7    3    4 ar
     8    3   14 1
     9    4    5 ar
    10    4   30 1
    11    5    6 ar
    12    6   11 ar
    13    6    7 ar
    14    7    8 ar
    15    8    9 ar
    16    8   13 1
    17    9   10 ar
    18   10   11 ar
    19   10   12 1
    20   12   31 1
    21   12   32 1
    22   13   33 1
    23   13   34 1
    24   14   15 1
    25   14   35 1
    26   14   36 1
    27   15   16 1
    28   15   17 1
    29   16   37 1
    30   16   38 1
    31   16   39 1
    32   17   22 ar
    33   17   18 ar
    34   18   19 ar
    35   18   40 1
    36   19   20 ar
    37   19   41 1
    38   20   21 ar
    39   20   25 1
    40   21   22 ar
    41   21   42 1
    42   22   23 1
    43   23   24 1
    44   24   43 1
    45   24   44 1
    46   24   45 1
    47   25   26 1
    48   26   46 1
    49   26   47 1
    50   26   48 1
@<TRIPOS>MOLECULE
ZINC03814954
   49    51     0     0     0
SMALL
USER_CHARGES

@<TRIPOS>ATOM
      1 C1          5.1292    1.5771   -1.1433 C.3       1 <0>        -0.1540
      2 C2          5.1035    0.0982   -0.8552 C.ar      1 <0>         0.0866
      3 C3          4.0319   -0.4794   -0.2256 C.ar      1 <0>        -0.1467
      4 C4          4.0352   -1.8442    0.0341 C.ar      1 <0>         0.2217
      5 N1          5.0410   -2.6135   -0.3185 N.ar      1 <0>        -0.5019
      6 C5          6.1121   -2.1118   -0.9337 C.ar      1 <0>         0.3978
      7 C6          6.1733   -0.7260   -1.2222 C.ar      1 <0>        -0.2328
      8 C7          7.3237   -0.2208   -1.8772 C.ar      1 <0>         0.5816
      9 N2          8.2915   -1.0705   -2.1903 N.ar      1 <0>        -0.5738
     10 C8          8.1945   -2.3650   -1.9014 C.ar      1 <0>         0.6928
     11 N3          9.2373   -3.2006   -2.2533 N.pl3     1 <0>        -0.7810
     12 N4          7.4336    1.1185   -2.1801 N.pl3     1 <0>        -0.8024
     13 C9          2.8550    0.3653    0.1897 C.3       1 <0>         0.0935
     14 N5          3.2199    1.1705    1.3629 N.pl3     1 <0>        -0.4792
     15 C10         3.3503    0.3284    2.5595 C.3       1 <0>         0.0242
     16 C11         2.2931    2.2017    1.5727 C.ar      1 <0>         0.0006
     17 C12         0.9595    1.8999    1.8044 C.ar      1 <0>        -0.0648
     18 C13         0.0450    2.9166    2.0060 C.ar      1 <0>        -0.2346
     19 C14         0.4606    4.2396    1.9884 C.ar      1 <0>         0.1769
     20 C15         1.7932    4.5463    1.7570 C.ar      1 <0>        -0.2412
     21 C16         2.7109    3.5301    1.5490 C.ar      1 <0>         0.1957
     22 O1          4.0183    3.8289    1.3225 O.3       1 <0>        -0.2952
     23 C17         4.3751    5.2126    1.3121 C.3       1 <0>         0.0181
     24 O2         -0.4405    5.2374    2.1926 O.3       1 <0>        -0.3130
     25 C18        -1.7962    4.8498    2.4249 C.3       1 <0>         0.0248
     26 H1          5.6864    2.0903   -0.3595 H         1 <0>         0.1120
     27 H2          5.6110    1.7516   -2.1053 H         1 <0>         0.0957
     28 H3          4.1088    1.9593   -1.1733 H         1 <0>         0.1022
     29 H4          3.1865   -2.2858    0.5353 H         1 <0>         0.1865
     30 H5         10.0183   -2.8394   -2.7010 H         1 <0>         0.4451
     31 H6          9.1883   -4.1483   -2.0525 H         1 <0>         0.4324
     32 H7          7.1556    1.7864   -1.5339 H         1 <0>         0.4376
     33 H8          7.7890    1.3938   -3.0397 H         1 <0>         0.4297
     34 H9          2.0140   -0.2813    0.4401 H         1 <0>         0.0629
     35 H10         2.5741    1.0254   -0.6309 H         1 <0>         0.1008
     36 H11         2.4108   -0.1939    2.7403 H         1 <0>         0.0368
     37 H12         4.1470   -0.3996    2.4064 H         1 <0>         0.0651
     38 H13         3.5898    0.9537    3.4195 H         1 <0>         0.0772
     39 H14         0.6346    0.8701    1.8229 H         1 <0>         0.1302
     40 H15        -0.9940    2.6801    2.1819 H         1 <0>         0.1336
     41 H16         2.1150    5.5771    1.7388 H         1 <0>         0.1424
     42 H17         3.8174    5.7258    0.5288 H         1 <0>         0.0588
     43 H18         4.1365    5.6566    2.2786 H         1 <0>         0.0591
     44 H19         5.4438    5.3108    1.1212 H         1 <0>         0.1025
     45 H20        -2.4084    5.7395    2.5721 H         1 <0>         0.1060
     46 H21        -2.1670    4.2918    1.5651 H         1 <0>         0.0594
     47 H22        -1.8473    4.2224    3.3148 H         1 <0>         0.0597
     48 N6          7.1442   -2.9571   -1.2791 N.ar      1 <0>        -0.5895
     49 H23         7.1579   -3.9412   -1.1022 H         1 <0>         0.4598
@<TRIPOS>BOND
     1    1    2 1
     2    1   26 1
     3    1   27 1
     4    1   28 1
     5    2    7 ar
     6    2    3 ar
     7    3    4 ar
     8    3   13 1
     9    4    5 ar
    10    4   29 1
    11    5    6 ar
    12    6    7 ar
    13    6   48 ar
    14    7    8 ar
    15    8    9 ar
    16    8   12 1
    17    9   10 ar
    18   10   11 1
    19   10   48 ar
    20   11   30 1
    21   11   31 1
    22   12   32 1
    23   12   33 1
    24   13   14 1
    25   13   34 1
    26   13   35 1
    27   14   15 1
    28   14   16 1
    29   15   36 1
    30   15   37 1
    31   15   38 1
    32   16   21 ar
    33   16   17 ar
    34   17   18 ar
    35   17   39 1
    36   18   19 ar
    37   18   40 1
    38   19   20 ar
    39   19   24 1
    40   20   21 ar
    41   20   41 1
    42   21   22 1
    43   22   23 1
    44   23   42 1
    45   23   43 1
    46   23   44 1
    47   24   25 1
    48   25   45 1
    49   25   46 1
    50   25   47 1
    51   48   49 1
@<TRIPOS>MOLECULE
ZINC03814955
   54    56     0     0     0
SMALL
USER_CHARGES

@<TRIPOS>ATOM
      1 C1          3.1123    2.8096    0.2275 C.3       1 <0>        -0.1597
      2 C2          2.2139    3.0314   -0.9619 C.ar      1 <0>         0.0624
      3 C3          1.3036    2.0813   -1.3453 C.ar      1 <0>        -0.2182
      4 C4          0.4910    2.3073   -2.4493 C.ar      1 <0>         0.2047
      5 N1          0.5588    3.4223   -3.1420 N.ar      1 <0>        -0.4882
      6 C5          1.4234    4.3846   -2.8196 C.ar      1 <0>         0.4140
      7 C6          2.2847    4.2134   -1.7077 C.ar      1 <0>        -0.2783
      8 C7          3.1930    5.2529   -1.3883 C.ar      1 <0>         0.5233
      9 N2          3.1946    6.3399   -2.1467 N.ar      1 <0>        -0.6174
     10 C8          2.3690    6.4610   -3.1823 C.ar      1 <0>         0.6233
     11 N3          1.5047    5.5234   -3.5224 N.ar      1 <0>        -0.5910
     12 N4          2.4187    7.6185   -3.9352 N.pl3     1 <0>        -0.8114
     13 N5          4.0523    5.1365   -0.3179 N.pl3     1 <0>        -0.8449
     14 C9          1.1887    0.7913   -0.5747 C.3       1 <0>         0.1719
     15 N6          0.2661    0.9741    0.5486 N.pl3     1 <0>        -0.6128
     16 C10         0.7871    1.2948    1.8797 C.3       1 <0>         0.2298
     17 C11         0.7447    2.7518    2.0853 C.1       1 <0>        -0.2119
     18 C12         0.7109    3.9138    2.2492 C.1       1 <0>        -0.1771
     19 C13        -1.1125    0.8424    0.3500 C.ar      1 <0>         0.2863
     20 C14        -1.5995    0.4275   -0.8821 C.ar      1 <0>        -0.3056
     21 C15        -2.9651    0.2921   -1.0781 C.ar      1 <0>         0.1944
     22 C16        -3.8472    0.5815   -0.0440 C.ar      1 <0>        -0.0225
     23 C17        -3.3593    1.0018    1.1874 C.ar      1 <0>         0.1921
     24 C18        -1.9932    1.1321    1.3834 C.ar      1 <0>        -0.3006
     25 O1         -4.2217    1.2857    2.1998 O.3       1 <0>        -0.3001
     26 C19        -3.6506    1.7128    3.4381 C.3       1 <0>         0.0264
     27 O2         -5.1892    0.4528   -0.2372 O.3       1 <0>        -0.3095
     28 C20        -5.8885    1.6022   -0.7187 C.3       1 <0>         0.0334
     29 O3         -3.4417   -0.1194   -2.2835 O.3       1 <0>        -0.2988
     30 C21        -2.4773   -0.5017   -3.2662 C.3       1 <0>         0.0237
     31 H1          4.0845    2.4532   -0.1130 H         1 <0>         0.0845
     32 H2          3.2381    3.7479    0.7678 H         1 <0>         0.1007
     33 H3          2.6642    2.0672    0.8880 H         1 <0>         0.0846
     34 H4         -0.2187    1.5482   -2.7436 H         1 <0>         0.1577
     35 H5          3.0464    8.3210   -3.7039 H         1 <0>         0.4158
     36 H6          1.8260    7.7287   -4.6951 H         1 <0>         0.4186
     37 H7          4.4948    4.2917   -0.1408 H         1 <0>         0.4175
     38 H8          4.2149    5.8994    0.2587 H         1 <0>         0.4098
     39 H9          0.8106    0.0081   -1.2316 H         1 <0>         0.0904
     40 H10         2.1701    0.5057   -0.1960 H         1 <0>         0.0937
     41 H11         0.1765    0.8032    2.6370 H         1 <0>         0.0995
     42 H12         1.8166    0.9463    1.9606 H         1 <0>         0.1042
     43 H13         0.6807    4.9531    2.3958 H         1 <0>         0.2118
     44 H14        -0.9141    0.2065   -1.6869 H         1 <0>         0.1348
     45 H15        -1.6138    1.4588    2.3404 H         1 <0>         0.1339
     46 H16        -2.9934    0.9331    3.8231 H         1 <0>         0.0570
     47 H17        -3.0765    2.6254    3.2778 H         1 <0>         0.0550
     48 H18        -4.4461    1.9057    4.1578 H         1 <0>         0.1022
     49 H19        -5.4804    1.8972   -1.6854 H         1 <0>         0.0424
     50 H20        -6.9465    1.3643   -0.8282 H         1 <0>         0.0894
     51 H21        -5.7719    2.4219   -0.0097 H         1 <0>         0.0404
     52 H22        -1.7832    0.3219   -3.4338 H         1 <0>         0.0553
     53 H23        -1.9272   -1.3747   -2.9151 H         1 <0>         0.0590
     54 H24        -2.9859   -0.7439   -4.1994 H         1 <0>         0.1040
@<TRIPOS>BOND
     1    1    2 1
     2    1   31 1
     3    1   32 1
     4    1   33 1
     5    2    7 ar
     6    2    3 ar
     7    3    4 ar
     8    3   14 1
     9    4    5 ar
    10    4   34 1
    11    5    6 ar
    12    6   11 ar
    13    6    7 ar
    14    7    8 ar
    15    8    9 ar
    16    8   13 1
    17    9   10 ar
    18   10   11 ar
    19   10   12 1
    20   12   35 1
    21   12   36 1
    22   13   37 1
    23   13   38 1
    24   14   15 1
    25   14   39 1
    26   14   40 1
    27   15   16 1
    28   15   19 1
    29   16   17 1
    30   16   41 1
    31   16   42 1
    32   17   18 3
    33   18   43 1
    34   19   24 ar
    35   19   20 ar
    36   20   21 ar
    37   20   44 1
    38   21   22 ar
    39   21   29 1
    40   22   23 ar
    41   22   27 1
    42   23   24 ar
    43   23   25 1
    44   24   45 1
    45   25   26 1
    46   26   46 1
    47   26   47 1
    48   26   48 1
    49   27   28 1
    50   28   49 1
    51   28   50 1
    52   28   51 1
    53   29   30 1
    54   30   52 1
    55   30   53 1
    56   30   54 1
@<TRIPOS>MOLECULE
ZINC03814955
   55    57     0     0     0
SMALL
USER_CHARGES

@<TRIPOS>ATOM
      1 C1          3.1123    2.8096    0.2275 C.3       1 <0>        -0.1740
      2 C2          2.2139    3.0314   -0.9619 C.ar      1 <0>         0.0793
      3 C3          1.3036    2.0813   -1.3453 C.ar      1 <0>        -0.1761
      4 C4          0.4910    2.3073   -2.4493 C.ar      1 <0>         0.2292
      5 N1          0.5588    3.4223   -3.1420 N.ar      1 <0>        -0.4979
      6 C5          1.4234    4.3846   -2.8196 C.ar      1 <0>         0.4021
      7 C6          2.2847    4.2134   -1.7077 C.ar      1 <0>        -0.2312
      8 C7          3.1930    5.2529   -1.3883 C.ar      1 <0>         0.5804
      9 N2          3.1946    6.3399   -2.1467 N.ar      1 <0>        -0.5720
     10 C8          2.3690    6.4610   -3.1823 C.ar      1 <0>         0.6933
     11 N3          2.4187    7.6185   -3.9352 N.pl3     1 <0>        -0.7786
     12 N4          4.0523    5.1365   -0.3179 N.pl3     1 <0>        -0.8013
     13 C9          1.1887    0.7913   -0.5747 C.3       1 <0>         0.1617
     14 N5          0.2661    0.9741    0.5486 N.pl3     1 <0>        -0.6159
     15 C10         0.7871    1.2948    1.8797 C.3       1 <0>         0.2251
     16 C11         0.7447    2.7518    2.0853 C.1       1 <0>        -0.2126
     17 C12         0.7109    3.9138    2.2492 C.1       1 <0>        -0.1787
     18 C13        -1.1125    0.8424    0.3500 C.ar      1 <0>         0.2766
     19 C14        -1.5995    0.4275   -0.8821 C.ar      1 <0>        -0.3114
     20 C15        -2.9651    0.2921   -1.0781 C.ar      1 <0>         0.1941
     21 C16        -3.8472    0.5815   -0.0440 C.ar      1 <0>        -0.0140
     22 C17        -3.3593    1.0018    1.1874 C.ar      1 <0>         0.1957
     23 C18        -1.9932    1.1321    1.3834 C.ar      1 <0>        -0.2962
     24 O1         -4.2217    1.2857    2.1998 O.3       1 <0>        -0.2966
     25 C19        -3.6506    1.7128    3.4381 C.3       1 <0>         0.0253
     26 O2         -5.1892    0.4528   -0.2372 O.3       1 <0>        -0.3079
     27 C20        -5.8885    1.6022   -0.7187 C.3       1 <0>         0.0342
     28 O3         -3.4417   -0.1194   -2.2835 O.3       1 <0>        -0.2958
     29 C21        -2.4773   -0.5017   -3.2662 C.3       1 <0>         0.0249
     30 H1          4.0845    2.4532   -0.1130 H         1 <0>         0.1061
     31 H2          3.2381    3.7479    0.7678 H         1 <0>         0.1071
     32 H3          2.6642    2.0672    0.8880 H         1 <0>         0.1044
     33 H4         -0.2187    1.5482   -2.7436 H         1 <0>         0.1827
     34 H5          3.0464    8.3210   -3.7039 H         1 <0>         0.4458
     35 H6          1.8260    7.7287   -4.6951 H         1 <0>         0.4333
     36 H7          4.4948    4.2917   -0.1408 H         1 <0>         0.4358
     37 H8          4.2149    5.8994    0.2587 H         1 <0>         0.4305
     38 H9          0.8106    0.0081   -1.2316 H         1 <0>         0.1027
     39 H10         2.1701    0.5057   -0.1960 H         1 <0>         0.1066
     40 H11         0.1765    0.8032    2.6370 H         1 <0>         0.1072
     41 H12         1.8166    0.9463    1.9606 H         1 <0>         0.1084
     42 H13         0.6807    4.9531    2.3958 H         1 <0>         0.2141
     43 H14        -0.9141    0.2065   -1.6869 H         1 <0>         0.1312
     44 H15        -1.6138    1.4588    2.3404 H         1 <0>         0.1363
     45 H16        -2.9934    0.9331    3.8231 H         1 <0>         0.0592
     46 H17        -3.0765    2.6254    3.2778 H         1 <0>         0.0548
     47 H18        -4.4461    1.9057    4.1578 H         1 <0>         0.1064
     48 H19        -5.4804    1.8972   -1.6854 H         1 <0>         0.0415
     49 H20        -6.9465    1.3643   -0.8282 H         1 <0>         0.0936
     50 H21        -5.7719    2.4219   -0.0097 H         1 <0>         0.0415
     51 H22        -1.7832    0.3219   -3.4338 H         1 <0>         0.0483
     52 H23        -1.9272   -1.3747   -2.9151 H         1 <0>         0.0618
     53 H24        -2.9859   -0.7439   -4.1994 H         1 <0>         0.1072
     54 N6          1.4616    5.5338   -3.5793 N.ar      1 <0>        -0.5893
     55 H25         0.8801    5.7112   -4.3734 H         1 <0>         0.4609
@<TRIPOS>BOND
     1    1    2 1
     2    1   30 1
     3    1   31 1
     4    1   32 1
     5    2    7 ar
     6    2    3 ar
     7    3    4 ar
     8    3   13 1
     9    4    5 ar
    10    4   33 1
    11    5    6 ar
    12    6    7 ar
    13    6   54 ar
    14    7    8 ar
    15    8    9 ar
    16    8   12 1
    17    9   10 ar
    18   10   11 1
    19   10   54 ar
    20   11   34 1
    21   11   35 1
    22   12   36 1
    23   12   37 1
    24   13   14 1
    25   13   38 1
    26   13   39 1
    27   14   15 1
    28   14   18 1
    29   15   16 1
    30   15   40 1
    31   15   41 1
    32   16   17 3
    33   17   42 1
    34   18   23 ar
    35   18   19 ar
    36   19   20 ar
    37   19   43 1
    38   20   21 ar
    39   20   28 1
    40   21   22 ar
    41   21   26 1
    42   22   23 ar
    43   22   24 1
    44   23   44 1
    45   24   25 1
    46   25   45 1
    47   25   46 1
    48   25   47 1
    49   26   27 1
    50   27   48 1
    51   27   49 1
    52   27   50 1
    53   28   29 1
    54   29   51 1
    55   29   52 1
    56   29   53 1
    57   54   55 1
@<TRIPOS>MOLECULE
ZINC03814956
   55    57     0     0     0
SMALL
USER_CHARGES

@<TRIPOS>ATOM
      1 C1         -0.6542    4.8508   -1.0483 C.3       1 <0>        -0.1717
      2 C2          0.3301    3.6798   -1.0754 C.3       1 <0>         0.1164
      3 N1          0.1691    2.8783    0.1403 N.pl3     1 <0>        -0.6148
      4 C3         -0.7791    1.7617    0.1612 C.3       1 <0>         0.1701
      5 C4         -0.3363    0.7081   -0.8211 C.ar      1 <0>        -0.2206
      6 C5         -0.9191    0.6421   -2.0811 C.ar      1 <0>         0.2029
      7 N2         -0.5553   -0.2594   -2.9655 N.ar      1 <0>        -0.4896
      8 C6          0.3866   -1.1610   -2.6860 C.ar      1 <0>         0.4151
      9 C7          1.0161   -1.1509   -1.4168 C.ar      1 <0>        -0.2814
     10 C8          0.6376   -0.1900   -0.4718 C.ar      1 <0>         0.0638
     11 C9          1.2820   -0.1451    0.8898 C.3       1 <0>        -0.1738
     12 C10         2.0134   -2.1202   -1.1479 C.ar      1 <0>         0.5244
     13 N3          2.3121   -2.9940   -2.0990 N.ar      1 <0>        -0.6194
     14 C11         1.6972   -2.9691   -3.2775 C.ar      1 <0>         0.6253
     15 N4          0.7615   -2.0880   -3.5786 N.ar      1 <0>        -0.5930
     16 N5          2.0526   -3.9066   -4.2284 N.pl3     1 <0>        -0.8110
     17 N6          2.6558   -2.1542    0.0703 N.pl3     1 <0>        -0.8421
     18 C12         0.9208    3.1791    1.2812 C.ar      1 <0>         0.2899
     19 C13         0.6618    2.5214    2.4761 C.ar      1 <0>        -0.3176
     20 C14         1.4094    2.8156    3.6057 C.ar      1 <0>         0.1954
     21 C15         2.4116    3.7763    3.5445 C.ar      1 <0>        -0.0283
     22 C16         2.6668    4.4380    2.3494 C.ar      1 <0>         0.1958
     23 C17         1.9216    4.1393    1.2194 C.ar      1 <0>        -0.3079
     24 O1          3.6471    5.3786    2.2887 O.3       1 <0>        -0.3002
     25 C18         3.8543    6.0192    1.0283 C.3       1 <0>         0.0254
     26 O2          3.1437    4.0688    4.6550 O.3       1 <0>        -0.3096
     27 C19         2.6498    5.1081    5.5024 C.3       1 <0>         0.0334
     28 O3          1.1590    2.1675    4.7748 O.3       1 <0>        -0.2994
     29 C20         0.1853    1.1221    4.7414 C.3       1 <0>         0.0240
     30 H1         -0.5344    5.4472   -1.9528 H         1 <0>         0.0662
     31 H2         -1.6734    4.4676   -0.9981 H         1 <0>         0.0593
     32 H3         -0.4561    5.4719   -0.1748 H         1 <0>         0.0589
     33 H4          1.3493    4.0630   -1.1256 H         1 <0>         0.0750
     34 H5          0.1320    3.0587   -1.9490 H         1 <0>         0.0763
     35 H6         -1.7704    2.1217   -0.1143 H         1 <0>         0.0816
     36 H7         -0.8136    1.3331    1.1628 H         1 <0>         0.0932
     37 H8         -1.6888    1.3534   -2.3419 H         1 <0>         0.1643
     38 H9          0.8010   -0.8726    1.5436 H         1 <0>         0.0839
     39 H10         2.3416   -0.3834    0.7983 H         1 <0>         0.0995
     40 H11         1.1693    0.8534    1.3123 H         1 <0>         0.0996
     41 H12         2.7375   -4.5640   -4.0291 H         1 <0>         0.4161
     42 H13         1.6173   -3.9074   -5.0952 H         1 <0>         0.4186
     43 H14         2.1587   -1.9835    0.8856 H         1 <0>         0.4186
     44 H15         3.6051   -2.3488    0.1128 H         1 <0>         0.4107
     45 H16        -0.1199    1.7778    2.5245 H         1 <0>         0.1375
     46 H17         2.1198    4.6535    0.2906 H         1 <0>         0.1359
     47 H18         2.9399    6.5291    0.7252 H         1 <0>         0.0569
     48 H19         4.6625    6.7450    1.1181 H         1 <0>         0.1026
     49 H20         4.1187    5.2719    0.2800 H         1 <0>         0.0568
     50 H21         3.3252    5.2393    6.3478 H         1 <0>         0.0888
     51 H22         2.5889    6.0387    4.9382 H         1 <0>         0.0411
     52 H23         1.6587    4.8390    5.8675 H         1 <0>         0.0415
     53 H24        -0.7557    1.5143    4.3556 H         1 <0>         0.0570
     54 H25         0.5368    0.3188    4.0940 H         1 <0>         0.0561
     55 H26         0.0321    0.7360    5.7491 H         1 <0>         0.1027
@<TRIPOS>BOND
     1    1    2 1
     2    1   30 1
     3    1   31 1
     4    1   32 1
     5    2    3 1
     6    2   33 1
     7    2   34 1
     8    3    4 1
     9    3   18 1
    10    4    5 1
    11    4   35 1
    12    4   36 1
    13    5   10 ar
    14    5    6 ar
    15    6    7 ar
    16    6   37 1
    17    7    8 ar
    18    8   15 ar
    19    8    9 ar
    20    9   10 ar
    21    9   12 ar
    22   10   11 1
    23   11   38 1
    24   11   39 1
    25   11   40 1
    26   12   13 ar
    27   12   17 1
    28   13   14 ar
    29   14   15 ar
    30   14   16 1
    31   16   41 1
    32   16   42 1
    33   17   43 1
    34   17   44 1
    35   18   23 ar
    36   18   19 ar
    37   19   20 ar
    38   19   45 1
    39   20   21 ar
    40   20   28 1
    41   21   22 ar
    42   21   26 1
    43   22   23 ar
    44   22   24 1
    45   23   46 1
    46   24   25 1
    47   25   47 1
    48   25   48 1
    49   25   49 1
    50   26   27 1
    51   27   50 1
    52   27   51 1
    53   27   52 1
    54   28   29 1
    55   29   53 1
    56   29   54 1
    57   29   55 1
@<TRIPOS>MOLECULE
ZINC03814956
   56    58     0     0     0
SMALL
USER_CHARGES

@<TRIPOS>ATOM
      1 C1         -0.6542    4.8508   -1.0483 C.3       1 <0>        -0.1756
      2 C2          0.3301    3.6798   -1.0754 C.3       1 <0>         0.1177
      3 N1          0.1691    2.8783    0.1403 N.pl3     1 <0>        -0.6210
      4 C3         -0.7791    1.7617    0.1612 C.3       1 <0>         0.1593
      5 C4         -0.3363    0.7081   -0.8211 C.ar      1 <0>        -0.1772
      6 C5         -0.9191    0.6421   -2.0811 C.ar      1 <0>         0.2281
      7 N2         -0.5553   -0.2594   -2.9655 N.ar      1 <0>        -0.5001
      8 C6          0.3866   -1.1610   -2.6860 C.ar      1 <0>         0.3965
      9 C7          1.0161   -1.1509   -1.4168 C.ar      1 <0>        -0.2336
     10 C8          0.6376   -0.1900   -0.4718 C.ar      1 <0>         0.0805
     11 C9          1.2820   -0.1451    0.8898 C.3       1 <0>        -0.1886
     12 C10         2.0134   -2.1202   -1.1479 C.ar      1 <0>         0.5789
     13 N3          2.3121   -2.9940   -2.0990 N.ar      1 <0>        -0.5721
     14 C11         1.6972   -2.9691   -3.2775 C.ar      1 <0>         0.7016
     15 N4          2.0526   -3.9066   -4.2284 N.pl3     1 <0>        -0.7784
     16 N5          2.6558   -2.1542    0.0703 N.pl3     1 <0>        -0.7969
     17 C12         0.9208    3.1791    1.2812 C.ar      1 <0>         0.2797
     18 C13         0.6618    2.5214    2.4761 C.ar      1 <0>        -0.3208
     19 C14         1.4094    2.8156    3.6057 C.ar      1 <0>         0.1961
     20 C15         2.4116    3.7763    3.5445 C.ar      1 <0>        -0.0186
     21 C16         2.6668    4.4380    2.3494 C.ar      1 <0>         0.1980
     22 C17         1.9216    4.1393    1.2194 C.ar      1 <0>        -0.3034
     23 O1          3.6471    5.3786    2.2887 O.3       1 <0>        -0.2966
     24 C18         3.8543    6.0192    1.0283 C.3       1 <0>         0.0246
     25 O2          3.1437    4.0688    4.6550 O.3       1 <0>        -0.3101
     26 C19         2.6498    5.1081    5.5024 C.3       1 <0>         0.0330
     27 O3          1.1590    2.1675    4.7748 O.3       1 <0>        -0.2958
     28 C20         0.1853    1.1221    4.7414 C.3       1 <0>         0.0240
     29 H1         -0.5344    5.4472   -1.9528 H         1 <0>         0.0695
     30 H2         -1.6734    4.4676   -0.9981 H         1 <0>         0.0602
     31 H3         -0.4561    5.4719   -0.1748 H         1 <0>         0.0636
     32 H4          1.3493    4.0630   -1.1256 H         1 <0>         0.0798
     33 H5          0.1320    3.0587   -1.9490 H         1 <0>         0.0696
     34 H6         -1.7704    2.1217   -0.1143 H         1 <0>         0.0935
     35 H7         -0.8136    1.3331    1.1628 H         1 <0>         0.1054
     36 H8         -1.6888    1.3534   -2.3419 H         1 <0>         0.1899
     37 H9          0.8010   -0.8726    1.5436 H         1 <0>         0.1047
     38 H10         2.3416   -0.3834    0.7983 H         1 <0>         0.1065
     39 H11         1.1693    0.8534    1.3123 H         1 <0>         0.1184
     40 H12         2.7375   -4.5640   -4.0291 H         1 <0>         0.4457
     41 H13         1.6173   -3.9074   -5.0952 H         1 <0>         0.4333
     42 H14         2.1587   -1.9835    0.8856 H         1 <0>         0.4366
     43 H15         3.6051   -2.3488    0.1128 H         1 <0>         0.4313
     44 H16        -0.1199    1.7778    2.5245 H         1 <0>         0.1368
     45 H17         2.1198    4.6535    0.2906 H         1 <0>         0.1374
     46 H18         2.9399    6.5291    0.7252 H         1 <0>         0.0584
     47 H19         4.6625    6.7450    1.1181 H         1 <0>         0.1063
     48 H20         4.1187    5.2719    0.2800 H         1 <0>         0.0563
     49 H21         3.3252    5.2393    6.3478 H         1 <0>         0.0931
     50 H22         2.5889    6.0387    4.9382 H         1 <0>         0.0434
     51 H23         1.6587    4.8390    5.8675 H         1 <0>         0.0436
     52 H24        -0.7557    1.5143    4.3556 H         1 <0>         0.0579
     53 H25         0.5368    0.3188    4.0940 H         1 <0>         0.0533
     54 H26         0.0321    0.7360    5.7491 H         1 <0>         0.1061
     55 N6          0.7304   -2.0900   -3.6437 N.ar      1 <0>        -0.5925
     56 H27         0.2750   -2.0824   -4.5339 H         1 <0>         0.4627
@<TRIPOS>BOND
     1    1    2 1
     2    1   29 1
     3    1   30 1
     4    1   31 1
     5    2    3 1
     6    2   32 1
     7    2   33 1
     8    3    4 1
     9    3   17 1
    10    4    5 1
    11    4   34 1
    12    4   35 1
    13    5   10 ar
    14    5    6 ar
    15    6    7 ar
    16    6   36 1
    17    7    8 ar
    18    8    9 ar
    19    8   55 ar
    20    9   10 ar
    21    9   12 ar
    22   10   11 1
    23   11   37 1
    24   11   38 1
    25   11   39 1
    26   12   13 ar
    27   12   16 1
    28   13   14 ar
    29   14   15 1
    30   14   55 ar
    31   15   40 1
    32   15   41 1
    33   16   42 1
    34   16   43 1
    35   17   22 ar
    36   17   18 ar
    37   18   19 ar
    38   18   44 1
    39   19   20 ar
    40   19   27 1
    41   20   21 ar
    42   20   25 1
    43   21   22 ar
    44   21   23 1
    45   22   45 1
    46   23   24 1
    47   24   46 1
    48   24   47 1
    49   24   48 1
    50   25   26 1
    51   26   49 1
    52   26   50 1
    53   26   51 1
    54   27   28 1
    55   28   52 1
    56   28   53 1
    57   28   54 1
    58   55   56 1
@<TRIPOS>MOLECULE
ZINC03814957
   43    46     0     0     0
SMALL
USER_CHARGES

@<TRIPOS>ATOM
      1 C1         -4.1072    7.7420   -2.6627 C.3       1 <0>        -0.1582
      2 C2         -4.1577    8.4769   -1.3480 C.ar      1 <0>         0.0609
      3 C3         -4.6686    7.8799   -0.2252 C.ar      1 <0>        -0.2192
      4 C4         -4.7097    8.5810    0.9736 C.ar      1 <0>         0.2100
      5 N1         -4.2585    9.8117    1.0714 N.ar      1 <0>        -0.4891
      6 C5         -3.7498   10.4472    0.0156 C.ar      1 <0>         0.4168
      7 C6         -3.6848    9.7895   -1.2377 C.ar      1 <0>        -0.2825
      8 C7         -3.1388   10.4892   -2.3422 C.ar      1 <0>         0.5247
      9 N2         -2.7132   11.7297   -2.1510 N.ar      1 <0>        -0.6168
     10 C8         -2.7923   12.3109   -0.9574 C.ar      1 <0>         0.6255
     11 N3         -3.2917   11.7041    0.1029 N.ar      1 <0>        -0.5913
     12 N4         -2.3321   13.6067   -0.8216 N.pl3     1 <0>        -0.8099
     13 N5         -3.0531    9.8958   -3.5825 N.pl3     1 <0>        -0.8447
     14 C9         -5.1905    6.4677   -0.2921 C.3       1 <0>         0.1778
     15 N6         -4.0673    5.5288   -0.2351 N.pl3     1 <0>        -0.7374
     16 C10        -4.3035    4.1566   -0.2814 C.ar      1 <0>         0.2304
     17 C11        -5.5918    3.6753   -0.3804 C.ar      1 <0>        -0.2194
     18 C12        -5.8384    2.3066   -0.4264 C.ar      1 <0>        -0.0596
     19 C13        -4.8180    1.4063   -0.3756 C.ar      1 <0>        -0.1716
     20 C14        -3.4899    1.8554   -0.2809 C.ar      1 <0>        -0.0097
     21 C15        -3.2262    3.2463   -0.2269 C.ar      1 <0>        -0.0967
     22 C16        -1.8994    3.6929   -0.1256 C.ar      1 <0>        -0.0959
     23 C17        -0.8850    2.7861   -0.0749 C.ar      1 <0>        -0.1304
     24 C18        -1.1436    1.4177   -0.1225 C.ar      1 <0>        -0.1063
     25 C19        -2.4174    0.9486   -0.2207 C.ar      1 <0>        -0.1161
     26 H1         -4.9682    8.0229   -3.2692 H         1 <0>         0.0883
     27 H2         -3.1901    8.0040   -3.1903 H         1 <0>         0.1004
     28 H3         -4.1267    6.6677   -2.4794 H         1 <0>         0.0875
     29 H4         -5.1193    8.1003    1.8497 H         1 <0>         0.1679
     30 H5         -1.9613   14.0725   -1.5874 H         1 <0>         0.4165
     31 H6         -2.3798   14.0506    0.0396 H         1 <0>         0.4192
     32 H7         -3.7859    9.3522   -3.9117 H         1 <0>         0.4187
     33 H8         -2.2599   10.0215   -4.1265 H         1 <0>         0.4109
     34 H9         -5.7357    6.3257   -1.2251 H         1 <0>         0.0743
     35 H10        -5.8583    6.2868    0.5502 H         1 <0>         0.0759
     36 H11        -3.1593    5.8626   -0.1650 H         1 <0>         0.3994
     37 H12        -6.4189    4.3685   -0.4224 H         1 <0>         0.1212
     38 H13        -6.8557    1.9526   -0.5041 H         1 <0>         0.1204
     39 H14        -5.0291    0.3478   -0.4130 H         1 <0>         0.1219
     40 H15        -1.6843    4.7506   -0.0877 H         1 <0>         0.1164
     41 H16         0.1350    3.1325    0.0031 H         1 <0>         0.1207
     42 H17        -0.3210    0.7190   -0.0813 H         1 <0>         0.1220
     43 H18        -2.6030   -0.1147   -0.2566 H         1 <0>         0.1271
@<TRIPOS>BOND
     1    1    2 1
     2    1   26 1
     3    1   27 1
     4    1   28 1
     5    2    7 ar
     6    2    3 ar
     7    3    4 ar
     8    3   14 1
     9    4    5 ar
    10    4   29 1
    11    5    6 ar
    12    6   11 ar
    13    6    7 ar
    14    7    8 ar
    15    8    9 ar
    16    8   13 1
    17    9   10 ar
    18   10   11 ar
    19   10   12 1
    20   12   30 1
    21   12   31 1
    22   13   32 1
    23   13   33 1
    24   14   15 1
    25   14   34 1
    26   14   35 1
    27   15   16 1
    28   15   36 1
    29   16   21 ar
    30   16   17 ar
    31   17   18 ar
    32   17   37 1
    33   18   19 ar
    34   18   38 1
    35   19   20 ar
    36   19   39 1
    37   20   25 ar
    38   20   21 ar
    39   21   22 ar
    40   22   23 ar
    41   22   40 1
    42   23   24 ar
    43   23   41 1
    44   24   25 ar
    45   24   42 1
    46   25   43 1
@<TRIPOS>MOLECULE
ZINC03814957
   44    47     0     0     0
SMALL
USER_CHARGES

@<TRIPOS>ATOM
      1 C1         -4.1072    7.7420   -2.6627 C.3       1 <0>        -0.1714
      2 C2         -4.1577    8.4769   -1.3480 C.ar      1 <0>         0.0781
      3 C3         -4.6686    7.8799   -0.2252 C.ar      1 <0>        -0.1756
      4 C4         -4.7097    8.5810    0.9736 C.ar      1 <0>         0.2373
      5 N1         -4.2585    9.8117    1.0714 N.ar      1 <0>        -0.4998
      6 C5         -3.7498   10.4472    0.0156 C.ar      1 <0>         0.4071
      7 C6         -3.6848    9.7895   -1.2377 C.ar      1 <0>        -0.2345
      8 C7         -3.1388   10.4892   -2.3422 C.ar      1 <0>         0.5806
      9 N2         -2.7132   11.7297   -2.1510 N.ar      1 <0>        -0.5713
     10 C8         -2.7923   12.3109   -0.9574 C.ar      1 <0>         0.6940
     11 N3         -2.3321   13.6067   -0.8216 N.pl3     1 <0>        -0.7774
     12 N4         -3.0531    9.8958   -3.5825 N.pl3     1 <0>        -0.8008
     13 C9         -5.1905    6.4677   -0.2921 C.3       1 <0>         0.1678
     14 N5         -4.0673    5.5288   -0.2351 N.pl3     1 <0>        -0.7452
     15 C10        -4.3035    4.1566   -0.2814 C.ar      1 <0>         0.2175
     16 C11        -5.5918    3.6753   -0.3804 C.ar      1 <0>        -0.2075
     17 C12        -5.8384    2.3066   -0.4264 C.ar      1 <0>        -0.0671
     18 C13        -4.8180    1.4063   -0.3756 C.ar      1 <0>        -0.1558
     19 C14        -3.4899    1.8554   -0.2809 C.ar      1 <0>        -0.0132
     20 C15        -3.2262    3.2463   -0.2269 C.ar      1 <0>        -0.0913
     21 C16        -1.8994    3.6929   -0.1256 C.ar      1 <0>        -0.1046
     22 C17        -0.8850    2.7861   -0.0749 C.ar      1 <0>        -0.1218
     23 C18        -1.1436    1.4177   -0.1225 C.ar      1 <0>        -0.1067
     24 C19        -2.4174    0.9486   -0.2207 C.ar      1 <0>        -0.1094
     25 H1         -4.9682    8.0229   -3.2692 H         1 <0>         0.1085
     26 H2         -3.1901    8.0040   -3.1903 H         1 <0>         0.1068
     27 H3         -4.1267    6.6677   -2.4794 H         1 <0>         0.1084
     28 H4         -5.1193    8.1003    1.8497 H         1 <0>         0.1934
     29 H5         -1.9613   14.0725   -1.5874 H         1 <0>         0.4463
     30 H6         -2.3798   14.0506    0.0396 H         1 <0>         0.4337
     31 H7         -3.7859    9.3522   -3.9117 H         1 <0>         0.4368
     32 H8         -2.2599   10.0215   -4.1265 H         1 <0>         0.4314
     33 H9         -5.7357    6.3257   -1.2251 H         1 <0>         0.0860
     34 H10        -5.8583    6.2868    0.5502 H         1 <0>         0.0866
     35 H11        -3.1593    5.8626   -0.1650 H         1 <0>         0.3987
     36 H12        -6.4189    4.3685   -0.4224 H         1 <0>         0.1209
     37 H13        -6.8557    1.9526   -0.5041 H         1 <0>         0.1241
     38 H14        -5.0291    0.3478   -0.4130 H         1 <0>         0.1262
     39 H15        -1.6843    4.7506   -0.0877 H         1 <0>         0.1132
     40 H16         0.1350    3.1325    0.0031 H         1 <0>         0.1221
     41 H17        -0.3210    0.7190   -0.0813 H         1 <0>         0.1255
     42 H18        -2.6030   -0.1147   -0.2566 H         1 <0>         0.1308
     43 N6         -3.2943   11.7391    0.1660 N.ar      1 <0>        -0.5897
     44 H19        -3.3139   12.2538    1.0231 H         1 <0>         0.4617
@<TRIPOS>BOND
     1    1    2 1
     2    1   25 1
     3    1   26 1
     4    1   27 1
     5    2    7 ar
     6    2    3 ar
     7    3    4 ar
     8    3   13 1
     9    4    5 ar
    10    4   28 1
    11    5    6 ar
    12    6    7 ar
    13    6   43 ar
    14    7    8 ar
    15    8    9 ar
    16    8   12 1
    17    9   10 ar
    18   10   11 1
    19   10   43 ar
    20   11   29 1
    21   11   30 1
    22   12   31 1
    23   12   32 1
    24   13   14 1
    25   13   33 1
    26   13   34 1
    27   14   15 1
    28   14   35 1
    29   15   20 ar
    30   15   16 ar
    31   16   17 ar
    32   16   36 1
    33   17   18 ar
    34   17   37 1
    35   18   19 ar
    36   18   38 1
    37   19   24 ar
    38   19   20 ar
    39   20   21 ar
    40   21   22 ar
    41   21   39 1
    42   22   23 ar
    43   22   40 1
    44   23   24 ar
    45   23   41 1
    46   24   42 1
    47   43   44 1
@<TRIPOS>MOLECULE
ZINC03814958
   47    50     0     0     0
SMALL
USER_CHARGES

@<TRIPOS>ATOM
      1 C1          1.7540   -6.6058   -2.7967 C.3       1 <0>        -0.1581
      2 C2          1.8474   -7.3532   -1.4914 C.ar      1 <0>         0.0606
      3 C3          2.3656   -6.7560   -0.3720 C.ar      1 <0>        -0.2178
      4 C4          2.4464   -7.4687    0.8179 C.ar      1 <0>         0.2098
      5 N1          2.0265   -8.7108    0.9106 N.ar      1 <0>        -0.4895
      6 C5          1.5127   -9.3470   -0.1423 C.ar      1 <0>         0.4165
      7 C6          1.4080   -8.6778   -1.3867 C.ar      1 <0>        -0.2825
      8 C7          0.8576   -9.3785   -2.4884 C.ar      1 <0>         0.5246
      9 N2          0.4653  -10.6309   -2.3028 N.ar      1 <0>        -0.6170
     10 C8          0.5812  -11.2227   -1.1175 C.ar      1 <0>         0.6252
     11 N3          1.0864  -10.6154   -0.0602 N.ar      1 <0>        -0.5913
     12 N4          0.1546  -12.5306   -0.9873 N.pl3     1 <0>        -0.8102
     13 N5          0.7338   -8.7742   -3.7201 N.pl3     1 <0>        -0.8447
     14 C9          2.8523   -5.3311   -0.4331 C.3       1 <0>         0.1799
     15 N6          1.7085   -4.4201   -0.3443 N.pl3     1 <0>        -0.7402
     16 C10         1.9116   -3.0384   -0.3800 C.ar      1 <0>         0.1957
     17 C11         3.1856   -2.5270   -0.4981 C.ar      1 <0>        -0.1774
     18 C12         3.4009   -1.1526   -0.5404 C.ar      1 <0>        -0.1640
     19 C13         2.3587   -0.2740   -0.4544 C.ar      1 <0>         0.0838
     20 C14         1.0414   -0.7585   -0.3324 C.ar      1 <0>        -0.0294
     21 C15         0.8139   -2.1564   -0.2948 C.ar      1 <0>        -0.0626
     22 C16        -0.4995   -2.6380   -0.1745 C.ar      1 <0>        -0.1058
     23 C17        -1.5352   -1.7580   -0.0944 C.ar      1 <0>        -0.1152
     24 C18        -1.3119   -0.3829   -0.1309 C.ar      1 <0>        -0.1185
     25 C19        -0.0521    0.1194   -0.2477 C.ar      1 <0>        -0.0921
     26 O1          2.5914    1.0649   -0.4921 O.3       1 <0>        -0.3173
     27 C20         3.9520    1.4837   -0.6171 C.3       1 <0>         0.0290
     28 H1          2.6096   -6.8594   -3.4226 H         1 <0>         0.0876
     29 H2          0.8334   -6.8839   -3.3096 H         1 <0>         0.1002
     30 H3          1.7516   -5.5333   -2.6018 H         1 <0>         0.0883
     31 H4          2.8613   -6.9877    1.6913 H         1 <0>         0.1677
     32 H5         -0.2197  -12.9969   -1.7511 H         1 <0>         0.4164
     33 H6          0.2295  -12.9823   -0.1322 H         1 <0>         0.4191
     34 H7          1.4470   -8.2097   -4.0572 H         1 <0>         0.4186
     35 H8         -0.0665   -8.9131   -4.2503 H         1 <0>         0.4109
     36 H9          3.3760   -5.1662   -1.3748 H         1 <0>         0.0721
     37 H10         3.5318   -5.1433    0.3982 H         1 <0>         0.0736
     38 H11         0.8101   -4.7763   -0.2607 H         1 <0>         0.3987
     39 H12         4.0270   -3.2010   -0.5638 H         1 <0>         0.1236
     40 H13         4.4080   -0.7749   -0.6383 H         1 <0>         0.1261
     41 H14        -0.6872   -3.7012   -0.1456 H         1 <0>         0.1201
     42 H15        -2.5445   -2.1310   -0.0015 H         1 <0>         0.1225
     43 H16        -2.1507    0.2943   -0.0660 H         1 <0>         0.1237
     44 H17         0.1059    1.1874   -0.2755 H         1 <0>         0.1321
     45 H18         4.5263    1.1104    0.2307 H         1 <0>         0.0543
     46 H19         4.3705    1.0875   -1.5422 H         1 <0>         0.0540
     47 H20         3.9968    2.5726   -0.6351 H         1 <0>         0.0988
@<TRIPOS>BOND
     1    1    2 1
     2    1   28 1
     3    1   29 1
     4    1   30 1
     5    2    7 ar
     6    2    3 ar
     7    3    4 ar
     8    3   14 1
     9    4    5 ar
    10    4   31 1
    11    5    6 ar
    12    6   11 ar
    13    6    7 ar
    14    7    8 ar
    15    8    9 ar
    16    8   13 1
    17    9   10 ar
    18   10   11 ar
    19   10   12 1
    20   12   32 1
    21   12   33 1
    22   13   34 1
    23   13   35 1
    24   14   15 1
    25   14   36 1
    26   14   37 1
    27   15   16 1
    28   15   38 1
    29   16   21 ar
    30   16   17 ar
    31   17   18 ar
    32   17   39 1
    33   18   19 ar
    34   18   40 1
    35   19   20 ar
    36   19   26 1
    37   20   25 ar
    38   20   21 ar
    39   21   22 ar
    40   22   23 ar
    41   22   41 1
    42   23   24 ar
    43   23   42 1
    44   24   25 ar
    45   24   43 1
    46   25   44 1
    47   26   27 1
    48   27   45 1
    49   27   46 1
    50   27   47 1
@<TRIPOS>MOLECULE
ZINC03814958
   48    51     0     0     0
SMALL
USER_CHARGES

@<TRIPOS>ATOM
      1 C1          1.7540   -6.6058   -2.7967 C.3       1 <0>        -0.1714
      2 C2          1.8474   -7.3532   -1.4914 C.ar      1 <0>         0.0778
      3 C3          2.3656   -6.7560   -0.3720 C.ar      1 <0>        -0.1741
      4 C4          2.4464   -7.4687    0.8179 C.ar      1 <0>         0.2369
      5 N1          2.0265   -8.7108    0.9106 N.ar      1 <0>        -0.5001
      6 C5          1.5127   -9.3470   -0.1423 C.ar      1 <0>         0.4064
      7 C6          1.4080   -8.6778   -1.3867 C.ar      1 <0>        -0.2344
      8 C7          0.8576   -9.3785   -2.4884 C.ar      1 <0>         0.5806
      9 N2          0.4653  -10.6309   -2.3028 N.ar      1 <0>        -0.5716
     10 C8          0.5812  -11.2227   -1.1175 C.ar      1 <0>         0.6939
     11 N3          0.1546  -12.5306   -0.9873 N.pl3     1 <0>        -0.7777
     12 N4          0.7338   -8.7742   -3.7201 N.pl3     1 <0>        -0.8008
     13 C9          2.8523   -5.3311   -0.4331 C.3       1 <0>         0.1698
     14 N5          1.7085   -4.4201   -0.3443 N.pl3     1 <0>        -0.7474
     15 C10         1.9116   -3.0384   -0.3800 C.ar      1 <0>         0.1799
     16 C11         3.1856   -2.5270   -0.4981 C.ar      1 <0>        -0.1634
     17 C12         3.4009   -1.1526   -0.5404 C.ar      1 <0>        -0.1751
     18 C13         2.3587   -0.2740   -0.4544 C.ar      1 <0>         0.1014
     19 C14         1.0414   -0.7585   -0.3324 C.ar      1 <0>        -0.0343
     20 C15         0.8139   -2.1564   -0.2948 C.ar      1 <0>        -0.0561
     21 C16        -0.4995   -2.6380   -0.1745 C.ar      1 <0>        -0.1148
     22 C17        -1.5352   -1.7580   -0.0944 C.ar      1 <0>        -0.1068
     23 C18        -1.3119   -0.3829   -0.1309 C.ar      1 <0>        -0.1191
     24 C19        -0.0521    0.1194   -0.2477 C.ar      1 <0>        -0.0854
     25 O1          2.5914    1.0649   -0.4921 O.3       1 <0>        -0.3146
     26 C20         3.9520    1.4837   -0.6171 C.3       1 <0>         0.0275
     27 H1          2.6096   -6.8594   -3.4226 H         1 <0>         0.1078
     28 H2          0.8334   -6.8839   -3.3096 H         1 <0>         0.1065
     29 H3          1.7516   -5.5333   -2.6018 H         1 <0>         0.1093
     30 H4          2.8613   -6.9877    1.6913 H         1 <0>         0.1932
     31 H5         -0.2197  -12.9969   -1.7511 H         1 <0>         0.4461
     32 H6          0.2295  -12.9823   -0.1322 H         1 <0>         0.4335
     33 H7          1.4470   -8.2097   -4.0572 H         1 <0>         0.4368
     34 H8         -0.0665   -8.9131   -4.2503 H         1 <0>         0.4313
     35 H9          3.3760   -5.1662   -1.3748 H         1 <0>         0.0838
     36 H10         3.5318   -5.1433    0.3982 H         1 <0>         0.0843
     37 H11         0.8101   -4.7763   -0.2607 H         1 <0>         0.3979
     38 H12         4.0270   -3.2010   -0.5638 H         1 <0>         0.1229
     39 H13         4.4080   -0.7749   -0.6383 H         1 <0>         0.1293
     40 H14        -0.6872   -3.7012   -0.1456 H         1 <0>         0.1169
     41 H15        -2.5445   -2.1310   -0.0015 H         1 <0>         0.1238
     42 H16        -2.1507    0.2943   -0.0660 H         1 <0>         0.1271
     43 H17         0.1059    1.1874   -0.2755 H         1 <0>         0.1354
     44 H18         4.5263    1.1104    0.2307 H         1 <0>         0.0563
     45 H19         4.3705    1.0875   -1.5422 H         1 <0>         0.0560
     46 H20         3.9968    2.5726   -0.6351 H         1 <0>         0.1028
     47 N6          1.0910  -10.6510    0.0024 N.ar      1 <0>        -0.5897
     48 H21         1.1395  -11.1742    0.8532 H         1 <0>         0.4616
@<TRIPOS>BOND
     1    1    2 1
     2    1   27 1
     3    1   28 1
     4    1   29 1
     5    2    7 ar
     6    2    3 ar
     7    3    4 ar
     8    3   13 1
     9    4    5 ar
    10    4   30 1
    11    5    6 ar
    12    6    7 ar
    13    6   47 ar
    14    7    8 ar
    15    8    9 ar
    16    8   12 1
    17    9   10 ar
    18   10   11 1
    19   10   47 ar
    20   11   31 1
    21   11   32 1
    22   12   33 1
    23   12   34 1
    24   13   14 1
    25   13   35 1
    26   13   36 1
    27   14   15 1
    28   14   37 1
    29   15   20 ar
    30   15   16 ar
    31   16   17 ar
    32   16   38 1
    33   17   18 ar
    34   17   39 1
    35   18   19 ar
    36   18   25 1
    37   19   24 ar
    38   19   20 ar
    39   20   21 ar
    40   21   22 ar
    41   21   40 1
    42   22   23 ar
    43   22   41 1
    44   23   24 ar
    45   23   42 1
    46   24   43 1
    47   25   26 1
    48   26   44 1
    49   26   45 1
    50   26   46 1
    51   47   48 1
@<TRIPOS>MOLECULE
ZINC03814959
   37    39     0     0     0
SMALL
USER_CHARGES

@<TRIPOS>ATOM
      1 C1          3.7100   -2.1602   -2.1195 C.3       1 <0>         0.0931
      2 N1          4.1233   -0.9376   -1.4260 N.pl3     1 <0>        -0.6203
      3 C2          3.7112   -0.7071   -0.0392 C.3       1 <0>         0.1615
      4 C3          2.3960    0.0285   -0.0217 C.ar      1 <0>        -0.1125
      5 C4          1.2084   -0.6789   -0.0136 C.ar      1 <0>        -0.1046
      6 C5          0.0021   -0.0041    0.0020 C.ar      1 <0>        -0.1212
      7 C6         -0.0167    1.3781    0.0096 C.ar      1 <0>        -0.1158
      8 C7          1.1709    2.0855    0.0021 C.ar      1 <0>        -0.1179
      9 C8          2.3773    1.4107   -0.0141 C.ar      1 <0>        -0.1074
     10 C9          4.9118    0.0100   -2.0884 C.ar      1 <0>         0.1268
     11 C10         5.3089   -0.2061   -3.3983 C.ar      1 <0>        -0.1020
     12 C11         6.0921    0.7760   -4.0156 C.ar      1 <0>        -0.2346
     13 C12         6.5419    0.6476   -5.3531 C.ar      1 <0>         0.5126
     14 N2          7.2845    1.6202   -5.8618 N.ar      1 <0>        -0.6283
     15 C13         7.6042    2.6928   -5.1432 C.ar      1 <0>         0.6177
     16 N3          7.2115    2.8618   -3.8954 N.ar      1 <0>        -0.5922
     17 C14         6.4555    1.9350   -3.2867 C.ar      1 <0>         0.3686
     18 N4          6.0478    2.0849   -2.0266 N.ar      1 <0>        -0.4494
     19 C15         5.3082    1.1764   -1.4321 C.ar      1 <0>         0.1359
     20 N5          8.3820    3.6739   -5.7301 N.pl3     1 <0>        -0.8172
     21 N6          6.2154   -0.4599   -6.1056 N.pl3     1 <0>        -0.8180
     22 H1          2.7584   -1.9884   -2.6227 H         1 <0>         0.0498
     23 H2          4.4660   -2.4337   -2.8554 H         1 <0>         0.0662
     24 H3          3.5979   -2.9679   -1.3962 H         1 <0>         0.0710
     25 H4          4.4679   -0.1107    0.4703 H         1 <0>         0.0853
     26 H5          3.5990   -1.6641    0.4703 H         1 <0>         0.0896
     27 H6          1.2231   -1.7587   -0.0199 H         1 <0>         0.1199
     28 H7         -0.9258   -0.5567    0.0079 H         1 <0>         0.1220
     29 H8         -0.9592    1.9054    0.0170 H         1 <0>         0.1219
     30 H9          1.1563    3.1654    0.0077 H         1 <0>         0.1233
     31 H10         3.3051    1.9634   -0.0207 H         1 <0>         0.1221
     32 H11         5.0200   -1.1022   -3.9275 H         1 <0>         0.1344
     33 H12         4.9988    1.3363   -0.4097 H         1 <0>         0.1635
     34 H13         8.6273    4.4650   -5.2252 H         1 <0>         0.4166
     35 H14         8.6824    3.5711   -6.6466 H         1 <0>         0.4135
     36 H15         6.5298   -0.5348   -7.0202 H         1 <0>         0.4132
     37 H16         5.6711   -1.1645   -5.7207 H         1 <0>         0.4127
@<TRIPOS>BOND
     1    1    2 1
     2    1   22 1
     3    1   23 1
     4    1   24 1
     5    2    3 1
     6    2   10 1
     7    3    4 1
     8    3   25 1
     9    3   26 1
    10    4    9 ar
    11    4    5 ar
    12    5    6 ar
    13    5   27 1
    14    6    7 ar
    15    6   28 1
    16    7    8 ar
    17    7   29 1
    18    8    9 ar
    19    8   30 1
    20    9   31 1
    21   10   19 ar
    22   10   11 ar
    23   11   12 ar
    24   11   32 1
    25   12   17 ar
    26   12   13 ar
    27   13   14 ar
    28   13   21 1
    29   14   15 ar
    30   15   16 ar
    31   15   20 1
    32   16   17 ar
    33   17   18 ar
    34   18   19 ar
    35   19   33 1
    36   20   34 1
    37   20   35 1
    38   21   36 1
    39   21   37 1
@<TRIPOS>MOLECULE
ZINC03814959
   38    40     0     0     0
SMALL
USER_CHARGES

@<TRIPOS>ATOM
      1 C1          3.7100   -2.1602   -2.1195 C.3       1 <0>         0.0790
      2 N1          4.1233   -0.9376   -1.4260 N.pl3     1 <0>        -0.5996
      3 C2          3.7112   -0.7071   -0.0392 C.3       1 <0>         0.1528
      4 C3          2.3960    0.0285   -0.0217 C.ar      1 <0>        -0.1237
      5 C4          1.2084   -0.6789   -0.0136 C.ar      1 <0>        -0.1000
      6 C5          0.0021   -0.0041    0.0020 C.ar      1 <0>        -0.1158
      7 C6         -0.0167    1.3781    0.0096 C.ar      1 <0>        -0.1074
      8 C7          1.1709    2.0855    0.0021 C.ar      1 <0>        -0.1169
      9 C8          2.3773    1.4107   -0.0141 C.ar      1 <0>        -0.1114
     10 C9          4.9118    0.0100   -2.0884 C.ar      1 <0>         0.1731
     11 C10         5.3089   -0.2061   -3.3983 C.ar      1 <0>        -0.0966
     12 C11         6.0921    0.7760   -4.0156 C.ar      1 <0>        -0.1707
     13 C12         6.5419    0.6476   -5.3531 C.ar      1 <0>         0.5655
     14 N2          7.2845    1.6202   -5.8618 N.ar      1 <0>        -0.5845
     15 C13         7.6042    2.6928   -5.1432 C.ar      1 <0>         0.6938
     16 C14         6.4555    1.9350   -3.2867 C.ar      1 <0>         0.3282
     17 N3          6.0478    2.0849   -2.0266 N.ar      1 <0>        -0.4527
     18 C15         5.3082    1.1764   -1.4321 C.ar      1 <0>         0.1446
     19 N4          8.3820    3.6739   -5.7301 N.pl3     1 <0>        -0.7867
     20 N5          6.2154   -0.4599   -6.1056 N.pl3     1 <0>        -0.7638
     21 H1          2.7584   -1.9884   -2.6227 H         1 <0>         0.0650
     22 H2          4.4660   -2.4337   -2.8554 H         1 <0>         0.0719
     23 H3          3.5979   -2.9679   -1.3962 H         1 <0>         0.0861
     24 H4          4.4679   -0.1107    0.4703 H         1 <0>         0.0906
     25 H5          3.5990   -1.6641    0.4703 H         1 <0>         0.1029
     26 H6          1.2231   -1.7587   -0.0199 H         1 <0>         0.1235
     27 H7         -0.9258   -0.5567    0.0079 H         1 <0>         0.1273
     28 H8         -0.9592    1.9054    0.0170 H         1 <0>         0.1268
     29 H9          1.1563    3.1654    0.0077 H         1 <0>         0.1257
     30 H10         3.3051    1.9634   -0.0207 H         1 <0>         0.1177
     31 H11         5.0200   -1.1022   -3.9275 H         1 <0>         0.1603
     32 H12         4.9988    1.3363   -0.4097 H         1 <0>         0.1850
     33 H13         8.6273    4.4650   -5.2252 H         1 <0>         0.4313
     34 H14         8.6824    3.5711   -6.6466 H         1 <0>         0.4432
     35 H15         6.5298   -0.5348   -7.0202 H         1 <0>         0.4336
     36 H16         5.6711   -1.1645   -5.7207 H         1 <0>         0.4307
     37 N6          7.2310    2.9216   -3.8597 N.ar      1 <0>        -0.5868
     38 H17         7.5193    3.7600   -3.3971 H         1 <0>         0.4577
@<TRIPOS>BOND
     1    1    2 1
     2    1   21 1
     3    1   22 1
     4    1   23 1
     5    2    3 1
     6    2   10 1
     7    3    4 1
     8    3   24 1
     9    3   25 1
    10    4    9 ar
    11    4    5 ar
    12    5    6 ar
    13    5   26 1
    14    6    7 ar
    15    6   27 1
    16    7    8 ar
    17    7   28 1
    18    8    9 ar
    19    8   29 1
    20    9   30 1
    21   10   18 ar
    22   10   11 ar
    23   11   12 ar
    24   11   31 1
    25   12   16 ar
    26   12   13 ar
    27   13   14 ar
    28   13   20 1
    29   14   15 ar
    30   15   19 1
    31   15   37 ar
    32   16   17 ar
    33   16   37 ar
    34   17   18 ar
    35   18   32 1
    36   19   33 1
    37   19   34 1
    38   20   35 1
    39   20   36 1
    40   37   38 1
@<TRIPOS>MOLECULE
ZINC03814960
   49    51     0     0     0
SMALL
USER_CHARGES

@<TRIPOS>ATOM
      1 C1         -0.9195    5.4817   -2.6788 C.3       1 <0>         0.0926
      2 N1         -0.8045    6.3364   -1.4946 N.pl3     1 <0>        -0.6193
      3 C2          0.2110    6.0479   -0.4789 C.3       1 <0>         0.1616
      4 C3         -0.3657    5.1191    0.5583 C.ar      1 <0>        -0.0373
      5 C4         -0.9998    5.6377    1.6717 C.ar      1 <0>        -0.2216
      6 C5         -1.5314    4.7865    2.6286 C.ar      1 <0>         0.1533
      7 C6         -1.4309    3.4101    2.4642 C.ar      1 <0>         0.0308
      8 C7         -0.7875    2.8927    1.3463 C.ar      1 <0>         0.1494
      9 C8         -0.2586    3.7508    0.3940 C.ar      1 <0>        -0.2184
     10 O1         -0.6816    1.5467    1.1837 O.3       1 <0>        -0.3022
     11 C9         -0.0127    1.0858    0.0080 C.3       1 <0>         0.0254
     12 O2         -1.9566    2.5712    3.3981 O.3       1 <0>        -0.3131
     13 C10        -1.1017    2.1816    4.4748 C.3       1 <0>         0.0355
     14 O3         -2.1556    5.2977    3.7234 O.3       1 <0>        -0.3016
     15 C11        -2.2275    6.7214    3.8234 C.3       1 <0>         0.0236
     16 C12        -1.6646    7.4285   -1.3337 C.ar      1 <0>         0.1257
     17 C13        -2.6230    7.7090   -2.2945 C.ar      1 <0>        -0.0986
     18 C14        -3.4610    8.8096   -2.0816 C.ar      1 <0>        -0.2348
     19 C15        -4.4737    9.1725   -3.0039 C.ar      1 <0>         0.5133
     20 N2         -5.2211   10.2322   -2.7307 N.ar      1 <0>        -0.6281
     21 C16        -5.0329   10.9428   -1.6222 C.ar      1 <0>         0.6189
     22 N3         -4.1057   10.6481   -0.7316 N.ar      1 <0>        -0.5926
     23 C17        -3.2954    9.5939   -0.9137 C.ar      1 <0>         0.3699
     24 N4         -2.3516    9.2780   -0.0272 N.ar      1 <0>        -0.4494
     25 C18        -1.5589    8.2460   -0.2071 C.ar      1 <0>         0.1343
     26 N5         -5.8452   12.0381   -1.3933 N.pl3     1 <0>        -0.8167
     27 N6         -4.6765    8.4420   -4.1549 N.pl3     1 <0>        -0.8176
     28 H1         -1.6170    4.6694   -2.4742 H         1 <0>         0.0506
     29 H2         -1.2856    6.0720   -3.5188 H         1 <0>         0.0674
     30 H3          0.0584    5.0676   -2.9245 H         1 <0>         0.0713
     31 H4          0.5219    6.9773   -0.0016 H         1 <0>         0.0886
     32 H5          1.0728    5.5757   -0.9505 H         1 <0>         0.0935
     33 H6         -1.0811    6.7074    1.7966 H         1 <0>         0.1353
     34 H7          0.2374    3.3495   -0.4774 H         1 <0>         0.1340
     35 H8          0.0021   -0.0041    0.0020 H         1 <0>         0.1034
     36 H9          1.0099    1.4631    0.0003 H         1 <0>         0.0572
     37 H10        -0.5399    1.4469   -0.8751 H         1 <0>         0.0569
     38 H11        -0.7819    3.0674    5.0237 H         1 <0>         0.0449
     39 H12        -1.6431    1.5144    5.1455 H         1 <0>         0.0930
     40 H13        -0.2279    1.6658    4.0766 H         1 <0>         0.0441
     41 H14        -1.2195    7.1358    3.8408 H         1 <0>         0.0589
     42 H15        -2.7691    7.1191    2.9651 H         1 <0>         0.0597
     43 H16        -2.7488    6.9953    4.7407 H         1 <0>         0.1049
     44 H17        -2.7228    7.0954   -3.1776 H         1 <0>         0.1350
     45 H18        -0.8068    8.0242    0.5355 H         1 <0>         0.1615
     46 H19        -5.7264   12.5709   -0.5914 H         1 <0>         0.4167
     47 H20        -6.5338   12.2737   -2.0345 H         1 <0>         0.4138
     48 H21        -5.3736    8.7015   -4.7775 H         1 <0>         0.4136
     49 H22        -4.1221    7.6685   -4.3425 H         1 <0>         0.4128
@<TRIPOS>BOND
     1    1    2 1
     2    1   28 1
     3    1   29 1
     4    1   30 1
     5    2    3 1
     6    2   16 1
     7    3    4 1
     8    3   31 1
     9    3   32 1
    10    4    9 ar
    11    4    5 ar
    12    5    6 ar
    13    5   33 1
    14    6    7 ar
    15    6   14 1
    16    7    8 ar
    17    7   12 1
    18    8    9 ar
    19    8   10 1
    20    9   34 1
    21   10   11 1
    22   11   35 1
    23   11   36 1
    24   11   37 1
    25   12   13 1
    26   13   38 1
    27   13   39 1
    28   13   40 1
    29   14   15 1
    30   15   41 1
    31   15   42 1
    32   15   43 1
    33   16   25 ar
    34   16   17 ar
    35   17   18 ar
    36   17   44 1
    37   18   23 ar
    38   18   19 ar
    39   19   20 ar
    40   19   27 1
    41   20   21 ar
    42   21   22 ar
    43   21   26 1
    44   22   23 ar
    45   23   24 ar
    46   24   25 ar
    47   25   45 1
    48   26   46 1
    49   26   47 1
    50   27   48 1
    51   27   49 1
@<TRIPOS>MOLECULE
ZINC03814960
   50    52     0     0     0
SMALL
USER_CHARGES

@<TRIPOS>ATOM
      1 C1         -0.9195    5.4817   -2.6788 C.3       1 <0>         0.0785
      2 N1         -0.8045    6.3364   -1.4946 N.pl3     1 <0>        -0.5992
      3 C2          0.2110    6.0479   -0.4789 C.3       1 <0>         0.1532
      4 C3         -0.3657    5.1191    0.5583 C.ar      1 <0>        -0.0485
      5 C4         -0.9998    5.6377    1.6717 C.ar      1 <0>        -0.2266
      6 C5         -1.5314    4.7865    2.6286 C.ar      1 <0>         0.1532
      7 C6         -1.4309    3.4101    2.4642 C.ar      1 <0>         0.0391
      8 C7         -0.7875    2.8927    1.3463 C.ar      1 <0>         0.1544
      9 C8         -0.2586    3.7508    0.3940 C.ar      1 <0>        -0.2148
     10 O1         -0.6816    1.5467    1.1837 O.3       1 <0>        -0.2984
     11 C9         -0.0127    1.0858    0.0080 C.3       1 <0>         0.0239
     12 O2         -1.9566    2.5712    3.3981 O.3       1 <0>        -0.3133
     13 C10        -1.1017    2.1816    4.4748 C.3       1 <0>         0.0350
     14 O3         -2.1556    5.2977    3.7234 O.3       1 <0>        -0.2981
     15 C11        -2.2275    6.7214    3.8234 C.3       1 <0>         0.0252
     16 C12        -1.6646    7.4285   -1.3337 C.ar      1 <0>         0.1731
     17 C13        -2.6230    7.7090   -2.2945 C.ar      1 <0>        -0.0937
     18 C14        -3.4610    8.8096   -2.0816 C.ar      1 <0>        -0.1705
     19 C15        -4.4737    9.1725   -3.0039 C.ar      1 <0>         0.5658
     20 N2         -5.2211   10.2322   -2.7307 N.ar      1 <0>        -0.5841
     21 C16        -5.0329   10.9428   -1.6222 C.ar      1 <0>         0.6944
     22 C17        -3.2954    9.5939   -0.9137 C.ar      1 <0>         0.3296
     23 N3         -2.3516    9.2780   -0.0272 N.ar      1 <0>        -0.4527
     24 C18        -1.5589    8.2460   -0.2071 C.ar      1 <0>         0.1424
     25 N4         -5.8452   12.0381   -1.3933 N.pl3     1 <0>        -0.7861
     26 N5         -4.6765    8.4420   -4.1549 N.pl3     1 <0>        -0.7631
     27 H1         -1.6170    4.6694   -2.4742 H         1 <0>         0.0656
     28 H2         -1.2856    6.0720   -3.5188 H         1 <0>         0.0731
     29 H3          0.0584    5.0676   -2.9245 H         1 <0>         0.0864
     30 H4          0.5219    6.9773   -0.0016 H         1 <0>         0.0938
     31 H5          1.0728    5.5757   -0.9505 H         1 <0>         0.1067
     32 H6         -1.0811    6.7074    1.7966 H         1 <0>         0.1306
     33 H7          0.2374    3.3495   -0.4774 H         1 <0>         0.1371
     34 H8          0.0021   -0.0041    0.0020 H         1 <0>         0.1077
     35 H9          1.0099    1.4631    0.0003 H         1 <0>         0.0593
     36 H10        -0.5399    1.4469   -0.8751 H         1 <0>         0.0573
     37 H11        -0.7819    3.0674    5.0237 H         1 <0>         0.0463
     38 H12        -1.6431    1.5144    5.1455 H         1 <0>         0.0973
     39 H13        -0.2279    1.6658    4.0766 H         1 <0>         0.0469
     40 H14        -1.2195    7.1358    3.8408 H         1 <0>         0.0593
     41 H15        -2.7691    7.1191    2.9651 H         1 <0>         0.0527
     42 H16        -2.7488    6.9953    4.7407 H         1 <0>         0.1068
     43 H17        -2.7228    7.0954   -3.1776 H         1 <0>         0.1611
     44 H18        -0.8068    8.0242    0.5355 H         1 <0>         0.1832
     45 H19        -5.7264   12.5709   -0.5914 H         1 <0>         0.4314
     46 H20        -6.5338   12.2737   -2.0345 H         1 <0>         0.4434
     47 H21        -5.3736    8.7015   -4.7775 H         1 <0>         0.4339
     48 H22        -4.1221    7.6685   -4.3425 H         1 <0>         0.4308
     49 N6         -4.0987   10.6893   -0.6726 N.ar      1 <0>        -0.5873
     50 H23        -4.0301   11.2798    0.1315 H         1 <0>         0.4577
@<TRIPOS>BOND
     1    1    2 1
     2    1   27 1
     3    1   28 1
     4    1   29 1
     5    2    3 1
     6    2   16 1
     7    3    4 1
     8    3   30 1
     9    3   31 1
    10    4    9 ar
    11    4    5 ar
    12    5    6 ar
    13    5   32 1
    14    6    7 ar
    15    6   14 1
    16    7    8 ar
    17    7   12 1
    18    8    9 ar
    19    8   10 1
    20    9   33 1
    21   10   11 1
    22   11   34 1
    23   11   35 1
    24   11   36 1
    25   12   13 1
    26   13   37 1
    27   13   38 1
    28   13   39 1
    29   14   15 1
    30   15   40 1
    31   15   41 1
    32   15   42 1
    33   16   24 ar
    34   16   17 ar
    35   17   18 ar
    36   17   43 1
    37   18   22 ar
    38   18   19 ar
    39   19   20 ar
    40   19   26 1
    41   20   21 ar
    42   21   25 1
    43   21   49 ar
    44   22   23 ar
    45   22   49 ar
    46   23   24 ar
    47   24   44 1
    48   25   45 1
    49   25   46 1
    50   26   47 1
    51   26   48 1
    52   49   50 1
@<TRIPOS>MOLECULE
ZINC03814961
   49    51     0     0     0
SMALL
USER_CHARGES

@<TRIPOS>ATOM
      1 C1         -3.8799    2.4555   -1.6116 C.3       1 <0>         0.1023
      2 N1         -3.0627    1.2695   -1.3439 N.pl3     1 <0>        -0.6152
      3 C2         -2.4635    1.0761   -0.0211 C.3       1 <0>         0.1749
      4 C3         -1.0857    1.6864    0.0004 C.ar      1 <0>        -0.1563
      5 C4          0.0296    0.8768   -0.1087 C.ar      1 <0>        -0.0579
      6 C5          1.2952    1.4321   -0.0953 C.ar      1 <0>        -0.2004
      7 C6          1.4511    2.8042    0.0335 C.ar      1 <0>         0.1260
      8 C7          0.3328    3.6208    0.1492 C.ar      1 <0>         0.0395
      9 C8         -0.9383    3.0584    0.1352 C.ar      1 <0>         0.1375
     10 O1         -2.0359    3.8534    0.2476 O.3       1 <0>        -0.3259
     11 C9         -2.4504    4.2040    1.5694 C.3       1 <0>         0.0362
     12 O2          0.4816    4.9676    0.2762 O.3       1 <0>        -0.3200
     13 C10         0.5976    5.7242   -0.9305 C.3       1 <0>         0.0396
     14 O3          2.6968    3.3496    0.0471 O.3       1 <0>        -0.3051
     15 C11         3.8003    2.4500   -0.0757 C.3       1 <0>         0.0233
     16 C12        -2.8544    0.3212   -2.3518 C.ar      1 <0>         0.1282
     17 C13        -3.4190    0.4996   -3.6047 C.ar      1 <0>        -0.1020
     18 C14        -3.1792   -0.4789   -4.5762 C.ar      1 <0>        -0.2338
     19 C15        -3.7129   -0.3845   -5.8855 C.ar      1 <0>         0.5123
     20 N2         -3.4378   -1.3531   -6.7469 N.ar      1 <0>        -0.6286
     21 C16        -2.6821   -2.3914   -6.4004 C.ar      1 <0>         0.6170
     22 N3         -2.1613   -2.5277   -5.1961 N.ar      1 <0>        -0.5927
     23 C17        -2.3792   -1.6014   -4.2498 C.ar      1 <0>         0.3673
     24 N4         -1.8627   -1.7185   -3.0268 N.ar      1 <0>        -0.4500
     25 C18        -2.0718   -0.8077   -2.1034 C.ar      1 <0>         0.1358
     26 N5         -2.4311   -3.3705   -7.3439 N.pl3     1 <0>        -0.8177
     27 N6         -4.4970    0.6876   -6.2538 N.pl3     1 <0>        -0.8181
     28 H1         -3.2612    3.2272   -2.0698 H         1 <0>         0.0511
     29 H2         -4.6924    2.1917   -2.2887 H         1 <0>         0.0585
     30 H3         -4.2941    2.8302   -0.6756 H         1 <0>         0.0733
     31 H4         -2.3919    0.0098    0.1930 H         1 <0>         0.0852
     32 H5         -3.0858    1.5573    0.7335 H         1 <0>         0.0887
     33 H6         -0.0885   -0.1920   -0.2092 H         1 <0>         0.1352
     34 H7          2.1638    0.7968   -0.1856 H         1 <0>         0.1384
     35 H8         -3.3847    4.7634    1.5209 H         1 <0>         0.0958
     36 H9         -2.5998    3.2975    2.1559 H         1 <0>         0.0467
     37 H10        -1.6830    4.8187    2.0398 H         1 <0>         0.0543
     38 H11        -0.3324    5.6535   -1.4945 H         1 <0>         0.0466
     39 H12         0.7967    6.7679   -0.6873 H         1 <0>         0.0934
     40 H13         1.4172    5.3282   -1.5302 H         1 <0>         0.0451
     41 H14         3.7830    1.7388    0.7501 H         1 <0>         0.0592
     42 H15         3.7266    1.9114   -1.0205 H         1 <0>         0.0577
     43 H16         4.7330    3.0134   -0.0505 H         1 <0>         0.1038
     44 H17        -4.0246    1.3663   -3.8246 H         1 <0>         0.1340
     45 H18        -1.6309   -0.9379   -1.1262 H         1 <0>         0.1612
     46 H19        -1.8824   -4.1366   -7.1137 H         1 <0>         0.4163
     47 H20        -2.8037   -3.2913   -8.2359 H         1 <0>         0.4133
     48 H21        -4.6899    1.3900   -5.6133 H         1 <0>         0.4130
     49 H22        -4.8558    0.7396   -7.1534 H         1 <0>         0.4130
@<TRIPOS>BOND
     1    1    2 1
     2    1   28 1
     3    1   29 1
     4    1   30 1
     5    2    3 1
     6    2   16 1
     7    3    4 1
     8    3   31 1
     9    3   32 1
    10    4    9 ar
    11    4    5 ar
    12    5    6 ar
    13    5   33 1
    14    6    7 ar
    15    6   34 1
    16    7    8 ar
    17    7   14 1
    18    8    9 ar
    19    8   12 1
    20    9   10 1
    21   10   11 1
    22   11   35 1
    23   11   36 1
    24   11   37 1
    25   12   13 1
    26   13   38 1
    27   13   39 1
    28   13   40 1
    29   14   15 1
    30   15   41 1
    31   15   42 1
    32   15   43 1
    33   16   25 ar
    34   16   17 ar
    35   17   18 ar
    36   17   44 1
    37   18   23 ar
    38   18   19 ar
    39   19   20 ar
    40   19   27 1
    41   20   21 ar
    42   21   22 ar
    43   21   26 1
    44   22   23 ar
    45   23   24 ar
    46   24   25 ar
    47   25   45 1
    48   26   46 1
    49   26   47 1
    50   27   48 1
    51   27   49 1
@<TRIPOS>MOLECULE
ZINC03814961
   50    52     0     0     0
SMALL
USER_CHARGES

@<TRIPOS>ATOM
      1 C1         -3.8799    2.4555   -1.6116 C.3       1 <0>         0.0871
      2 N1         -3.0627    1.2695   -1.3439 N.pl3     1 <0>        -0.5936
      3 C2         -2.4635    1.0761   -0.0211 C.3       1 <0>         0.1660
      4 C3         -1.0857    1.6864    0.0004 C.ar      1 <0>        -0.1699
      5 C4          0.0296    0.8768   -0.1087 C.ar      1 <0>        -0.0602
      6 C5          1.2952    1.4321   -0.0953 C.ar      1 <0>        -0.2017
      7 C6          1.4511    2.8042    0.0335 C.ar      1 <0>         0.1342
      8 C7          0.3328    3.6208    0.1492 C.ar      1 <0>         0.0438
      9 C8         -0.9383    3.0584    0.1352 C.ar      1 <0>         0.1409
     10 O1         -2.0359    3.8534    0.2476 O.3       1 <0>        -0.3293
     11 C9         -2.4504    4.2040    1.5694 C.3       1 <0>         0.0345
     12 O2          0.4816    4.9676    0.2762 O.3       1 <0>        -0.3182
     13 C10         0.5976    5.7242   -0.9305 C.3       1 <0>         0.0398
     14 O3          2.6968    3.3496    0.0471 O.3       1 <0>        -0.3014
     15 C11         3.8003    2.4500   -0.0757 C.3       1 <0>         0.0223
     16 C12        -2.8544    0.3212   -2.3518 C.ar      1 <0>         0.1742
     17 C13        -3.4190    0.4996   -3.6047 C.ar      1 <0>        -0.0966
     18 C14        -3.1792   -0.4789   -4.5762 C.ar      1 <0>        -0.1699
     19 C15        -3.7129   -0.3845   -5.8855 C.ar      1 <0>         0.5654
     20 N2         -3.4378   -1.3531   -6.7469 N.ar      1 <0>        -0.5849
     21 C16        -2.6821   -2.3914   -6.4004 C.ar      1 <0>         0.6935
     22 C17        -2.3792   -1.6014   -4.2498 C.ar      1 <0>         0.3256
     23 N3         -1.8627   -1.7185   -3.0268 N.ar      1 <0>        -0.4529
     24 C18        -2.0718   -0.8077   -2.1034 C.ar      1 <0>         0.1440
     25 N4         -2.4311   -3.3705   -7.3439 N.pl3     1 <0>        -0.7874
     26 N5         -4.4970    0.6876   -6.2538 N.pl3     1 <0>        -0.7638
     27 H1         -3.2612    3.2272   -2.0698 H         1 <0>         0.0659
     28 H2         -4.6924    2.1917   -2.2887 H         1 <0>         0.0656
     29 H3         -4.2941    2.8302   -0.6756 H         1 <0>         0.0880
     30 H4         -2.3919    0.0098    0.1930 H         1 <0>         0.0908
     31 H5         -3.0858    1.5573    0.7335 H         1 <0>         0.1014
     32 H6         -0.0885   -0.1920   -0.2092 H         1 <0>         0.1325
     33 H7          2.1638    0.7968   -0.1856 H         1 <0>         0.1404
     34 H8         -3.3847    4.7634    1.5209 H         1 <0>         0.0995
     35 H9         -2.5998    3.2975    2.1559 H         1 <0>         0.0481
     36 H10        -1.6830    4.8187    2.0398 H         1 <0>         0.0583
     37 H11        -0.3324    5.6535   -1.4945 H         1 <0>         0.0464
     38 H12         0.7967    6.7679   -0.6873 H         1 <0>         0.0974
     39 H13         1.4172    5.3282   -1.5302 H         1 <0>         0.0459
     40 H14         3.7830    1.7388    0.7501 H         1 <0>         0.0613
     41 H15         3.7266    1.9114   -1.0205 H         1 <0>         0.0575
     42 H16         4.7330    3.0134   -0.0505 H         1 <0>         0.1079
     43 H17        -4.0246    1.3663   -3.8246 H         1 <0>         0.1599
     44 H18        -1.6309   -0.9379   -1.1262 H         1 <0>         0.1827
     45 H19        -1.8824   -4.1366   -7.1137 H         1 <0>         0.4310
     46 H20        -2.8037   -3.2913   -8.2359 H         1 <0>         0.4430
     47 H21        -4.6899    1.3900   -5.6133 H         1 <0>         0.4310
     48 H22        -4.8558    0.7396   -7.1534 H         1 <0>         0.4334
     49 N6         -2.1207   -2.5857   -5.1812 N.ar      1 <0>        -0.5868
     50 H23        -1.5649   -3.3993   -5.0106 H         1 <0>         0.4572
@<TRIPOS>BOND
     1    1    2 1
     2    1   27 1
     3    1   28 1
     4    1   29 1
     5    2    3 1
     6    2   16 1
     7    3    4 1
     8    3   30 1
     9    3   31 1
    10    4    9 ar
    11    4    5 ar
    12    5    6 ar
    13    5   32 1
    14    6    7 ar
    15    6   33 1
    16    7    8 ar
    17    7   14 1
    18    8    9 ar
    19    8   12 1
    20    9   10 1
    21   10   11 1
    22   11   34 1
    23   11   35 1
    24   11   36 1
    25   12   13 1
    26   13   37 1
    27   13   38 1
    28   13   39 1
    29   14   15 1
    30   15   40 1
    31   15   41 1
    32   15   42 1
    33   16   24 ar
    34   16   17 ar
    35   17   18 ar
    36   17   43 1
    37   18   22 ar
    38   18   19 ar
    39   19   20 ar
    40   19   26 1
    41   20   21 ar
    42   21   25 1
    43   21   49 ar
    44   22   23 ar
    45   22   49 ar
    46   23   24 ar
    47   24   44 1
    48   25   45 1
    49   25   46 1
    50   26   47 1
    51   26   48 1
    52   49   50 1
@<TRIPOS>MOLECULE
ZINC03814962
   45    47     0     0     0
SMALL
USER_CHARGES

@<TRIPOS>ATOM
      1 C1         -1.1720   -2.1895    0.0020 C.3       1 <0>         0.0922
      2 N1         -1.1974   -0.7248    0.0101 N.pl3     1 <0>        -0.6194
      3 C2         -2.4786   -0.0145    0.0266 C.3       1 <0>         0.1625
      4 C3         -2.9321    0.2367   -1.3884 C.ar      1 <0>        -0.0351
      5 C4         -2.5637    1.4014   -2.0343 C.ar      1 <0>        -0.1766
      6 C5         -2.9753    1.6324   -3.3393 C.ar      1 <0>         0.1699
      7 C6         -3.7656    0.6985   -3.9913 C.ar      1 <0>        -0.2951
      8 C7         -4.1385   -0.4667   -3.3392 C.ar      1 <0>         0.1662
      9 C8         -3.7201   -0.6955   -2.0359 C.ar      1 <0>        -0.1743
     10 O1         -4.9128   -1.3843   -3.9758 O.3       1 <0>        -0.3135
     11 C9         -5.3066   -1.0830   -5.3160 C.3       1 <0>         0.0262
     12 O2         -2.6078    2.7753   -3.9760 O.3       1 <0>        -0.3104
     13 C10        -3.0717    2.9491   -5.3164 C.3       1 <0>         0.0261
     14 C11         0.0021   -0.0041    0.0020 C.ar      1 <0>         0.1261
     15 C12         1.2166   -0.6713   -0.0132 C.ar      1 <0>        -0.1012
     16 C13         2.3861    0.0975   -0.0202 C.ar      1 <0>        -0.2353
     17 C14         3.6740   -0.4932   -0.0352 C.ar      1 <0>         0.5125
     18 N2          4.7311    0.3058   -0.0406 N.ar      1 <0>        -0.6287
     19 C15         4.5968    1.6291   -0.0321 C.ar      1 <0>         0.6174
     20 N3          3.4223    2.2293   -0.0181 N.ar      1 <0>        -0.5919
     21 C16         2.2889    1.5107   -0.0116 C.ar      1 <0>         0.3692
     22 N4          1.0918    2.0964    0.0029 N.ar      1 <0>        -0.4486
     23 C17        -0.0169    1.3917    0.0097 C.ar      1 <0>         0.1383
     24 N5          5.7381    2.4096   -0.0378 N.pl3     1 <0>        -0.8175
     25 N6          3.8233   -1.8634   -0.0436 N.pl3     1 <0>        -0.8184
     26 H1         -1.1555   -2.5583    1.0275 H         1 <0>         0.0535
     27 H2         -2.0606   -2.5655   -0.5051 H         1 <0>         0.0716
     28 H3         -0.2810   -2.5345   -0.5226 H         1 <0>         0.0650
     29 H4         -3.2228   -0.6194    0.5446 H         1 <0>         0.0957
     30 H5         -2.3598    0.9373    0.5444 H         1 <0>         0.0910
     31 H6         -1.9514    2.1305   -1.5245 H         1 <0>         0.1335
     32 H7         -4.0900    0.8781   -5.0056 H         1 <0>         0.1344
     33 H8         -4.0103   -1.6031   -1.5275 H         1 <0>         0.1314
     34 H9         -5.8815   -0.1570   -5.3263 H         1 <0>         0.0560
     35 H10        -4.4191   -0.9667   -5.9380 H         1 <0>         0.0551
     36 H11        -5.9196   -1.8956   -5.7060 H         1 <0>         0.1033
     37 H12        -2.7077    3.8997   -5.7065 H         1 <0>         0.1039
     38 H13        -2.6995    2.1349   -5.9382 H         1 <0>         0.0547
     39 H14        -4.1616    2.9455   -5.3270 H         1 <0>         0.0559
     40 H15         1.2593   -1.7505   -0.0197 H         1 <0>         0.1346
     41 H16        -0.9669    1.9052    0.0169 H         1 <0>         0.1642
     42 H17         6.6126    1.9900   -0.0478 H         1 <0>         0.4133
     43 H18         5.6643    3.3768   -0.0318 H         1 <0>         0.4165
     44 H19         3.0408   -2.4366   -0.0393 H         1 <0>         0.4127
     45 H20         4.7109   -2.2544   -0.0539 H         1 <0>         0.4130
@<TRIPOS>BOND
     1    1    2 1
     2    1   26 1
     3    1   27 1
     4    1   28 1
     5    2    3 1
     6    2   14 1
     7    3    4 1
     8    3   29 1
     9    3   30 1
    10    4    9 ar
    11    4    5 ar
    12    5    6 ar
    13    5   31 1
    14    6    7 ar
    15    6   12 1
    16    7    8 ar
    17    7   32 1
    18    8    9 ar
    19    8   10 1
    20    9   33 1
    21   10   11 1
    22   11   34 1
    23   11   35 1
    24   11   36 1
    25   12   13 1
    26   13   37 1
    27   13   38 1
    28   13   39 1
    29   14   23 ar
    30   14   15 ar
    31   15   16 ar
    32   15   40 1
    33   16   21 ar
    34   16   17 ar
    35   17   18 ar
    36   17   25 1
    37   18   19 ar
    38   19   20 ar
    39   19   24 1
    40   20   21 ar
    41   21   22 ar
    42   22   23 ar
    43   23   41 1
    44   24   42 1
    45   24   43 1
    46   25   44 1
    47   25   45 1
@<TRIPOS>MOLECULE
ZINC03814962
   46    48     0     0     0
SMALL
USER_CHARGES

@<TRIPOS>ATOM
      1 C1         -1.1720   -2.1895    0.0020 C.3       1 <0>         0.0783
      2 N1         -1.1974   -0.7248    0.0101 N.pl3     1 <0>        -0.5992
      3 C2         -2.4786   -0.0145    0.0266 C.3       1 <0>         0.1540
      4 C3         -2.9321    0.2367   -1.3884 C.ar      1 <0>        -0.0448
      5 C4         -2.5637    1.4014   -2.0343 C.ar      1 <0>        -0.1836
      6 C5         -2.9753    1.6324   -3.3393 C.ar      1 <0>         0.1728
      7 C6         -3.7656    0.6985   -3.9913 C.ar      1 <0>        -0.2910
      8 C7         -4.1385   -0.4667   -3.3392 C.ar      1 <0>         0.1738
      9 C8         -3.7201   -0.6955   -2.0359 C.ar      1 <0>        -0.1724
     10 O1         -4.9128   -1.3843   -3.9758 O.3       1 <0>        -0.3106
     11 C9         -5.3066   -1.0830   -5.3160 C.3       1 <0>         0.0243
     12 O2         -2.6078    2.7753   -3.9760 O.3       1 <0>        -0.3125
     13 C10        -3.0717    2.9491   -5.3164 C.3       1 <0>         0.0242
     14 C11         0.0021   -0.0041    0.0020 C.ar      1 <0>         0.1726
     15 C12         1.2166   -0.6713   -0.0132 C.ar      1 <0>        -0.0960
     16 C13         2.3861    0.0975   -0.0202 C.ar      1 <0>        -0.1717
     17 C14         3.6740   -0.4932   -0.0352 C.ar      1 <0>         0.5656
     18 N2          4.7311    0.3058   -0.0406 N.ar      1 <0>        -0.5849
     19 C15         4.5968    1.6291   -0.0321 C.ar      1 <0>         0.6936
     20 C16         2.2889    1.5107   -0.0116 C.ar      1 <0>         0.3290
     21 N3          1.0918    2.0964    0.0029 N.ar      1 <0>        -0.4521
     22 C17        -0.0169    1.3917    0.0097 C.ar      1 <0>         0.1476
     23 N4          5.7381    2.4096   -0.0378 N.pl3     1 <0>        -0.7872
     24 N5          3.8233   -1.8634   -0.0436 N.pl3     1 <0>        -0.7643
     25 H1         -1.1555   -2.5583    1.0275 H         1 <0>         0.0686
     26 H2         -2.0606   -2.5655   -0.5051 H         1 <0>         0.0863
     27 H3         -0.2810   -2.5345   -0.5226 H         1 <0>         0.0707
     28 H4         -3.2228   -0.6194    0.5446 H         1 <0>         0.1088
     29 H5         -2.3598    0.9373    0.5444 H         1 <0>         0.0962
     30 H6         -1.9514    2.1305   -1.5245 H         1 <0>         0.1289
     31 H7         -4.0900    0.8781   -5.0056 H         1 <0>         0.1382
     32 H8         -4.0103   -1.6031   -1.5275 H         1 <0>         0.1345
     33 H9         -5.8815   -0.1570   -5.3263 H         1 <0>         0.0588
     34 H10        -4.4191   -0.9667   -5.9380 H         1 <0>         0.0569
     35 H11        -5.9196   -1.8956   -5.7060 H         1 <0>         0.1077
     36 H12        -2.7077    3.8997   -5.7065 H         1 <0>         0.1067
     37 H13        -2.6995    2.1349   -5.9382 H         1 <0>         0.0568
     38 H14        -4.1616    2.9455   -5.3270 H         1 <0>         0.0595
     39 H15         1.2593   -1.7505   -0.0197 H         1 <0>         0.1605
     40 H16        -0.9669    1.9052    0.0169 H         1 <0>         0.1858
     41 H17         6.6126    1.9900   -0.0478 H         1 <0>         0.4430
     42 H18         5.6643    3.3768   -0.0318 H         1 <0>         0.4312
     43 H19         3.0408   -2.4366   -0.0393 H         1 <0>         0.4307
     44 H20         4.7109   -2.2544   -0.0539 H         1 <0>         0.4333
     45 N6          3.4193    2.3016   -0.0177 N.ar      1 <0>        -0.5866
     46 H21         3.4146    3.3016   -0.0122 H         1 <0>         0.4577
@<TRIPOS>BOND
     1    1    2 1
     2    1   25 1
     3    1   26 1
     4    1   27 1
     5    2    3 1
     6    2   14 1
     7    3    4 1
     8    3   28 1
     9    3   29 1
    10    4    9 ar
    11    4    5 ar
    12    5    6 ar
    13    5   30 1
    14    6    7 ar
    15    6   12 1
    16    7    8 ar
    17    7   31 1
    18    8    9 ar
    19    8   10 1
    20    9   32 1
    21   10   11 1
    22   11   33 1
    23   11   34 1
    24   11   35 1
    25   12   13 1
    26   13   36 1
    27   13   37 1
    28   13   38 1
    29   14   22 ar
    30   14   15 ar
    31   15   16 ar
    32   15   39 1
    33   16   20 ar
    34   16   17 ar
    35   17   18 ar
    36   17   24 1
    37   18   19 ar
    38   19   23 1
    39   19   45 ar
    40   20   21 ar
    41   20   45 ar
    42   21   22 ar
    43   22   40 1
    44   23   41 1
    45   23   42 1
    46   24   43 1
    47   24   44 1
    48   45   46 1
@<TRIPOS>MOLECULE
ZINC03814963
   42    44     0     0     0
SMALL
USER_CHARGES

@<TRIPOS>ATOM
      1 C1          2.4206    4.1127    0.0006 C.3       1 <0>         0.0269
      2 O1          1.1563    3.4467    0.0091 O.3       1 <0>        -0.3162
      3 C2          1.1747    2.0870    0.0021 C.ar      1 <0>         0.0909
      4 C3          2.3853    1.4098   -0.0136 C.ar      1 <0>        -0.1584
      5 C4          2.4041    0.0289   -0.0207 C.ar      1 <0>        -0.1707
      6 C5          1.2123   -0.6810   -0.0132 C.ar      1 <0>         0.1108
      7 C6          0.0021   -0.0041    0.0020 C.ar      1 <0>        -0.1026
      8 C7         -0.0167    1.3773    0.0096 C.ar      1 <0>        -0.0926
      9 C8         -1.2926   -0.7753    0.0107 C.3       1 <0>         0.1747
     10 N1         -1.5760   -1.2385    1.3714 N.pl3     1 <0>        -0.7328
     11 C9         -2.7328   -1.9821    1.6307 C.ar      1 <0>         0.1313
     12 C10        -3.0053   -2.4226    2.9160 C.ar      1 <0>        -0.1033
     13 C11        -4.1756   -3.1623    3.1203 C.ar      1 <0>        -0.2334
     14 C12        -4.5397   -3.6550    4.3980 C.ar      1 <0>         0.5118
     15 N2         -5.6650   -4.3463    4.5070 N.ar      1 <0>        -0.6290
     16 C13        -6.4386   -4.5774    3.4500 C.ar      1 <0>         0.6165
     17 N3         -6.1462   -4.1419    2.2398 N.ar      1 <0>        -0.5924
     18 C14        -5.0288   -3.4312    2.0219 C.ar      1 <0>         0.3664
     19 N4         -4.7138   -2.9810    0.8077 N.ar      1 <0>        -0.4502
     20 C15        -3.6228   -2.2801    0.5974 C.ar      1 <0>         0.1375
     21 N5         -7.6004   -5.3057    3.6277 N.pl3     1 <0>        -0.8181
     22 N6         -3.7445   -3.4206    5.4991 N.pl3     1 <0>        -0.8185
     23 O2          1.2307   -2.0407   -0.0211 O.3       1 <0>        -0.3086
     24 C16         2.5126   -2.6721   -0.0367 C.3       1 <0>         0.0264
     25 H1          2.2631    5.1912    0.0075 H         1 <0>         0.1020
     26 H2          2.9898    3.8229    0.8838 H         1 <0>         0.0549
     27 H3          2.9732    3.8319   -0.8960 H         1 <0>         0.0554
     28 H4          3.3132    1.9625   -0.0198 H         1 <0>         0.1327
     29 H5          3.3466   -0.4984   -0.0325 H         1 <0>         0.1335
     30 H6         -0.9592    1.9045    0.0169 H         1 <0>         0.1415
     31 H7         -2.1024   -0.1297   -0.3293 H         1 <0>         0.0727
     32 H8         -1.2085   -1.6340   -0.6553 H         1 <0>         0.0772
     33 H9         -0.9617   -1.0298    2.0925 H         1 <0>         0.4013
     34 H10        -2.3358   -2.2017    3.7343 H         1 <0>         0.1315
     35 H11        -3.4066   -1.9296   -0.4010 H         1 <0>         0.1640
     36 H12        -8.1802   -5.4863    2.8712 H         1 <0>         0.4163
     37 H13        -7.8358   -5.6361    4.5088 H         1 <0>         0.4131
     38 H14        -2.9236   -2.9125    5.4052 H         1 <0>         0.4132
     39 H15        -4.0057   -3.7638    6.3680 H         1 <0>         0.4126
     40 H16         3.0739   -2.3767    0.8498 H         1 <0>         0.0547
     41 H17         2.3845   -3.7545   -0.0416 H         1 <0>         0.1015
     42 H18         3.0572   -2.3665   -0.9300 H         1 <0>         0.0556
@<TRIPOS>BOND
     1    1    2 1
     2    1   25 1
     3    1   26 1
     4    1   27 1
     5    2    3 1
     6    3    8 ar
     7    3    4 ar
     8    4    5 ar
     9    4   28 1
    10    5    6 ar
    11    5   29 1
    12    6    7 ar
    13    6   23 1
    14    7    8 ar
    15    7    9 1
    16    8   30 1
    17    9   10 1
    18    9   31 1
    19    9   32 1
    20   10   11 1
    21   10   33 1
    22   11   20 ar
    23   11   12 ar
    24   12   13 ar
    25   12   34 1
    26   13   18 ar
    27   13   14 ar
    28   14   15 ar
    29   14   22 1
    30   15   16 ar
    31   16   17 ar
    32   16   21 1
    33   17   18 ar
    34   18   19 ar
    35   19   20 ar
    36   20   35 1
    37   21   36 1
    38   21   37 1
    39   22   38 1
    40   22   39 1
    41   23   24 1
    42   24   40 1
    43   24   41 1
    44   24   42 1
@<TRIPOS>MOLECULE
ZINC03814963
   43    45     0     0     0
SMALL
USER_CHARGES

@<TRIPOS>ATOM
      1 C1          2.4206    4.1127    0.0006 C.3       1 <0>         0.0251
      2 O1          1.1563    3.4467    0.0091 O.3       1 <0>        -0.3150
      3 C2          1.1747    2.0870    0.0021 C.ar      1 <0>         0.0953
      4 C3          2.3853    1.4098   -0.0136 C.ar      1 <0>        -0.1514
      5 C4          2.4041    0.0289   -0.0207 C.ar      1 <0>        -0.1671
      6 C5          1.2123   -0.6810   -0.0132 C.ar      1 <0>         0.1108
      7 C6          0.0021   -0.0041    0.0020 C.ar      1 <0>        -0.1158
      8 C7         -0.0167    1.3773    0.0096 C.ar      1 <0>        -0.0927
      9 C8         -1.2926   -0.7753    0.0107 C.3       1 <0>         0.1664
     10 N1         -1.5760   -1.2385    1.3714 N.pl3     1 <0>        -0.7096
     11 C9         -2.7328   -1.9821    1.6307 C.ar      1 <0>         0.1766
     12 C10        -3.0053   -2.4226    2.9160 C.ar      1 <0>        -0.0946
     13 C11        -4.1756   -3.1623    3.1203 C.ar      1 <0>        -0.1709
     14 C12        -4.5397   -3.6550    4.3980 C.ar      1 <0>         0.5654
     15 N2         -5.6650   -4.3463    4.5070 N.ar      1 <0>        -0.5856
     16 C13        -6.4386   -4.5774    3.4500 C.ar      1 <0>         0.6937
     17 C14        -5.0288   -3.4312    2.0219 C.ar      1 <0>         0.3262
     18 N3         -4.7138   -2.9810    0.8077 N.ar      1 <0>        -0.4529
     19 C15        -3.6228   -2.2801    0.5974 C.ar      1 <0>         0.1469
     20 N4         -7.6004   -5.3057    3.6277 N.pl3     1 <0>        -0.7876
     21 N5         -3.7445   -3.4206    5.4991 N.pl3     1 <0>        -0.7642
     22 O2          1.2307   -2.0407   -0.0211 O.3       1 <0>        -0.3145
     23 C16         2.5126   -2.6721   -0.0367 C.3       1 <0>         0.0250
     24 H1          2.2631    5.1912    0.0075 H         1 <0>         0.1054
     25 H2          2.9898    3.8229    0.8838 H         1 <0>         0.0569
     26 H3          2.9732    3.8319   -0.8960 H         1 <0>         0.0579
     27 H4          3.3132    1.9625   -0.0198 H         1 <0>         0.1367
     28 H5          3.3466   -0.4984   -0.0325 H         1 <0>         0.1366
     29 H6         -0.9592    1.9045    0.0169 H         1 <0>         0.1419
     30 H7         -2.1024   -0.1297   -0.3293 H         1 <0>         0.0832
     31 H8         -1.2085   -1.6340   -0.6553 H         1 <0>         0.0873
     32 H9         -0.9617   -1.0298    2.0925 H         1 <0>         0.4125
     33 H10        -2.3358   -2.2017    3.7343 H         1 <0>         0.1585
     34 H11        -3.4066   -1.9296   -0.4010 H         1 <0>         0.1860
     35 H12        -8.1802   -5.4863    2.8712 H         1 <0>         0.4311
     36 H13        -7.8358   -5.6361    4.5088 H         1 <0>         0.4428
     37 H14        -2.9236   -2.9125    5.4052 H         1 <0>         0.4312
     38 H15        -4.0057   -3.7638    6.3680 H         1 <0>         0.4331
     39 H16         3.0739   -2.3767    0.8498 H         1 <0>         0.0570
     40 H17         2.3845   -3.7545   -0.0416 H         1 <0>         0.1028
     41 H18         3.0572   -2.3665   -0.9300 H         1 <0>         0.0590
     42 N6         -6.1910   -4.1566    2.1849 N.ar      1 <0>        -0.5868
     43 H19        -6.8318   -4.3781    1.4498 H         1 <0>         0.4574
@<TRIPOS>BOND
     1    1    2 1
     2    1   24 1
     3    1   25 1
     4    1   26 1
     5    2    3 1
     6    3    8 ar
     7    3    4 ar
     8    4    5 ar
     9    4   27 1
    10    5    6 ar
    11    5   28 1
    12    6    7 ar
    13    6   22 1
    14    7    8 ar
    15    7    9 1
    16    8   29 1
    17    9   10 1
    18    9   30 1
    19    9   31 1
    20   10   11 1
    21   10   32 1
    22   11   19 ar
    23   11   12 ar
    24   12   13 ar
    25   12   33 1
    26   13   17 ar
    27   13   14 ar
    28   14   15 ar
    29   14   21 1
    30   15   16 ar
    31   16   20 1
    32   16   42 ar
    33   17   18 ar
    34   17   42 ar
    35   18   19 ar
    36   19   34 1
    37   20   35 1
    38   20   36 1
    39   21   37 1
    40   21   38 1
    41   22   23 1
    42   23   39 1
    43   23   40 1
    44   23   41 1
    45   42   43 1
@<TRIPOS>MOLECULE
ZINC03814965
   40    43     0     0     0
SMALL
USER_CHARGES

@<TRIPOS>ATOM
      1 C1          2.2865    5.2702    0.0076 C.ar      1 <0>        -0.1158
      2 C2          1.0643    5.9401    0.0230 C.ar      1 <0>        -0.1110
      3 C3         -0.1108    5.2538    0.0306 C.ar      1 <0>        -0.1090
      4 C4         -0.0954    3.8484    0.0237 C.ar      1 <0>        -0.0363
      5 C5          1.1475    3.1672    0.0081 C.ar      1 <0>        -0.0554
      6 C6          2.3404    3.9104    0.0001 C.ar      1 <0>        -0.1045
      7 C7          1.1629    1.7623    0.0004 C.ar      1 <0>        -0.0945
      8 C8         -0.0126    1.0758    0.0080 C.ar      1 <0>        -0.1206
      9 C9         -1.2344    1.7455    0.0174 C.ar      1 <0>        -0.0895
     10 C10        -1.2880    3.1056    0.0315 C.ar      1 <0>        -0.0988
     11 C11        -2.6196    3.8110    0.0475 C.3       1 <0>         0.1638
     12 N1         -2.9518    4.2579   -1.3075 N.pl3     1 <0>        -0.7374
     13 C12        -4.1492    4.9424   -1.5447 C.ar      1 <0>         0.1257
     14 C13        -4.4679    5.3672   -2.8247 C.ar      1 <0>        -0.0993
     15 C14        -5.6776    6.0472   -3.0067 C.ar      1 <0>        -0.2346
     16 C15        -6.0903    6.5196   -4.2772 C.ar      1 <0>         0.5127
     17 N2         -7.2507    7.1536   -4.3647 N.ar      1 <0>        -0.6288
     18 C16        -8.0145    7.3469   -3.2931 C.ar      1 <0>         0.6181
     19 N3         -7.6775    6.9279   -2.0887 N.ar      1 <0>        -0.5929
     20 C17        -6.5219    6.2743   -1.8922 C.ar      1 <0>         0.3685
     21 N4         -6.1617    5.8418   -0.6841 N.ar      1 <0>        -0.4498
     22 C18        -5.0330    5.1967   -0.4946 C.ar      1 <0>         0.1369
     23 N5         -9.2145    8.0159   -3.4486 N.pl3     1 <0>        -0.8172
     24 N6         -5.3055    6.3241   -5.3933 N.pl3     1 <0>        -0.8179
     25 H1          3.2046    5.8389    0.0011 H         1 <0>         0.1241
     26 H2          1.0496    7.0200    0.0286 H         1 <0>         0.1235
     27 H3         -1.0504    5.7863    0.0418 H         1 <0>         0.1286
     28 H4          3.2947    3.4051   -0.0122 H         1 <0>         0.1280
     29 H5          2.1024    1.2298   -0.0118 H         1 <0>         0.1288
     30 H6          0.0021   -0.0041    0.0020 H         1 <0>         0.1265
     31 H7         -2.1526    1.1769    0.0184 H         1 <0>         0.1264
     32 H8         -3.3894    3.1261    0.4031 H         1 <0>         0.0735
     33 H9         -2.5659    4.6736    0.7117 H         1 <0>         0.0730
     34 H10        -2.3418    4.0795   -2.0403 H         1 <0>         0.4027
     35 H11        -3.8041    5.1792   -3.6556 H         1 <0>         0.1323
     36 H12        -4.7805    4.8585    0.4995 H         1 <0>         0.1636
     37 H13        -9.7880    8.1680   -2.6812 H         1 <0>         0.4167
     38 H14        -9.4829    8.3331   -4.3251 H         1 <0>         0.4135
     39 H15        -4.4586    5.8578   -5.3150 H         1 <0>         0.4133
     40 H16        -5.6002    6.6527   -6.2570 H         1 <0>         0.4131
@<TRIPOS>BOND
     1    1    6 ar
     2    1    2 ar
     3    1   25 1
     4    2    3 ar
     5    2   26 1
     6    3    4 ar
     7    3   27 1
     8    4   10 ar
     9    4    5 ar
    10    5    6 ar
    11    5    7 ar
    12    6   28 1
    13    7    8 ar
    14    7   29 1
    15    8    9 ar
    16    8   30 1
    17    9   10 ar
    18    9   31 1
    19   10   11 1
    20   11   12 1
    21   11   32 1
    22   11   33 1
    23   12   13 1
    24   12   34 1
    25   13   22 ar
    26   13   14 ar
    27   14   15 ar
    28   14   35 1
    29   15   20 ar
    30   15   16 ar
    31   16   17 ar
    32   16   24 1
    33   17   18 ar
    34   18   19 ar
    35   18   23 1
    36   19   20 ar
    37   20   21 ar
    38   21   22 ar
    39   22   36 1
    40   23   37 1
    41   23   38 1
    42   24   39 1
    43   24   40 1
@<TRIPOS>MOLECULE
ZINC03814965
   41    44     0     0     0
SMALL
USER_CHARGES

@<TRIPOS>ATOM
      1 C1          2.2865    5.2702    0.0076 C.ar      1 <0>        -0.1166
      2 C2          1.0643    5.9401    0.0230 C.ar      1 <0>        -0.1025
      3 C3         -0.1108    5.2538    0.0306 C.ar      1 <0>        -0.1205
      4 C4         -0.0954    3.8484    0.0237 C.ar      1 <0>        -0.0340
      5 C5          1.1475    3.1672    0.0081 C.ar      1 <0>        -0.0568
      6 C6          2.3404    3.9104    0.0001 C.ar      1 <0>        -0.0972
      7 C7          1.1629    1.7623    0.0004 C.ar      1 <0>        -0.0823
      8 C8         -0.0126    1.0758    0.0080 C.ar      1 <0>        -0.1251
      9 C9         -1.2344    1.7455    0.0174 C.ar      1 <0>        -0.0791
     10 C10        -1.2880    3.1056    0.0315 C.ar      1 <0>        -0.1163
     11 C11        -2.6196    3.8110    0.0475 C.3       1 <0>         0.1559
     12 N1         -2.9518    4.2579   -1.3075 N.pl3     1 <0>        -0.7149
     13 C12        -4.1492    4.9424   -1.5447 C.ar      1 <0>         0.1721
     14 C13        -4.4679    5.3672   -2.8247 C.ar      1 <0>        -0.0914
     15 C14        -5.6776    6.0472   -3.0067 C.ar      1 <0>        -0.1718
     16 C15        -6.0903    6.5196   -4.2772 C.ar      1 <0>         0.5655
     17 N2         -7.2507    7.1536   -4.3647 N.ar      1 <0>        -0.5850
     18 C16        -8.0145    7.3469   -3.2931 C.ar      1 <0>         0.6943
     19 C17        -6.5219    6.2743   -1.8922 C.ar      1 <0>         0.3292
     20 N3         -6.1617    5.8418   -0.6841 N.ar      1 <0>        -0.4528
     21 C18        -5.0330    5.1967   -0.4946 C.ar      1 <0>         0.1462
     22 N4         -9.2145    8.0159   -3.4486 N.pl3     1 <0>        -0.7866
     23 N5         -5.3055    6.3241   -5.3933 N.pl3     1 <0>        -0.7634
     24 H1          3.2046    5.8389    0.0011 H         1 <0>         0.1276
     25 H2          1.0496    7.0200    0.0286 H         1 <0>         0.1247
     26 H3         -1.0504    5.7863    0.0418 H         1 <0>         0.1237
     27 H4          3.2947    3.4051   -0.0122 H         1 <0>         0.1317
     28 H5          2.1024    1.2298   -0.0118 H         1 <0>         0.1329
     29 H6          0.0021   -0.0041    0.0020 H         1 <0>         0.1301
     30 H7         -2.1526    1.1769    0.0184 H         1 <0>         0.1269
     31 H8         -3.3894    3.1261    0.4031 H         1 <0>         0.0836
     32 H9         -2.5659    4.6736    0.7117 H         1 <0>         0.0831
     33 H10        -2.3418    4.0795   -2.0403 H         1 <0>         0.4139
     34 H11        -3.8041    5.1792   -3.6556 H         1 <0>         0.1593
     35 H12        -4.7805    4.8585    0.4995 H         1 <0>         0.1857
     36 H13        -9.7880    8.1680   -2.6812 H         1 <0>         0.4314
     37 H14        -9.4829    8.3331   -4.3251 H         1 <0>         0.4432
     38 H15        -4.4586    5.8578   -5.3150 H         1 <0>         0.4314
     39 H16        -5.6002    6.6527   -6.2570 H         1 <0>         0.4335
     40 N6         -7.7219    6.9404   -2.0330 N.ar      1 <0>        -0.5875
     41 H17        -8.3588    7.1303   -1.2858 H         1 <0>         0.4578
@<TRIPOS>BOND
     1    1    6 ar
     2    1    2 ar
     3    1   24 1
     4    2    3 ar
     5    2   25 1
     6    3    4 ar
     7    3   26 1
     8    4   10 ar
     9    4    5 ar
    10    5    6 ar
    11    5    7 ar
    12    6   27 1
    13    7    8 ar
    14    7   28 1
    15    8    9 ar
    16    8   29 1
    17    9   10 ar
    18    9   30 1
    19   10   11 1
    20   11   12 1
    21   11   31 1
    22   11   32 1
    23   12   13 1
    24   12   33 1
    25   13   21 ar
    26   13   14 ar
    27   14   15 ar
    28   14   34 1
    29   15   19 ar
    30   15   16 ar
    31   16   17 ar
    32   16   23 1
    33   17   18 ar
    34   18   22 1
    35   18   40 ar
    36   19   20 ar
    37   19   40 ar
    38   20   21 ar
    39   21   35 1
    40   22   36 1
    41   22   37 1
    42   23   38 1
    43   23   39 1
    44   40   41 1
@<TRIPOS>MOLECULE
ZINC03814966
   44    47     0     0     0
SMALL
USER_CHARGES

@<TRIPOS>ATOM
      1 C1         -6.9531   -4.6112    1.3963 C.3       1 <0>         0.0251
      2 O1         -6.4705   -4.1806    0.1220 O.3       1 <0>        -0.3110
      3 C2         -5.2012   -3.7003    0.0736 C.ar      1 <0>         0.1587
      4 C3         -4.4432   -3.6433    1.2094 C.ar      1 <0>        -0.2295
      5 C4         -3.1409   -3.1533    1.1765 C.ar      1 <0>        -0.0461
      6 C5         -2.5838   -2.7165    0.0132 C.ar      1 <0>        -0.1401
      7 C6         -3.3320   -2.7535   -1.1757 C.ar      1 <0>        -0.0015
      8 C7         -4.6565   -3.2565   -1.1484 C.ar      1 <0>        -0.0745
      9 C8         -5.4020   -3.2988   -2.3376 C.ar      1 <0>        -0.0817
     10 C9         -4.8427   -2.8620   -3.4994 C.ar      1 <0>        -0.1284
     11 C10        -3.5384   -2.3720   -3.5278 C.ar      1 <0>        -0.0968
     12 C11        -2.7864   -2.3157   -2.3948 C.ar      1 <0>        -0.1193
     13 C12        -1.1720   -2.1895    0.0020 C.3       1 <0>         0.1696
     14 N1         -1.1975   -0.7248    0.0101 N.pl3     1 <0>        -0.7374
     15 C13         0.0021   -0.0041    0.0020 C.ar      1 <0>         0.1265
     16 C14        -0.0167    1.3816    0.0096 C.ar      1 <0>        -0.1006
     17 C15         1.2112    2.0531    0.0015 C.ar      1 <0>        -0.2344
     18 C16         1.2944    3.4677    0.0087 C.ar      1 <0>         0.5124
     19 N2          2.4963    4.0259    0.0007 N.ar      1 <0>        -0.6288
     20 C17         3.6014    3.2859   -0.0137 C.ar      1 <0>         0.6176
     21 N3          3.5798    1.9670   -0.0210 N.ar      1 <0>        -0.5928
     22 C18         2.4132    1.3038   -0.0139 C.ar      1 <0>         0.3678
     23 N4          2.3681   -0.0282   -0.0207 N.ar      1 <0>        -0.4501
     24 C19         1.2254   -0.6762   -0.0133 C.ar      1 <0>         0.1367
     25 N5          4.8264    3.9271   -0.0210 N.pl3     1 <0>        -0.8175
     26 N6          0.1549    4.2429    0.0233 N.pl3     1 <0>        -0.8180
     27 H1         -6.3208   -5.4160    1.7712 H         1 <0>         0.0595
     28 H2         -6.9295   -3.7750    2.0952 H         1 <0>         0.0589
     29 H3         -7.9770   -4.9708    1.2945 H         1 <0>         0.1043
     30 H4         -4.8605   -3.9837    2.1456 H         1 <0>         0.1311
     31 H5         -2.5630   -3.1185    2.0882 H         1 <0>         0.1281
     32 H6         -6.4141   -3.6757   -2.3306 H         1 <0>         0.1321
     33 H7         -5.4184   -2.8953   -4.4125 H         1 <0>         0.1255
     34 H8         -3.1182   -2.0315   -4.4626 H         1 <0>         0.1249
     35 H9         -1.7772   -1.9329   -2.4315 H         1 <0>         0.1316
     36 H10        -0.6608   -2.5391   -0.8950 H         1 <0>         0.0718
     37 H11        -0.6431   -2.5486    0.8848 H         1 <0>         0.0718
     38 H12        -2.0457   -0.2545    0.0210 H         1 <0>         0.4024
     39 H13        -0.9494    1.9260    0.0170 H         1 <0>         0.1321
     40 H14         1.2326   -1.7562   -0.0188 H         1 <0>         0.1637
     41 H15         5.6457    3.4078   -0.0312 H         1 <0>         0.4165
     42 H16         4.8666    4.8963   -0.0158 H         1 <0>         0.4134
     43 H17         0.2264    5.2102    0.0277 H         1 <0>         0.4130
     44 H18        -0.7186    3.8211    0.0290 H         1 <0>         0.4133
@<TRIPOS>BOND
     1    1    2 1
     2    1   27 1
     3    1   28 1
     4    1   29 1
     5    2    3 1
     6    3    8 ar
     7    3    4 ar
     8    4    5 ar
     9    4   30 1
    10    5    6 ar
    11    5   31 1
    12    6    7 ar
    13    6   13 1
    14    7   12 ar
    15    7    8 ar
    16    8    9 ar
    17    9   10 ar
    18    9   32 1
    19   10   11 ar
    20   10   33 1
    21   11   12 ar
    22   11   34 1
    23   12   35 1
    24   13   14 1
    25   13   36 1
    26   13   37 1
    27   14   15 1
    28   14   38 1
    29   15   24 ar
    30   15   16 ar
    31   16   17 ar
    32   16   39 1
    33   17   22 ar
    34   17   18 ar
    35   18   19 ar
    36   18   26 1
    37   19   20 ar
    38   20   21 ar
    39   20   25 1
    40   21   22 ar
    41   22   23 ar
    42   23   24 ar
    43   24   40 1
    44   25   41 1
    45   25   42 1
    46   26   43 1
    47   26   44 1
@<TRIPOS>MOLECULE
ZINC03814966
   45    48     0     0     0
SMALL
USER_CHARGES

@<TRIPOS>ATOM
      1 C1         -6.9531   -4.6112    1.3963 C.3       1 <0>         0.0235
      2 O1         -6.4705   -4.1806    0.1220 O.3       1 <0>        -0.3081
      3 C2         -5.2012   -3.7003    0.0736 C.ar      1 <0>         0.1721
      4 C3         -4.4432   -3.6433    1.2094 C.ar      1 <0>        -0.2364
      5 C4         -3.1409   -3.1533    1.1765 C.ar      1 <0>        -0.0345
      6 C5         -2.5838   -2.7165    0.0132 C.ar      1 <0>        -0.1597
      7 C6         -3.3320   -2.7535   -1.1757 C.ar      1 <0>         0.0015
      8 C7         -4.6565   -3.2565   -1.1484 C.ar      1 <0>        -0.0771
      9 C8         -5.4020   -3.2988   -2.3376 C.ar      1 <0>        -0.0745
     10 C9         -4.8427   -2.8620   -3.4994 C.ar      1 <0>        -0.1293
     11 C10        -3.5384   -2.3720   -3.5278 C.ar      1 <0>        -0.0886
     12 C11        -2.7864   -2.3157   -2.3948 C.ar      1 <0>        -0.1308
     13 C12        -1.1720   -2.1895    0.0020 C.3       1 <0>         0.1618
     14 N1         -1.1975   -0.7248    0.0101 N.pl3     1 <0>        -0.7144
     15 C13         0.0021   -0.0041    0.0020 C.ar      1 <0>         0.1727
     16 C14        -0.0167    1.3816    0.0096 C.ar      1 <0>        -0.0928
     17 C15         1.2112    2.0531    0.0015 C.ar      1 <0>        -0.1714
     18 C16         1.2944    3.4677    0.0087 C.ar      1 <0>         0.5654
     19 N2          2.4963    4.0259    0.0007 N.ar      1 <0>        -0.5853
     20 C17         3.6014    3.2859   -0.0137 C.ar      1 <0>         0.6941
     21 C18         2.4132    1.3038   -0.0139 C.ar      1 <0>         0.3279
     22 N3          2.3681   -0.0282   -0.0207 N.ar      1 <0>        -0.4529
     23 C19         1.2254   -0.6762   -0.0133 C.ar      1 <0>         0.1458
     24 N4          4.8264    3.9271   -0.0210 N.pl3     1 <0>        -0.7870
     25 N5          0.1549    4.2429    0.0233 N.pl3     1 <0>        -0.7635
     26 H1         -6.3208   -5.4160    1.7712 H         1 <0>         0.0618
     27 H2         -6.9295   -3.7750    2.0952 H         1 <0>         0.0607
     28 H3         -7.9770   -4.9708    1.2945 H         1 <0>         0.1081
     29 H4         -4.8605   -3.9837    2.1456 H         1 <0>         0.1343
     30 H5         -2.5630   -3.1185    2.0882 H         1 <0>         0.1283
     31 H6         -6.4141   -3.6757   -2.3306 H         1 <0>         0.1355
     32 H7         -5.4184   -2.8953   -4.4125 H         1 <0>         0.1288
     33 H8         -3.1182   -2.0315   -4.4626 H         1 <0>         0.1260
     34 H9         -1.7772   -1.9329   -2.4315 H         1 <0>         0.1267
     35 H10        -0.6608   -2.5391   -0.8950 H         1 <0>         0.0818
     36 H11        -0.6431   -2.5486    0.8848 H         1 <0>         0.0818
     37 H12        -2.0457   -0.2545    0.0210 H         1 <0>         0.4135
     38 H13        -0.9494    1.9260    0.0170 H         1 <0>         0.1590
     39 H14         1.2326   -1.7562   -0.0188 H         1 <0>         0.1858
     40 H15         5.6457    3.4078   -0.0312 H         1 <0>         0.4313
     41 H16         4.8666    4.8963   -0.0158 H         1 <0>         0.4431
     42 H17         0.2264    5.2102    0.0277 H         1 <0>         0.4334
     43 H18        -0.7186    3.8211    0.0290 H         1 <0>         0.4314
     44 N6          3.6422    1.9304   -0.0218 N.ar      1 <0>        -0.5873
     45 H19         4.5228    1.4567   -0.0327 H         1 <0>         0.4576
@<TRIPOS>BOND
     1    1    2 1
     2    1   26 1
     3    1   27 1
     4    1   28 1
     5    2    3 1
     6    3    8 ar
     7    3    4 ar
     8    4    5 ar
     9    4   29 1
    10    5    6 ar
    11    5   30 1
    12    6    7 ar
    13    6   13 1
    14    7   12 ar
    15    7    8 ar
    16    8    9 ar
    17    9   10 ar
    18    9   31 1
    19   10   11 ar
    20   10   32 1
    21   11   12 ar
    22   11   33 1
    23   12   34 1
    24   13   14 1
    25   13   35 1
    26   13   36 1
    27   14   15 1
    28   14   37 1
    29   15   23 ar
    30   15   16 ar
    31   16   17 ar
    32   16   38 1
    33   17   21 ar
    34   17   18 ar
    35   18   19 ar
    36   18   25 1
    37   19   20 ar
    38   20   24 1
    39   20   44 ar
    40   21   22 ar
    41   21   44 ar
    42   22   23 ar
    43   23   39 1
    44   24   40 1
    45   24   41 1
    46   25   42 1
    47   25   43 1
    48   44   45 1
@<TRIPOS>MOLECULE
ZINC03814967
   44    47     0     0     0
SMALL
USER_CHARGES

@<TRIPOS>ATOM
      1 C1          2.3148    7.9659    0.0224 C.3       1 <0>         0.0247
      2 O1          1.0500    7.3008    0.0304 O.3       1 <0>        -0.3091
      3 C2          1.0674    5.9421    0.0234 C.ar      1 <0>         0.1556
      4 C3          2.2925    5.2677    0.0085 C.ar      1 <0>        -0.1966
      5 C4          2.3422    3.9088    0.0007 C.ar      1 <0>        -0.0517
      6 C5          1.1478    3.1673    0.0077 C.ar      1 <0>        -0.0871
      7 C6          1.1627    1.7621    0.0004 C.ar      1 <0>        -0.0917
      8 C7         -0.0126    1.0758    0.0080 C.ar      1 <0>        -0.1279
      9 C8         -1.2348    1.7456    0.0174 C.ar      1 <0>        -0.0983
     10 C9         -1.2883    3.1054    0.0301 C.ar      1 <0>        -0.1191
     11 C10        -0.0951    3.8486    0.0227 C.ar      1 <0>         0.0025
     12 C11        -0.1117    5.2530    0.0305 C.ar      1 <0>        -0.1492
     13 C12        -1.4231    5.9952    0.0460 C.3       1 <0>         0.1760
     14 N1         -1.8360    6.2283    1.4321 N.pl3     1 <0>        -0.7328
     15 C13        -3.0310    6.9046    1.7020 C.ar      1 <0>         0.1310
     16 C14        -3.4287    7.1225    3.0115 C.ar      1 <0>        -0.1039
     17 C15        -4.6296    7.8088    3.2254 C.ar      1 <0>        -0.2330
     18 C16        -5.1165    8.0834    4.5275 C.ar      1 <0>         0.5118
     19 N2         -6.2653    8.7335    4.6439 N.ar      1 <0>        -0.6291
     20 C17        -6.9506    9.1222    3.5723 C.ar      1 <0>         0.6164
     21 N3         -6.5425    8.8922    2.3392 N.ar      1 <0>        -0.5923
     22 C18        -5.3914    8.2408    2.1120 C.ar      1 <0>         0.3660
     23 N4         -4.9601    7.9972    0.8746 N.ar      1 <0>        -0.4498
     24 C19        -3.8333    7.3590    0.6539 C.ar      1 <0>         0.1369
     25 N5         -8.1428    9.7974    3.7589 N.pl3     1 <0>        -0.8181
     26 N6         -4.4133    7.6850    5.6439 N.pl3     1 <0>        -0.8185
     27 H1          2.8835    7.6757    0.9059 H         1 <0>         0.0567
     28 H2          2.8675    7.6847   -0.8740 H         1 <0>         0.0577
     29 H3          2.1582    9.0445    0.0293 H         1 <0>         0.1027
     30 H4          3.2120    5.8341    0.0031 H         1 <0>         0.1335
     31 H5          3.2955    3.4012   -0.0104 H         1 <0>         0.1337
     32 H6          2.1022    1.2294   -0.0107 H         1 <0>         0.1276
     33 H7          0.0021   -0.0041    0.0020 H         1 <0>         0.1241
     34 H8         -2.1530    1.1770    0.0191 H         1 <0>         0.1246
     35 H9         -2.2426    3.6110    0.0416 H         1 <0>         0.1301
     36 H10        -1.3055    6.9515   -0.4638 H         1 <0>         0.0758
     37 H11        -2.1822    5.4024   -0.4644 H         1 <0>         0.0703
     38 H12        -1.2810    5.9139    2.1629 H         1 <0>         0.4008
     39 H13        -2.8289    6.7774    3.8406 H         1 <0>         0.1313
     40 H14        -3.5194    7.1818   -0.3642 H         1 <0>         0.1633
     41 H15        -8.6592   10.0907    2.9920 H         1 <0>         0.4163
     42 H16        -8.4626    9.9777    4.6568 H         1 <0>         0.4131
     43 H17        -4.7581    7.8798    6.5294 H         1 <0>         0.4126
     44 H18        -3.5736    7.2097    5.5442 H         1 <0>         0.4132
@<TRIPOS>BOND
     1    1    2 1
     2    1   27 1
     3    1   28 1
     4    1   29 1
     5    2    3 1
     6    3   12 ar
     7    3    4 ar
     8    4    5 ar
     9    4   30 1
    10    5    6 ar
    11    5   31 1
    12    6   11 ar
    13    6    7 ar
    14    7    8 ar
    15    7   32 1
    16    8    9 ar
    17    8   33 1
    18    9   10 ar
    19    9   34 1
    20   10   11 ar
    21   10   35 1
    22   11   12 ar
    23   12   13 1
    24   13   14 1
    25   13   36 1
    26   13   37 1
    27   14   15 1
    28   14   38 1
    29   15   24 ar
    30   15   16 ar
    31   16   17 ar
    32   16   39 1
    33   17   22 ar
    34   17   18 ar
    35   18   19 ar
    36   18   26 1
    37   19   20 ar
    38   20   21 ar
    39   20   25 1
    40   21   22 ar
    41   22   23 ar
    42   23   24 ar
    43   24   40 1
    44   25   41 1
    45   25   42 1
    46   26   43 1
    47   26   44 1
@<TRIPOS>MOLECULE
ZINC03814967
   45    48     0     0     0
SMALL
USER_CHARGES

@<TRIPOS>ATOM
      1 C1          2.3148    7.9659    0.0224 C.3       1 <0>         0.0231
      2 O1          1.0500    7.3008    0.0304 O.3       1 <0>        -0.3140
      3 C2          1.0674    5.9421    0.0234 C.ar      1 <0>         0.1650
      4 C3          2.2925    5.2677    0.0085 C.ar      1 <0>        -0.2014
      5 C4          2.3422    3.9088    0.0007 C.ar      1 <0>        -0.0400
      6 C5          1.1478    3.1673    0.0077 C.ar      1 <0>        -0.0882
      7 C6          1.1627    1.7621    0.0004 C.ar      1 <0>        -0.0850
      8 C7         -0.0126    1.0758    0.0080 C.ar      1 <0>        -0.1282
      9 C8         -1.2348    1.7456    0.0174 C.ar      1 <0>        -0.0901
     10 C9         -1.2883    3.1054    0.0301 C.ar      1 <0>        -0.1296
     11 C10        -0.0951    3.8486    0.0227 C.ar      1 <0>         0.0046
     12 C11        -0.1117    5.2530    0.0305 C.ar      1 <0>        -0.1660
     13 C12        -1.4231    5.9952    0.0460 C.3       1 <0>         0.1675
     14 N1         -1.8360    6.2283    1.4321 N.pl3     1 <0>        -0.7092
     15 C13        -3.0310    6.9046    1.7020 C.ar      1 <0>         0.1761
     16 C14        -3.4287    7.1225    3.0115 C.ar      1 <0>        -0.0953
     17 C15        -4.6296    7.8088    3.2254 C.ar      1 <0>        -0.1706
     18 C16        -5.1165    8.0834    4.5275 C.ar      1 <0>         0.5654
     19 N2         -6.2653    8.7335    4.6439 N.ar      1 <0>        -0.5856
     20 C17        -6.9506    9.1222    3.5723 C.ar      1 <0>         0.6936
     21 C18        -5.3914    8.2408    2.1120 C.ar      1 <0>         0.3254
     22 N3         -4.9601    7.9972    0.8746 N.ar      1 <0>        -0.4526
     23 C19        -3.8333    7.3590    0.6539 C.ar      1 <0>         0.1461
     24 N4         -8.1428    9.7974    3.7589 N.pl3     1 <0>        -0.7876
     25 N5         -4.4133    7.6850    5.6439 N.pl3     1 <0>        -0.7641
     26 H1          2.8835    7.6757    0.9059 H         1 <0>         0.0594
     27 H2          2.8675    7.6847   -0.8740 H         1 <0>         0.0614
     28 H3          2.1582    9.0445    0.0293 H         1 <0>         0.1045
     29 H4          3.2120    5.8341    0.0031 H         1 <0>         0.1366
     30 H5          3.2955    3.4012   -0.0104 H         1 <0>         0.1376
     31 H6          2.1022    1.2294   -0.0107 H         1 <0>         0.1313
     32 H7          0.0021   -0.0041    0.0020 H         1 <0>         0.1275
     33 H8         -2.1530    1.1770    0.0191 H         1 <0>         0.1259
     34 H9         -2.2426    3.6110    0.0416 H         1 <0>         0.1257
     35 H10        -1.3055    6.9515   -0.4638 H         1 <0>         0.0857
     36 H11        -2.1822    5.4024   -0.4644 H         1 <0>         0.0808
     37 H12        -1.2810    5.9139    2.1629 H         1 <0>         0.4120
     38 H13        -2.8289    6.7774    3.8406 H         1 <0>         0.1583
     39 H14        -3.5194    7.1818   -0.3642 H         1 <0>         0.1853
     40 H15        -8.6592   10.0907    2.9920 H         1 <0>         0.4311
     41 H16        -8.4626    9.9777    4.6568 H         1 <0>         0.4428
     42 H17        -4.7581    7.8798    6.5294 H         1 <0>         0.4331
     43 H18        -3.5736    7.2097    5.5442 H         1 <0>         0.4313
     44 N6         -6.5827    8.9150    2.2836 N.ar      1 <0>        -0.5867
     45 H19        -7.1631    9.2442    1.5388 H         1 <0>         0.4573
@<TRIPOS>BOND
     1    1    2 1
     2    1   26 1
     3    1   27 1
     4    1   28 1
     5    2    3 1
     6    3   12 ar
     7    3    4 ar
     8    4    5 ar
     9    4   29 1
    10    5    6 ar
    11    5   30 1
    12    6   11 ar
    13    6    7 ar
    14    7    8 ar
    15    7   31 1
    16    8    9 ar
    17    8   32 1
    18    9   10 ar
    19    9   33 1
    20   10   11 ar
    21   10   34 1
    22   11   12 ar
    23   12   13 1
    24   13   14 1
    25   13   35 1
    26   13   36 1
    27   14   15 1
    28   14   37 1
    29   15   23 ar
    30   15   16 ar
    31   16   17 ar
    32   16   38 1
    33   17   21 ar
    34   17   18 ar
    35   18   19 ar
    36   18   25 1
    37   19   20 ar
    38   20   24 1
    39   20   44 ar
    40   21   22 ar
    41   21   44 ar
    42   22   23 ar
    43   23   39 1
    44   24   40 1
    45   24   41 1
    46   25   42 1
    47   25   43 1
    48   44   45 1
@<TRIPOS>MOLECULE
ZINC03814968
   51    54     0     0     0
SMALL
USER_CHARGES

@<TRIPOS>ATOM
      1 C1          0.6018    1.5059    0.0250 C.3       1 <0>        -0.1536
      2 C2          0.5970   -0.0011    0.0161 C.ar      1 <0>         0.0606
      3 C3          0.7585   -0.7002   -1.1515 C.ar      1 <0>        -0.2153
      4 C4          0.7532   -2.0894   -1.1326 C.ar      1 <0>         0.2102
      5 N1          0.5888   -2.7658   -0.0176 N.ar      1 <0>        -0.4897
      6 C5          0.4225   -2.1439    1.1498 C.ar      1 <0>         0.4161
      7 C6          0.4215   -0.7279    1.1991 C.ar      1 <0>        -0.2819
      8 C7          0.2422   -0.0940    2.4535 C.ar      1 <0>         0.5247
      9 N2          0.0832   -0.8573    3.5253 N.ar      1 <0>        -0.6175
     10 C8          0.0905   -2.1842    3.4357 C.ar      1 <0>         0.6248
     11 N3          0.2532   -2.8238    2.2928 N.ar      1 <0>        -0.5914
     12 N4         -0.0802   -2.9254    4.5893 N.pl3     1 <0>        -0.8106
     13 N5          0.2328    1.2797    2.5563 N.pl3     1 <0>        -0.8450
     14 C9          0.9447    0.0365   -2.4530 C.3       1 <0>         0.1789
     15 N6          2.3364    0.4790   -2.5689 N.pl3     1 <0>        -0.7397
     16 C10         2.7530    1.1894   -3.7007 C.ar      1 <0>         0.1986
     17 C11         1.8513    1.4694   -4.7140 C.ar      1 <0>        -0.1578
     18 C12         2.2685    2.1819   -5.8365 C.ar      1 <0>        -0.0335
     19 C13         3.5936    2.6007   -5.9411 C.ar      1 <0>        -0.1263
     20 C14         4.4909    2.3144   -4.9320 C.ar      1 <0>        -0.1600
     21 C15         4.0772    1.6108   -3.8117 C.ar      1 <0>         0.0587
     22 O1          4.9643    1.3308   -2.8198 O.3       1 <0>        -0.3220
     23 C16         6.3047    1.7925   -2.9989 C.3       1 <0>         0.0312
     24 C17         1.3046    2.4890   -6.9218 C.ar      1 <0>        -0.0387
     25 C18        -0.0194    2.0660   -6.8216 C.ar      1 <0>        -0.1124
     26 C19        -0.9128    2.3582   -7.8322 C.ar      1 <0>        -0.1174
     27 C20        -0.4936    3.0608   -8.9476 C.ar      1 <0>        -0.1216
     28 C21         0.8206    3.4789   -9.0545 C.ar      1 <0>        -0.1173
     29 C22         1.7214    3.1964   -8.0478 C.ar      1 <0>        -0.1125
     30 H1          1.5932    1.8644    0.3020 H         1 <0>         0.0871
     31 H2          0.3459    1.8759   -0.9678 H         1 <0>         0.0857
     32 H3         -0.1301    1.8674    0.7473 H         1 <0>         0.0988
     33 H4          0.8854   -2.6280   -2.0594 H         1 <0>         0.1675
     34 H5         -0.2018   -2.4766    5.4406 H         1 <0>         0.4162
     35 H6         -0.0784   -3.8945    4.5478 H         1 <0>         0.4189
     36 H7         -0.4080    1.7182    3.1377 H         1 <0>         0.4106
     37 H8          0.8670    1.8085    2.0474 H         1 <0>         0.4186
     38 H9          0.7040   -0.6270   -3.2836 H         1 <0>         0.0715
     39 H10         0.2845    0.9035   -2.4774 H         1 <0>         0.0714
     40 H11         2.9693    0.2796   -1.8613 H         1 <0>         0.4054
     41 H12         0.8261    1.1398   -4.6324 H         1 <0>         0.1314
     42 H13         3.9188    3.1494   -6.8126 H         1 <0>         0.1246
     43 H14         5.5174    2.6396   -5.0153 H         1 <0>         0.1292
     44 H15         6.3053    2.8783   -3.0944 H         1 <0>         0.0542
     45 H16         6.9068    1.5032   -2.1375 H         1 <0>         0.0978
     46 H17         6.7246    1.3482   -3.9013 H         1 <0>         0.0547
     47 H18        -0.3466    1.5136   -5.9532 H         1 <0>         0.1235
     48 H19        -1.9400    2.0342   -7.7539 H         1 <0>         0.1233
     49 H20        -1.1952    3.2840   -9.7378 H         1 <0>         0.1218
     50 H21         1.1425    4.0271   -9.9276 H         1 <0>         0.1233
     51 H22         2.7472    3.5233   -8.1322 H         1 <0>         0.1250
@<TRIPOS>BOND
     1    1    2 1
     2    1   30 1
     3    1   31 1
     4    1   32 1
     5    2    7 ar
     6    2    3 ar
     7    3    4 ar
     8    3   14 1
     9    4    5 ar
    10    4   33 1
    11    5    6 ar
    12    6   11 ar
    13    6    7 ar
    14    7    8 ar
    15    8    9 ar
    16    8   13 1
    17    9   10 ar
    18   10   11 ar
    19   10   12 1
    20   12   34 1
    21   12   35 1
    22   13   36 1
    23   13   37 1
    24   14   15 1
    25   14   38 1
    26   14   39 1
    27   15   16 1
    28   15   40 1
    29   16   21 ar
    30   16   17 ar
    31   17   18 ar
    32   17   41 1
    33   18   19 ar
    34   18   24 1
    35   19   20 ar
    36   19   42 1
    37   20   21 ar
    38   20   43 1
    39   21   22 1
    40   22   23 1
    41   23   44 1
    42   23   45 1
    43   23   46 1
    44   24   29 ar
    45   24   25 ar
    46   25   26 ar
    47   25   47 1
    48   26   27 ar
    49   26   48 1
    50   27   28 ar
    51   27   49 1
    52   28   29 ar
    53   28   50 1
    54   29   51 1
@<TRIPOS>MOLECULE
ZINC03814968
   52    55     0     0     0
SMALL
USER_CHARGES

@<TRIPOS>ATOM
      1 C1          0.6018    1.5059    0.0250 C.3       1 <0>        -0.1670
      2 C2          0.5970   -0.0011    0.0161 C.ar      1 <0>         0.0781
      3 C3          0.7585   -0.7002   -1.1515 C.ar      1 <0>        -0.1723
      4 C4          0.7532   -2.0894   -1.1326 C.ar      1 <0>         0.2374
      5 N1          0.5888   -2.7658   -0.0176 N.ar      1 <0>        -0.5003
      6 C5          0.4225   -2.1439    1.1498 C.ar      1 <0>         0.4060
      7 C6          0.4215   -0.7279    1.1991 C.ar      1 <0>        -0.2341
      8 C7          0.2422   -0.0940    2.4535 C.ar      1 <0>         0.5809
      9 N2          0.0832   -0.8573    3.5253 N.ar      1 <0>        -0.5720
     10 C8          0.0905   -2.1842    3.4357 C.ar      1 <0>         0.6939
     11 N3         -0.0802   -2.9254    4.5893 N.pl3     1 <0>        -0.7782
     12 N4          0.2328    1.2797    2.5563 N.pl3     1 <0>        -0.8011
     13 C9          0.9447    0.0365   -2.4530 C.3       1 <0>         0.1689
     14 N5          2.3364    0.4790   -2.5689 N.pl3     1 <0>        -0.7463
     15 C10         2.7530    1.1894   -3.7007 C.ar      1 <0>         0.1877
     16 C11         1.8513    1.4694   -4.7140 C.ar      1 <0>        -0.1538
     17 C12         2.2685    2.1819   -5.8365 C.ar      1 <0>        -0.0301
     18 C13         3.5936    2.6007   -5.9411 C.ar      1 <0>        -0.1169
     19 C14         4.4909    2.3144   -4.9320 C.ar      1 <0>        -0.1587
     20 C15         4.0772    1.6108   -3.8117 C.ar      1 <0>         0.0635
     21 O1          4.9643    1.3308   -2.8198 O.3       1 <0>        -0.3255
     22 C16         6.3047    1.7925   -2.9989 C.3       1 <0>         0.0296
     23 C17         1.3046    2.4890   -6.9218 C.ar      1 <0>        -0.0456
     24 C18        -0.0194    2.0660   -6.8216 C.ar      1 <0>        -0.1127
     25 C19        -0.9128    2.3582   -7.8322 C.ar      1 <0>        -0.1178
     26 C20        -0.4936    3.0608   -8.9476 C.ar      1 <0>        -0.1168
     27 C21         0.8206    3.4789   -9.0545 C.ar      1 <0>        -0.1149
     28 C22         1.7214    3.1964   -8.0478 C.ar      1 <0>        -0.1099
     29 H1          1.5932    1.8644    0.3020 H         1 <0>         0.1072
     30 H2          0.3459    1.8759   -0.9678 H         1 <0>         0.1070
     31 H3         -0.1301    1.8674    0.7473 H         1 <0>         0.1052
     32 H4          0.8854   -2.6280   -2.0594 H         1 <0>         0.1929
     33 H5         -0.2018   -2.4766    5.4406 H         1 <0>         0.4460
     34 H6         -0.0784   -3.8945    4.5478 H         1 <0>         0.4334
     35 H7         -0.4080    1.7182    3.1377 H         1 <0>         0.4311
     36 H8          0.8670    1.8085    2.0474 H         1 <0>         0.4368
     37 H9          0.7040   -0.6270   -3.2836 H         1 <0>         0.0825
     38 H10         0.2845    0.9035   -2.4774 H         1 <0>         0.0829
     39 H11         2.9693    0.2796   -1.8613 H         1 <0>         0.4047
     40 H12         0.8261    1.1398   -4.6324 H         1 <0>         0.1311
     41 H13         3.9188    3.1494   -6.8126 H         1 <0>         0.1285
     42 H14         5.5174    2.6396   -5.0153 H         1 <0>         0.1326
     43 H15         6.3053    2.8783   -3.0944 H         1 <0>         0.0568
     44 H16         6.9068    1.5032   -2.1375 H         1 <0>         0.0993
     45 H17         6.7246    1.3482   -3.9013 H         1 <0>         0.0572
     46 H18        -0.3466    1.5136   -5.9532 H         1 <0>         0.1208
     47 H19        -1.9400    2.0342   -7.7539 H         1 <0>         0.1240
     48 H20        -1.1952    3.2840   -9.7378 H         1 <0>         0.1243
     49 H21         1.1425    4.0271   -9.9276 H         1 <0>         0.1260
     50 H22         2.7472    3.5233   -8.1322 H         1 <0>         0.1260
     51 N6          0.2529   -2.8960    2.2921 N.ar      1 <0>        -0.5896
     52 H23         0.2439   -3.8956    2.3198 H         1 <0>         0.4614
@<TRIPOS>BOND
     1    1    2 1
     2    1   29 1
     3    1   30 1
     4    1   31 1
     5    2    7 ar
     6    2    3 ar
     7    3    4 ar
     8    3   13 1
     9    4    5 ar
    10    4   32 1
    11    5    6 ar
    12    6    7 ar
    13    6   51 ar
    14    7    8 ar
    15    8    9 ar
    16    8   12 1
    17    9   10 ar
    18   10   11 1
    19   10   51 ar
    20   11   33 1
    21   11   34 1
    22   12   35 1
    23   12   36 1
    24   13   14 1
    25   13   37 1
    26   13   38 1
    27   14   15 1
    28   14   39 1
    29   15   20 ar
    30   15   16 ar
    31   16   17 ar
    32   16   40 1
    33   17   18 ar
    34   17   23 1
    35   18   19 ar
    36   18   41 1
    37   19   20 ar
    38   19   42 1
    39   20   21 1
    40   21   22 1
    41   22   43 1
    42   22   44 1
    43   22   45 1
    44   23   28 ar
    45   23   24 ar
    46   24   25 ar
    47   24   46 1
    48   25   26 ar
    49   25   47 1
    50   26   27 ar
    51   26   48 1
    52   27   28 ar
    53   27   49 1
    54   28   50 1
    55   51   52 1
@<TRIPOS>MOLECULE
ZINC03814969
   45    48     0     0     0
SMALL
USER_CHARGES

@<TRIPOS>ATOM
      1 C1         -4.5081    5.8818   -3.0549 C.3       1 <0>        -0.1571
      2 C2         -3.2260    5.1738   -3.4100 C.ar      1 <0>         0.0472
      3 C3         -2.1848    5.1117   -2.5210 C.ar      1 <0>        -0.2262
      4 C4         -1.0109    4.4584   -2.8748 C.ar      1 <0>         0.1967
      5 N1         -0.8669    3.8797   -4.0463 N.ar      1 <0>        -0.4839
      6 C5         -1.8428    3.9053   -4.9543 C.ar      1 <0>         0.4106
      7 C6         -3.0633    4.5607   -4.6575 C.ar      1 <0>        -0.2784
      8 C7         -4.0829    4.5717   -5.6413 C.ar      1 <0>         0.5227
      9 N2         -3.8466    3.9665   -6.7966 N.ar      1 <0>        -0.6163
     10 C8         -2.6862    3.3622   -7.0353 C.ar      1 <0>         0.6227
     11 N3         -1.7046    3.3230   -6.1539 N.ar      1 <0>        -0.5899
     12 N4         -2.5000    2.7490   -8.2595 N.pl3     1 <0>        -0.8113
     13 N5         -5.2879    5.1953   -5.4036 N.pl3     1 <0>        -0.8454
     14 C9         -2.3108    5.7563   -1.1646 C.3       1 <0>         0.0884
     15 N6         -2.1081    4.7432   -0.1204 N.pl3     1 <0>        -0.4597
     16 C10        -2.8451    3.5006   -0.4372 C.3       1 <0>         0.0399
     17 C11        -1.9571    2.4083    0.2017 C.3       1 <0>        -0.0848
     18 C12        -0.5843    3.0510    0.2065 C.ar      1 <0>        -0.0968
     19 C13        -0.7493    4.4163    0.0062 C.ar      1 <0>         0.0529
     20 C14         0.3757    5.2367   -0.0422 C.ar      1 <0>        -0.1016
     21 C15         1.6360    4.6989    0.1174 C.ar      1 <0>        -0.1807
     22 C16         1.7917    3.3372    0.3287 C.ar      1 <0>         0.1110
     23 C17         0.6749    2.5151    0.3756 C.ar      1 <0>        -0.1104
     24 O1          3.0348    2.8093    0.4888 O.3       1 <0>        -0.3164
     25 C18         4.1375    3.7163    0.4284 C.3       1 <0>         0.0272
     26 H1         -4.4874    6.8946   -3.4572 H         1 <0>         0.0881
     27 H2         -5.3525    5.3392   -3.4800 H         1 <0>         0.1007
     28 H3         -4.6118    5.9235   -1.9706 H         1 <0>         0.0874
     29 H4         -0.1964    4.4210   -2.1667 H         1 <0>         0.1648
     30 H5         -3.2075    2.7654   -8.9228 H         1 <0>         0.4159
     31 H6         -1.6617    2.3021   -8.4556 H         1 <0>         0.4186
     32 H7         -5.3093    6.0520   -4.9491 H         1 <0>         0.4183
     33 H8         -6.1151    4.7778   -5.6907 H         1 <0>         0.4104
     34 H9         -3.3044    6.1920   -1.0602 H         1 <0>         0.1007
     35 H10        -1.5585    6.5385   -1.0628 H         1 <0>         0.0930
     36 H11        -3.8346    3.5107    0.0199 H         1 <0>         0.0966
     37 H12        -2.9176    3.3582   -1.5154 H         1 <0>         0.0655
     38 H13        -2.2874    2.1874    1.2167 H         1 <0>         0.0929
     39 H14        -1.9554    1.5060   -0.4097 H         1 <0>         0.0827
     40 H15         0.2606    6.2981   -0.2058 H         1 <0>         0.1271
     41 H16         2.5039    5.3404    0.0781 H         1 <0>         0.1334
     42 H17         0.7923    1.4542    0.5402 H         1 <0>         0.1315
     43 H18         5.0680    3.1669    0.5710 H         1 <0>         0.1005
     44 H19         4.1510    4.2075   -0.5445 H         1 <0>         0.0561
     45 H20         4.0345    4.4662    1.2127 H         1 <0>         0.0555
@<TRIPOS>BOND
     1    1    2 1
     2    1   26 1
     3    1   27 1
     4    1   28 1
     5    2    7 ar
     6    2    3 ar
     7    3    4 ar
     8    3   14 1
     9    4    5 ar
    10    4   29 1
    11    5    6 ar
    12    6   11 ar
    13    6    7 ar
    14    7    8 ar
    15    8    9 ar
    16    8   13 1
    17    9   10 ar
    18   10   11 ar
    19   10   12 1
    20   12   30 1
    21   12   31 1
    22   13   32 1
    23   13   33 1
    24   14   15 1
    25   14   34 1
    26   14   35 1
    27   15   19 1
    28   15   16 1
    29   16   17 1
    30   16   36 1
    31   16   37 1
    32   17   18 1
    33   17   38 1
    34   17   39 1
    35   18   23 ar
    36   18   19 ar
    37   19   20 ar
    38   20   21 ar
    39   20   40 1
    40   21   22 ar
    41   21   41 1
    42   22   23 ar
    43   22   24 1
    44   23   42 1
    45   24   25 1
    46   25   43 1
    47   25   44 1
    48   25   45 1
@<TRIPOS>MOLECULE
ZINC03814969
   43    46     0     0     0
SMALL
USER_CHARGES

@<TRIPOS>ATOM
      1 C1         -0.2525    5.1761   -1.4871 C.3       1 <0>        -0.1591
      2 C2          1.1705    5.0320   -1.9617 C.ar      1 <0>         0.0626
      3 C3          2.1811    4.7404   -1.0832 C.ar      1 <0>        -0.2239
      4 C4          3.4840    4.6071   -1.5469 C.ar      1 <0>         0.2092
      5 N1          3.7855    4.7582   -2.8174 N.ar      1 <0>        -0.4867
      6 C5          2.8482    5.0475   -3.7203 C.ar      1 <0>         0.4167
      7 C6          1.4998    5.1966   -3.3119 C.ar      1 <0>        -0.2798
      8 C7          0.5248    5.5035   -4.2932 C.ar      1 <0>         0.5247
      9 N2          0.9208    5.6372   -5.5510 N.ar      1 <0>        -0.6148
     10 C8          2.1976    5.4890   -5.8926 C.ar      1 <0>         0.6247
     11 N3          3.1443    5.2033   -5.0186 N.ar      1 <0>        -0.5900
     12 N4          2.5482    5.6408   -7.2205 N.pl3     1 <0>        -0.8098
     13 N5         -0.7999    5.6594   -3.9489 N.pl3     1 <0>        -0.8462
     14 C9          1.8788    4.5585    0.3819 C.3       1 <0>         0.1628
     15 N6          1.5124    3.1628    0.6353 N.pl3     1 <0>        -0.4801
     16 C10         0.2335    2.7007    0.7854 C.2       1 <0>         0.0564
     17 C11         0.2480    1.3764    1.0047 C.2       1 <0>        -0.2054
     18 C12         1.6511    0.9552    0.9942 C.ar      1 <0>        -0.0703
     19 C13         2.4050    2.1188    0.7576 C.ar      1 <0>         0.0721
     20 C14         3.7915    2.0354    0.6919 C.ar      1 <0>        -0.0899
     21 C15         4.4167    0.8195    0.8576 C.ar      1 <0>        -0.1757
     22 C16         3.6733   -0.3340    1.0924 C.ar      1 <0>         0.0997
     23 C17         2.2956   -0.2721    1.1611 C.ar      1 <0>        -0.1114
     24 O1          4.3066   -1.5265    1.2542 O.3       1 <0>        -0.3197
     25 C18         5.7332   -1.5200    1.1713 C.3       1 <0>         0.0282
     26 H1         -0.4778    6.2307   -1.3290 H         1 <0>         0.0895
     27 H2         -0.9291    4.7686   -2.2383 H         1 <0>         0.1039
     28 H3         -0.3799    4.6330   -0.5506 H         1 <0>         0.0805
     29 H4          4.2703    4.3728   -0.8446 H         1 <0>         0.1621
     30 H5          1.8691    5.8510   -7.8805 H         1 <0>         0.4165
     31 H6          3.4734    5.5373   -7.4927 H         1 <0>         0.4191
     32 H7         -1.0383    6.1558   -3.1504 H         1 <0>         0.4178
     33 H8         -1.4943    5.2726   -4.5049 H         1 <0>         0.4114
     34 H9          1.0513    5.2087    0.6657 H         1 <0>         0.1033
     35 H10         2.7604    4.8150    0.9694 H         1 <0>         0.0972
     36 H11        -0.6563    3.3104    0.7310 H         1 <0>         0.1677
     37 H12        -0.6120    0.7417    1.1595 H         1 <0>         0.1475
     38 H13         4.3780    2.9239    0.5102 H         1 <0>         0.1205
     39 H14         5.4939    0.7603    0.8053 H         1 <0>         0.1317
     40 H15         1.7201   -1.1677    1.3433 H         1 <0>         0.1300
     41 H16         6.0384   -1.1572    0.1899 H         1 <0>         0.0541
     42 H17         6.1390   -0.8658    1.9429 H         1 <0>         0.0541
     43 H18         6.1102   -2.5322    1.3179 H         1 <0>         0.0987
@<TRIPOS>BOND
     1    1    2 1
     2    1   26 1
     3    1   27 1
     4    1   28 1
     5    2    7 ar
     6    2    3 ar
     7    3    4 ar
     8    3   14 1
     9    4    5 ar
    10    4   29 1
    11    5    6 ar
    12    6   11 ar
    13    6    7 ar
    14    7    8 ar
    15    8    9 ar
    16    8   13 1
    17    9   10 ar
    18   10   11 ar
    19   10   12 1
    20   12   30 1
    21   12   31 1
    22   13   32 1
    23   13   33 1
    24   14   15 1
    25   14   34 1
    26   14   35 1
    27   15   19 1
    28   15   16 1
    29   16   17 2
    30   16   36 1
    31   17   18 1
    32   17   37 1
    33   18   23 ar
    34   18   19 ar
    35   19   20 ar
    36   20   21 ar
    37   20   38 1
    38   21   22 ar
    39   21   39 1
    40   22   23 ar
    41   22   24 1
    42   23   40 1
    43   24   25 1
    44   25   41 1
    45   25   42 1
    46   25   43 1
@<TRIPOS>MOLECULE
ZINC03814969
   46    49     0     0     0
SMALL
USER_CHARGES

@<TRIPOS>ATOM
      1 C1         -4.5081    5.8818   -3.0549 C.3       1 <0>        -0.1699
      2 C2         -3.2260    5.1738   -3.4100 C.ar      1 <0>         0.0653
      3 C3         -2.1848    5.1117   -2.5210 C.ar      1 <0>        -0.1846
      4 C4         -1.0109    4.4584   -2.8748 C.ar      1 <0>         0.2207
      5 N1         -0.8669    3.8797   -4.0463 N.ar      1 <0>        -0.4942
      6 C5         -1.8428    3.9053   -4.9543 C.ar      1 <0>         0.3980
      7 C6         -3.0633    4.5607   -4.6575 C.ar      1 <0>        -0.2305
      8 C7         -4.0829    4.5717   -5.6413 C.ar      1 <0>         0.5804
      9 N2         -3.8466    3.9665   -6.7966 N.ar      1 <0>        -0.5714
     10 C8         -2.6862    3.3622   -7.0353 C.ar      1 <0>         0.6931
     11 N3         -2.5000    2.7490   -8.2595 N.pl3     1 <0>        -0.7785
     12 N4         -5.2879    5.1953   -5.4036 N.pl3     1 <0>        -0.8018
     13 C9         -2.3108    5.7563   -1.1646 C.3       1 <0>         0.0777
     14 N5         -2.1081    4.7432   -0.1204 N.pl3     1 <0>        -0.4529
     15 C10        -2.8451    3.5006   -0.4372 C.3       1 <0>         0.0401
     16 C11        -1.9571    2.4083    0.2017 C.3       1 <0>        -0.0868
     17 C12        -0.5843    3.0510    0.2065 C.ar      1 <0>        -0.0947
     18 C13        -0.7493    4.4163    0.0062 C.ar      1 <0>         0.0330
     19 C14         0.3757    5.2367   -0.0422 C.ar      1 <0>        -0.0997
     20 C15         1.6360    4.6989    0.1174 C.ar      1 <0>        -0.1821
     21 C16         1.7917    3.3372    0.3287 C.ar      1 <0>         0.1210
     22 C17         0.6749    2.5151    0.3756 C.ar      1 <0>        -0.1121
     23 O1          3.0348    2.8093    0.4888 O.3       1 <0>        -0.3135
     24 C18         4.1375    3.7163    0.4284 C.3       1 <0>         0.0253
     25 H1         -4.4874    6.8946   -3.4572 H         1 <0>         0.1085
     26 H2         -5.3525    5.3392   -3.4800 H         1 <0>         0.1068
     27 H3         -4.6118    5.9235   -1.9706 H         1 <0>         0.1084
     28 H4         -0.1964    4.4210   -2.1667 H         1 <0>         0.1886
     29 H5         -3.2075    2.7654   -8.9228 H         1 <0>         0.4459
     30 H6         -1.6617    2.3021   -8.4556 H         1 <0>         0.4332
     31 H7         -5.3093    6.0520   -4.9491 H         1 <0>         0.4366
     32 H8         -6.1151    4.7778   -5.6907 H         1 <0>         0.4310
     33 H9         -3.3044    6.1920   -1.0602 H         1 <0>         0.1125
     34 H10        -1.5585    6.5385   -1.0628 H         1 <0>         0.1081
     35 H11        -3.8346    3.5107    0.0199 H         1 <0>         0.1043
     36 H12        -2.9176    3.3582   -1.5154 H         1 <0>         0.0540
     37 H13        -2.2874    2.1874    1.2167 H         1 <0>         0.0998
     38 H14        -1.9554    1.5060   -0.4097 H         1 <0>         0.0843
     39 H15         0.2606    6.2981   -0.2058 H         1 <0>         0.1300
     40 H16         2.5039    5.3404    0.0781 H         1 <0>         0.1377
     41 H17         0.7923    1.4542    0.5402 H         1 <0>         0.1353
     42 H18         5.0680    3.1669    0.5710 H         1 <0>         0.1050
     43 H19         4.1510    4.2075   -0.5445 H         1 <0>         0.0566
     44 H20         4.0345    4.4662    1.2127 H         1 <0>         0.0591
     45 N6         -1.6431    3.2892   -6.1707 N.ar      1 <0>        -0.5887
     46 H21        -0.8055    2.8121   -6.4368 H         1 <0>         0.4609
@<TRIPOS>BOND
     1    1    2 1
     2    1   25 1
     3    1   26 1
     4    1   27 1
     5    2    7 ar
     6    2    3 ar
     7    3    4 ar
     8    3   13 1
     9    4    5 ar
    10    4   28 1
    11    5    6 ar
    12    6    7 ar
    13    6   45 ar
    14    7    8 ar
    15    8    9 ar
    16    8   12 1
    17    9   10 ar
    18   10   11 1
    19   10   45 ar
    20   11   29 1
    21   11   30 1
    22   12   31 1
    23   12   32 1
    24   13   14 1
    25   13   33 1
    26   13   34 1
    27   14   18 1
    28   14   15 1
    29   15   16 1
    30   15   35 1
    31   15   36 1
    32   16   17 1
    33   16   37 1
    34   16   38 1
    35   17   22 ar
    36   17   18 ar
    37   18   19 ar
    38   19   20 ar
    39   19   39 1
    40   20   21 ar
    41   20   40 1
    42   21   22 ar
    43   21   23 1
    44   22   41 1
    45   23   24 1
    46   24   42 1
    47   24   43 1
    48   24   44 1
    49   45   46 1
@<TRIPOS>MOLECULE
ZINC03814969
   44    47     0     0     0
SMALL
USER_CHARGES

@<TRIPOS>ATOM
      1 C1         -0.2525    5.1761   -1.4871 C.3       1 <0>        -0.1723
      2 C2          1.1705    5.0320   -1.9617 C.ar      1 <0>         0.0802
      3 C3          2.1811    4.7404   -1.0832 C.ar      1 <0>        -0.1818
      4 C4          3.4840    4.6071   -1.5469 C.ar      1 <0>         0.2353
      5 N1          3.7855    4.7582   -2.8174 N.ar      1 <0>        -0.4976
      6 C5          2.8482    5.0475   -3.7203 C.ar      1 <0>         0.4066
      7 C6          1.4998    5.1966   -3.3119 C.ar      1 <0>        -0.2323
      8 C7          0.5248    5.5035   -4.2932 C.ar      1 <0>         0.5820
      9 N2          0.9208    5.6372   -5.5510 N.ar      1 <0>        -0.5698
     10 C8          2.1976    5.4890   -5.8926 C.ar      1 <0>         0.6937
     11 N3          2.5482    5.6408   -7.2205 N.pl3     1 <0>        -0.7771
     12 N4         -0.7999    5.6594   -3.9489 N.pl3     1 <0>        -0.8035
     13 C9          1.8788    4.5585    0.3819 C.3       1 <0>         0.1544
     14 N5          1.5124    3.1628    0.6353 N.pl3     1 <0>        -0.4886
     15 C10         0.2335    2.7007    0.7854 C.2       1 <0>         0.0469
     16 C11         0.2480    1.3764    1.0047 C.2       1 <0>        -0.1900
     17 C12         1.6511    0.9552    0.9942 C.ar      1 <0>        -0.0675
     18 C13         2.4050    2.1188    0.7576 C.ar      1 <0>         0.0659
     19 C14         3.7915    2.0354    0.6919 C.ar      1 <0>        -0.0980
     20 C15         4.4167    0.8195    0.8576 C.ar      1 <0>        -0.1712
     21 C16         3.6733   -0.3340    1.0924 C.ar      1 <0>         0.1062
     22 C17         2.2956   -0.2721    1.1611 C.ar      1 <0>        -0.1073
     23 O1          4.3066   -1.5265    1.2542 O.3       1 <0>        -0.3164
     24 C18         5.7332   -1.5200    1.1713 C.3       1 <0>         0.0271
     25 H1         -0.4778    6.2307   -1.3290 H         1 <0>         0.1097
     26 H2         -0.9291    4.7686   -2.2383 H         1 <0>         0.1102
     27 H3         -0.3799    4.6330   -0.5506 H         1 <0>         0.1007
     28 H4          4.2703    4.3728   -0.8446 H         1 <0>         0.1873
     29 H5          1.8691    5.8510   -7.8805 H         1 <0>         0.4464
     30 H6          3.4734    5.5373   -7.4927 H         1 <0>         0.4336
     31 H7         -1.0383    6.1558   -3.1504 H         1 <0>         0.4361
     32 H8         -1.4943    5.2726   -4.5049 H         1 <0>         0.4319
     33 H9          1.0513    5.2087    0.6657 H         1 <0>         0.1151
     34 H10         2.7604    4.8150    0.9694 H         1 <0>         0.1086
     35 H11        -0.6563    3.3104    0.7310 H         1 <0>         0.1707
     36 H12        -0.6120    0.7417    1.1595 H         1 <0>         0.1521
     37 H13         4.3780    2.9239    0.5102 H         1 <0>         0.1176
     38 H14         5.4939    0.7603    0.8053 H         1 <0>         0.1345
     39 H15         1.7201   -1.1677    1.3433 H         1 <0>         0.1346
     40 H16         6.0384   -1.1572    0.1899 H         1 <0>         0.0539
     41 H17         6.1390   -0.8658    1.9429 H         1 <0>         0.0563
     42 H18         6.1102   -2.5322    1.3179 H         1 <0>         0.1030
     43 N6          3.2125    5.1961   -5.0411 N.ar      1 <0>        -0.5888
     44 H19         4.1455    5.1030   -5.3886 H         1 <0>         0.4617
@<TRIPOS>BOND
     1    1    2 1
     2    1   25 1
     3    1   26 1
     4    1   27 1
     5    2    7 ar
     6    2    3 ar
     7    3    4 ar
     8    3   13 1
     9    4    5 ar
    10    4   28 1
    11    5    6 ar
    12    6    7 ar
    13    6   43 ar
    14    7    8 ar
    15    8    9 ar
    16    8   12 1
    17    9   10 ar
    18   10   11 1
    19   10   43 ar
    20   11   29 1
    21   11   30 1
    22   12   31 1
    23   12   32 1
    24   13   14 1
    25   13   33 1
    26   13   34 1
    27   14   18 1
    28   14   15 1
    29   15   16 2
    30   15   35 1
    31   16   17 1
    32   16   36 1
    33   17   22 ar
    34   17   18 ar
    35   18   19 ar
    36   19   20 ar
    37   19   37 1
    38   20   21 ar
    39   20   38 1
    40   21   22 ar
    41   21   23 1
    42   22   39 1
    43   23   24 1
    44   24   40 1
    45   24   41 1
    46   24   42 1
    47   43   44 1
@<TRIPOS>MOLECULE
ZINC03814970
   53    56     0     0     0
SMALL
USER_CHARGES

@<TRIPOS>ATOM
      1 C1          1.2200   -6.6664    2.9107 C.3       1 <0>        -0.1579
      2 C2          0.1857   -7.4183    2.1132 C.ar      1 <0>         0.0626
      3 C3         -1.0250   -6.8498    1.8143 C.ar      1 <0>        -0.2189
      4 C4         -1.9641   -7.5663    1.0828 C.ar      1 <0>         0.2105
      5 N1         -1.7230   -8.7846    0.6520 N.ar      1 <0>        -0.4891
      6 C5         -0.5648   -9.3922    0.9100 C.ar      1 <0>         0.4175
      7 C6          0.4329   -8.7178    1.6565 C.ar      1 <0>        -0.2824
      8 C7          1.6542   -9.3880    1.9152 C.ar      1 <0>         0.5250
      9 N2          1.8067  -10.6180    1.4455 N.ar      1 <0>        -0.6169
     10 C8          0.8445  -11.2157    0.7486 C.ar      1 <0>         0.6258
     11 N3         -0.3105  -10.6364    0.4801 N.ar      1 <0>        -0.5914
     12 N4          1.0634  -12.4992    0.2860 N.pl3     1 <0>        -0.8098
     13 N5          2.6566   -8.7775    2.6364 N.pl3     1 <0>        -0.8446
     14 C9         -1.3394   -5.4526    2.2833 C.3       1 <0>         0.1773
     15 N6         -0.7047   -4.4824    1.3877 N.pl3     1 <0>        -0.7317
     16 C10        -0.8555   -3.1095    1.6223 C.ar      1 <0>         0.2405
     17 C11        -1.6060   -2.6685    2.7027 C.ar      1 <0>        -0.2450
     18 C12        -1.7554   -1.3109    2.9342 C.ar      1 <0>         0.1496
     19 C13        -1.1525   -0.3892    2.0826 C.ar      1 <0>         0.0638
     20 C14        -0.4064   -0.8302    0.9992 C.ar      1 <0>        -0.1237
     21 C15        -0.2526   -2.1872    0.7707 C.ar      1 <0>         0.0385
     22 O1          0.4839   -2.6195   -0.2888 O.3       1 <0>        -0.3176
     23 C16         1.0738   -1.6184   -1.1206 C.3       1 <0>         0.0298
     24 N7         -1.3044    0.9878    2.3171 N.pl3     1 <0>        -0.3856
     25 C17        -2.4884    1.6328    2.5296 C.2       1 <0>         0.0076
     26 C18        -2.2266    2.9426    2.7191 C.2       1 <0>        -0.2046
     27 C19        -0.8325    3.1149    2.6103 C.2       1 <0>        -0.1958
     28 C20        -0.2931    1.9031    2.3643 C.2       1 <0>        -0.0191
     29 O2         -2.4908   -0.8784    3.9936 O.3       1 <0>        -0.3047
     30 C21        -3.0808   -1.8793    4.8256 C.3       1 <0>         0.0259
     31 H1          1.1592   -6.9646    3.9573 H         1 <0>         0.0876
     32 H2          2.2133   -6.8953    2.5248 H         1 <0>         0.1008
     33 H3          1.0355   -5.5954    2.8268 H         1 <0>         0.0873
     34 H4         -2.9160   -7.1083    0.8583 H         1 <0>         0.1675
     35 H5          1.9048  -12.9447    0.4716 H         1 <0>         0.4165
     36 H6          0.3757  -12.9546   -0.2245 H         1 <0>         0.4192
     37 H7          2.4378   -8.2513    3.4214 H         1 <0>         0.4185
     38 H8          3.5811   -8.8736    2.3592 H         1 <0>         0.4110
     39 H9         -0.9596   -5.3152    3.2957 H         1 <0>         0.0723
     40 H10        -2.4188   -5.3014    2.2765 H         1 <0>         0.0740
     41 H11        -0.1800   -4.7907    0.6324 H         1 <0>         0.4097
     42 H12        -2.0734   -3.3837    3.3634 H         1 <0>         0.1440
     43 H13         0.0575   -0.1150    0.3362 H         1 <0>         0.1420
     44 H14         1.6318   -2.0971   -1.9253 H         1 <0>         0.1008
     45 H15         0.2902   -0.9909   -1.5452 H         1 <0>         0.0551
     46 H16         1.7492   -1.0035   -0.5258 H         1 <0>         0.0546
     47 H17        -3.4657    1.1734    2.5462 H         1 <0>         0.1580
     48 H18        -2.9530    3.7177    2.9142 H         1 <0>         0.1359
     49 H19        -0.2943    4.0463    2.7069 H         1 <0>         0.1358
     50 H20         0.7576    1.6935    2.2282 H         1 <0>         0.1574
     51 H21        -3.6382   -1.4003    5.6306 H         1 <0>         0.1027
     52 H22        -3.7570   -2.4937    4.2310 H         1 <0>         0.0575
     53 H23        -2.2974   -2.5073    5.2497 H         1 <0>         0.0563
@<TRIPOS>BOND
     1    1    2 1
     2    1   31 1
     3    1   32 1
     4    1   33 1
     5    2    7 ar
     6    2    3 ar
     7    3    4 ar
     8    3   14 1
     9    4    5 ar
    10    4   34 1
    11    5    6 ar
    12    6   11 ar
    13    6    7 ar
    14    7    8 ar
    15    8    9 ar
    16    8   13 1
    17    9   10 ar
    18   10   11 ar
    19   10   12 1
    20   12   35 1
    21   12   36 1
    22   13   37 1
    23   13   38 1
    24   14   15 1
    25   14   39 1
    26   14   40 1
    27   15   16 1
    28   15   41 1
    29   16   21 ar
    30   16   17 ar
    31   17   18 ar
    32   17   42 1
    33   18   19 ar
    34   18   29 1
    35   19   20 ar
    36   19   24 1
    37   20   21 ar
    38   20   43 1
    39   21   22 1
    40   22   23 1
    41   23   44 1
    42   23   45 1
    43   23   46 1
    44   24   28 1
    45   24   25 1
    46   25   26 2
    47   25   47 1
    48   26   27 1
    49   26   48 1
    50   27   28 2
    51   27   49 1
    52   28   50 1
    53   29   30 1
    54   30   51 1
    55   30   52 1
    56   30   53 1
@<TRIPOS>MOLECULE
ZINC03814970
   54    57     0     0     0
SMALL
USER_CHARGES

@<TRIPOS>ATOM
      1 C1          1.2200   -6.6664    2.9107 C.3       1 <0>        -0.1711
      2 C2          0.1857   -7.4183    2.1132 C.ar      1 <0>         0.0795
      3 C3         -1.0250   -6.8498    1.8143 C.ar      1 <0>        -0.1751
      4 C4         -1.9641   -7.5663    1.0828 C.ar      1 <0>         0.2377
      5 N1         -1.7230   -8.7846    0.6520 N.ar      1 <0>        -0.4998
      6 C5         -0.5648   -9.3922    0.9100 C.ar      1 <0>         0.4077
      7 C6          0.4329   -8.7178    1.6565 C.ar      1 <0>        -0.2343
      8 C7          1.6542   -9.3880    1.9152 C.ar      1 <0>         0.5808
      9 N2          1.8067  -10.6180    1.4455 N.ar      1 <0>        -0.5713
     10 C8          0.8445  -11.2157    0.7486 C.ar      1 <0>         0.6941
     11 N3          1.0634  -12.4992    0.2860 N.pl3     1 <0>        -0.7773
     12 N4          2.6566   -8.7775    2.6364 N.pl3     1 <0>        -0.8007
     13 C9         -1.3394   -5.4526    2.2833 C.3       1 <0>         0.1673
     14 N5         -0.7047   -4.4824    1.3877 N.pl3     1 <0>        -0.7401
     15 C10        -0.8555   -3.1095    1.6223 C.ar      1 <0>         0.2277
     16 C11        -1.6060   -2.6685    2.7027 C.ar      1 <0>        -0.2390
     17 C12        -1.7554   -1.3109    2.9342 C.ar      1 <0>         0.1467
     18 C13        -1.1525   -0.3892    2.0826 C.ar      1 <0>         0.0810
     19 C14        -0.4064   -0.8302    0.9992 C.ar      1 <0>        -0.1247
     20 C15        -0.2526   -2.1872    0.7707 C.ar      1 <0>         0.0443
     21 O1          0.4839   -2.6195   -0.2888 O.3       1 <0>        -0.3211
     22 C16         1.0738   -1.6184   -1.1206 C.3       1 <0>         0.0282
     23 N6         -1.3044    0.9878    2.3171 N.pl3     1 <0>        -0.3924
     24 C17        -2.4884    1.6328    2.5296 C.2       1 <0>         0.0062
     25 C18        -2.2266    2.9426    2.7191 C.2       1 <0>        -0.1994
     26 C19        -0.8325    3.1149    2.6103 C.2       1 <0>        -0.1905
     27 C20        -0.2931    1.9031    2.3643 C.2       1 <0>        -0.0203
     28 O2         -2.4908   -0.8784    3.9936 O.3       1 <0>        -0.3014
     29 C21        -3.0808   -1.8793    4.8256 C.3       1 <0>         0.0259
     30 H1          1.1592   -6.9646    3.9573 H         1 <0>         0.1078
     31 H2          2.2133   -6.8953    2.5248 H         1 <0>         0.1072
     32 H3          1.0355   -5.5954    2.8268 H         1 <0>         0.1083
     33 H4         -2.9160   -7.1083    0.8583 H         1 <0>         0.1930
     34 H5          1.9048  -12.9447    0.4716 H         1 <0>         0.4463
     35 H6          0.3757  -12.9546   -0.2245 H         1 <0>         0.4337
     36 H7          2.4378   -8.2513    3.4214 H         1 <0>         0.4366
     37 H8          3.5811   -8.8736    2.3592 H         1 <0>         0.4315
     38 H9         -0.9596   -5.3152    3.2957 H         1 <0>         0.0838
     39 H10        -2.4188   -5.3014    2.2765 H         1 <0>         0.0846
     40 H11        -0.1800   -4.7907    0.6324 H         1 <0>         0.4088
     41 H12        -2.0734   -3.3837    3.3634 H         1 <0>         0.1434
     42 H13         0.0575   -0.1150    0.3362 H         1 <0>         0.1451
     43 H14         1.6318   -2.0971   -1.9253 H         1 <0>         0.1022
     44 H15         0.2902   -0.9909   -1.5452 H         1 <0>         0.0576
     45 H16         1.7492   -1.0035   -0.5258 H         1 <0>         0.0571
     46 H17        -3.4657    1.1734    2.5462 H         1 <0>         0.1590
     47 H18        -2.9530    3.7177    2.9142 H         1 <0>         0.1384
     48 H19        -0.2943    4.0463    2.7069 H         1 <0>         0.1384
     49 H20         0.7576    1.6935    2.2282 H         1 <0>         0.1586
     50 H21        -3.6382   -1.4003    5.6306 H         1 <0>         0.1056
     51 H22        -3.7570   -2.4937    4.2310 H         1 <0>         0.0568
     52 H23        -2.2974   -2.5073    5.2497 H         1 <0>         0.0556
     53 N7         -0.3602  -10.6722    0.4419 N.ar      1 <0>        -0.5898
     54 H24        -1.0252  -11.1976   -0.0888 H         1 <0>         0.4617
@<TRIPOS>BOND
     1    1    2 1
     2    1   30 1
     3    1   31 1
     4    1   32 1
     5    2    7 ar
     6    2    3 ar
     7    3    4 ar
     8    3   13 1
     9    4    5 ar
    10    4   33 1
    11    5    6 ar
    12    6    7 ar
    13    6   53 ar
    14    7    8 ar
    15    8    9 ar
    16    8   12 1
    17    9   10 ar
    18   10   11 1
    19   10   53 ar
    20   11   34 1
    21   11   35 1
    22   12   36 1
    23   12   37 1
    24   13   14 1
    25   13   38 1
    26   13   39 1
    27   14   15 1
    28   14   40 1
    29   15   20 ar
    30   15   16 ar
    31   16   17 ar
    32   16   41 1
    33   17   18 ar
    34   17   28 1
    35   18   19 ar
    36   18   23 1
    37   19   20 ar
    38   19   42 1
    39   20   21 1
    40   21   22 1
    41   22   43 1
    42   22   44 1
    43   22   45 1
    44   23   27 1
    45   23   24 1
    46   24   25 2
    47   24   46 1
    48   25   26 1
    49   25   47 1
    50   26   27 2
    51   26   48 1
    52   27   49 1
    53   28   29 1
    54   29   50 1
    55   29   51 1
    56   29   52 1
    57   53   54 1
@<TRIPOS>MOLECULE
ZINC03814971
   57    60     0     0     0
SMALL
USER_CHARGES

@<TRIPOS>ATOM
      1 C1          1.0347   -1.7352    0.3208 C.3       1 <0>        -0.1168
      2 C2          1.6579   -0.8083    1.3326 C.ar      1 <0>        -0.0959
      3 C3          2.4983   -1.3123    2.3049 C.ar      1 <0>        -0.0501
      4 C4          3.0676   -0.4594    3.2407 C.ar      1 <0>         0.0875
      5 C5          2.7973    0.9015    3.1950 C.ar      1 <0>        -0.0479
      6 C6          1.9619    1.4071    2.2192 C.ar      1 <0>        -0.1302
      7 C7          1.3917    0.5540    1.2830 C.ar      1 <0>         0.1295
      8 N1          0.5455    1.0658    0.2944 N.pl3     1 <0>        -0.6269
      9 C8          1.0755    0.7886   -1.0473 C.3       1 <0>         0.0956
     10 C9          0.1389    1.3537   -2.0840 C.ar      1 <0>        -0.1929
     11 C10        -0.7574    0.5194   -2.7412 C.ar      1 <0>         0.2117
     12 N2         -1.5924    0.9771   -3.6470 N.ar      1 <0>        -0.4872
     13 C11        -1.6078    2.2673   -3.9836 C.ar      1 <0>         0.4137
     14 C12        -0.7150    3.1696   -3.3543 C.ar      1 <0>        -0.2772
     15 C13         0.1734    2.6901   -2.3844 C.ar      1 <0>         0.0445
     16 C14         1.1395    3.6163   -1.6916 C.3       1 <0>        -0.1560
     17 C15        -0.7538    4.5344   -3.7314 C.ar      1 <0>         0.5222
     18 N3         -1.6263    4.9049   -4.6582 N.ar      1 <0>        -0.6160
     19 C16        -2.4473    4.0257   -5.2246 C.ar      1 <0>         0.6235
     20 N4         -2.4514    2.7438   -4.9098 N.ar      1 <0>        -0.5900
     21 N5         -3.3346    4.4733   -6.1847 N.pl3     1 <0>        -0.8108
     22 N6          0.0931    5.4526   -3.1506 N.pl3     1 <0>        -0.8461
     23 C17         1.6690    2.8846    2.1694 C.3       1 <0>        -0.1183
     24 C18         3.4156    1.8269    4.2111 C.3       1 <0>        -0.1243
     25 N7          3.9171   -0.9732    4.2331 N.pl3     1 <0>        -0.3949
     26 C19         5.2489   -0.7009    4.3598 C.2       1 <0>        -0.0119
     27 C20         5.7166   -1.3745    5.4308 C.2       1 <0>        -0.1963
     28 C21         4.6383   -2.0963    5.9801 C.2       1 <0>        -0.1984
     29 C22         3.5500   -1.8327    5.2283 C.2       1 <0>        -0.0053
     30 C23         2.7924   -2.7895    2.3547 C.3       1 <0>        -0.1183
     31 H1          1.6918   -1.8235   -0.5443 H         1 <0>         0.0710
     32 H2          0.8901   -2.7181    0.7692 H         1 <0>         0.0704
     33 H3          0.0712   -1.3343    0.0058 H         1 <0>         0.0815
     34 H4          0.3927    2.0545    0.4256 H         1 <0>         0.3568
     35 H5          1.1649   -0.2887   -1.1872 H         1 <0>         0.1068
     36 H6          2.0566    1.2514   -1.1532 H         1 <0>         0.0539
     37 H7         -0.7710   -0.5328   -2.4979 H         1 <0>         0.1670
     38 H8          2.0190    3.7596   -2.3193 H         1 <0>         0.0894
     39 H9          0.6579    4.5782   -1.5157 H         1 <0>         0.1038
     40 H10         1.4402    3.1809   -0.7386 H         1 <0>         0.0735
     41 H11        -3.3491    5.4111   -6.4321 H         1 <0>         0.4161
     42 H12        -3.9429    3.8497   -6.6112 H         1 <0>         0.4189
     43 H13         1.0198    5.2197   -2.9834 H         1 <0>         0.4175
     44 H14        -0.2371    6.3320   -2.9089 H         1 <0>         0.4107
     45 H15         0.7902    3.1014    2.7767 H         1 <0>         0.0762
     46 H16         2.5243    3.4378    2.5575 H         1 <0>         0.0782
     47 H17         1.4808    3.1831    1.1382 H         1 <0>         0.0604
     48 H18         2.7566    1.9099    5.0753 H         1 <0>         0.0745
     49 H19         4.3798    1.4281    4.5265 H         1 <0>         0.0747
     50 H20         3.5576    2.8119    3.7665 H         1 <0>         0.0736
     51 H21         5.8275   -0.0555    3.7155 H         1 <0>         0.1577
     52 H22         6.7325   -1.3658    5.7972 H         1 <0>         0.1365
     53 H23         4.6763   -2.7423    6.8448 H         1 <0>         0.1367
     54 H24         2.5593   -2.2328    5.3860 H         1 <0>         0.1577
     55 H25         2.0553   -3.2857    2.9860 H         1 <0>         0.0751
     56 H26         2.7457   -3.2034    1.3474 H         1 <0>         0.0739
     57 H27         3.7891   -2.9479    2.7667 H         1 <0>         0.0710
@<TRIPOS>BOND
     1    1    2 1
     2    1   31 1
     3    1   32 1
     4    1   33 1
     5    2    7 ar
     6    2    3 ar
     7    3    4 ar
     8    3   30 1
     9    4    5 ar
    10    4   25 1
    11    5    6 ar
    12    5   24 1
    13    6    7 ar
    14    6   23 1
    15    7    8 1
    16    8    9 1
    17    8   34 1
    18    9   10 1
    19    9   35 1
    20    9   36 1
    21   10   15 ar
    22   10   11 ar
    23   11   12 ar
    24   11   37 1
    25   12   13 ar
    26   13   20 ar
    27   13   14 ar
    28   14   15 ar
    29   14   17 ar
    30   15   16 1
    31   16   38 1
    32   16   39 1
    33   16   40 1
    34   17   18 ar
    35   17   22 1
    36   18   19 ar
    37   19   20 ar
    38   19   21 1
    39   21   41 1
    40   21   42 1
    41   22   43 1
    42   22   44 1
    43   23   45 1
    44   23   46 1
    45   23   47 1
    46   24   48 1
    47   24   49 1
    48   24   50 1
    49   25   29 1
    50   25   26 1
    51   26   27 2
    52   26   51 1
    53   27   28 1
    54   27   52 1
    55   28   29 2
    56   28   53 1
    57   29   54 1
    58   30   55 1
    59   30   56 1
    60   30   57 1
@<TRIPOS>MOLECULE
ZINC03814971
   58    61     0     0     0
SMALL
USER_CHARGES

@<TRIPOS>ATOM
      1 C1          1.0347   -1.7352    0.3208 C.3       1 <0>        -0.1176
      2 C2          1.6579   -0.8083    1.3326 C.ar      1 <0>        -0.0932
      3 C3          2.4983   -1.3123    2.3049 C.ar      1 <0>        -0.0495
      4 C4          3.0676   -0.4594    3.2407 C.ar      1 <0>         0.1016
      5 C5          2.7973    0.9015    3.1950 C.ar      1 <0>        -0.0470
      6 C6          1.9619    1.4071    2.2192 C.ar      1 <0>        -0.1257
      7 C7          1.3917    0.5540    1.2830 C.ar      1 <0>         0.1161
      8 N1          0.5455    1.0658    0.2944 N.pl3     1 <0>        -0.6257
      9 C8          1.0755    0.7886   -1.0473 C.3       1 <0>         0.0795
     10 C9          0.1389    1.3537   -2.0840 C.ar      1 <0>        -0.1501
     11 C10        -0.7574    0.5194   -2.7412 C.ar      1 <0>         0.2390
     12 N2         -1.5924    0.9771   -3.6470 N.ar      1 <0>        -0.4982
     13 C11        -1.6078    2.2673   -3.9836 C.ar      1 <0>         0.3958
     14 C12        -0.7150    3.1696   -3.3543 C.ar      1 <0>        -0.2302
     15 C13         0.1734    2.6901   -2.3844 C.ar      1 <0>         0.0621
     16 C14         1.1395    3.6163   -1.6916 C.3       1 <0>        -0.1701
     17 C15        -0.7538    4.5344   -3.7314 C.ar      1 <0>         0.5797
     18 N3         -1.6263    4.9049   -4.6582 N.ar      1 <0>        -0.5698
     19 C16        -2.4473    4.0257   -5.2246 C.ar      1 <0>         0.7007
     20 N4         -3.3346    4.4733   -6.1847 N.pl3     1 <0>        -0.7776
     21 N5          0.0931    5.4526   -3.1506 N.pl3     1 <0>        -0.8029
     22 C17         1.6690    2.8846    2.1694 C.3       1 <0>        -0.1175
     23 C18         3.4156    1.8269    4.2111 C.3       1 <0>        -0.1270
     24 N6          3.9171   -0.9732    4.2331 N.pl3     1 <0>        -0.4015
     25 C19         5.2489   -0.7009    4.3598 C.2       1 <0>        -0.0138
     26 C20         5.7166   -1.3745    5.4308 C.2       1 <0>        -0.1912
     27 C21         4.6383   -2.0963    5.9801 C.2       1 <0>        -0.1936
     28 C22         3.5500   -1.8327    5.2283 C.2       1 <0>        -0.0065
     29 C23         2.7924   -2.7895    2.3547 C.3       1 <0>        -0.1210
     30 H1          1.6918   -1.8235   -0.5443 H         1 <0>         0.0707
     31 H2          0.8901   -2.7181    0.7692 H         1 <0>         0.0750
     32 H3          0.0712   -1.3343    0.0058 H         1 <0>         0.0778
     33 H4          0.3927    2.0545    0.4256 H         1 <0>         0.3554
     34 H5          1.1649   -0.2887   -1.1872 H         1 <0>         0.1180
     35 H6          2.0566    1.2514   -1.1532 H         1 <0>         0.0671
     36 H7         -0.7710   -0.5328   -2.4979 H         1 <0>         0.1924
     37 H8          2.0190    3.7596   -2.3193 H         1 <0>         0.1096
     38 H9          0.6579    4.5782   -1.5157 H         1 <0>         0.1102
     39 H10         1.4402    3.1809   -0.7386 H         1 <0>         0.0938
     40 H11        -3.3491    5.4111   -6.4321 H         1 <0>         0.4458
     41 H12        -3.9429    3.8497   -6.6112 H         1 <0>         0.4337
     42 H13         1.0198    5.2197   -2.9834 H         1 <0>         0.4358
     43 H14        -0.2371    6.3320   -2.9089 H         1 <0>         0.4312
     44 H15         0.7902    3.1014    2.7767 H         1 <0>         0.0784
     45 H16         2.5243    3.4378    2.5575 H         1 <0>         0.0817
     46 H17         1.4808    3.1831    1.1382 H         1 <0>         0.0548
     47 H18         2.7566    1.9099    5.0753 H         1 <0>         0.0774
     48 H19         4.3798    1.4281    4.5265 H         1 <0>         0.0776
     49 H20         3.5576    2.8119    3.7665 H         1 <0>         0.0744
     50 H21         5.8275   -0.0555    3.7155 H         1 <0>         0.1586
     51 H22         6.7325   -1.3658    5.7972 H         1 <0>         0.1389
     52 H23         4.6763   -2.7423    6.8448 H         1 <0>         0.1391
     53 H24         2.5593   -2.2328    5.3860 H         1 <0>         0.1587
     54 H25         2.0553   -3.2857    2.9860 H         1 <0>         0.0778
     55 H26         2.7457   -3.2034    1.3474 H         1 <0>         0.0743
     56 H27         3.7891   -2.9479    2.7667 H         1 <0>         0.0741
     57 N7         -2.4975    2.6992   -4.9429 N.ar      1 <0>        -0.5906
     58 H28        -3.1200    2.0479   -5.3769 H         1 <0>         0.4634
@<TRIPOS>BOND
     1    1    2 1
     2    1   30 1
     3    1   31 1
     4    1   32 1
     5    2    7 ar
     6    2    3 ar
     7    3    4 ar
     8    3   29 1
     9    4    5 ar
    10    4   24 1
    11    5    6 ar
    12    5   23 1
    13    6    7 ar
    14    6   22 1
    15    7    8 1
    16    8    9 1
    17    8   33 1
    18    9   10 1
    19    9   34 1
    20    9   35 1
    21   10   15 ar
    22   10   11 ar
    23   11   12 ar
    24   11   36 1
    25   12   13 ar
    26   13   14 ar
    27   13   57 ar
    28   14   15 ar
    29   14   17 ar
    30   15   16 1
    31   16   37 1
    32   16   38 1
    33   16   39 1
    34   17   18 ar
    35   17   21 1
    36   18   19 ar
    37   19   20 1
    38   19   57 ar
    39   20   40 1
    40   20   41 1
    41   21   42 1
    42   21   43 1
    43   22   44 1
    44   22   45 1
    45   22   46 1
    46   23   47 1
    47   23   48 1
    48   23   49 1
    49   24   28 1
    50   24   25 1
    51   25   26 2
    52   25   50 1
    53   26   27 1
    54   26   51 1
    55   27   28 2
    56   27   52 1
    57   28   53 1
    58   29   54 1
    59   29   55 1
    60   29   56 1
    61   57   58 1
@<TRIPOS>MOLECULE
ZINC03814972
   37    39     0     0     0
SMALL
USER_CHARGES

@<TRIPOS>ATOM
      1 C1         -0.0700   -0.0033    0.6150 C.3       1 <0>        -0.1544
      2 C2         -0.0875    1.5035    0.5983 C.ar      1 <0>         0.0605
      3 C3         -1.2454    2.1982    0.8324 C.ar      1 <0>        -0.2181
      4 C4         -1.2346    3.5874    0.8144 C.ar      1 <0>         0.2102
      5 N1         -0.1370    4.2679    0.5695 N.ar      1 <0>        -0.4890
      6 C5          1.0200    3.6503    0.3300 C.ar      1 <0>         0.4168
      7 C6          1.0769    2.2347    0.3375 C.ar      1 <0>        -0.2824
      8 C7          2.3199    1.6054    0.0792 C.ar      1 <0>         0.5248
      9 N2          3.3743    2.3726   -0.1580 N.ar      1 <0>        -0.6170
     10 C8          3.2781    3.6991   -0.1557 C.ar      1 <0>         0.6257
     11 N3          2.1452    4.3344    0.0784 N.ar      1 <0>        -0.5914
     12 N4          4.4134    4.4445   -0.4100 N.pl3     1 <0>        -0.8098
     13 N5          2.4294    0.2322    0.0742 N.pl3     1 <0>        -0.8448
     14 C9         -2.5273    1.4568    1.1120 C.3       1 <0>         0.1757
     15 N6         -2.5467    1.0258    2.5121 N.pl3     1 <0>        -0.7404
     16 C10        -3.6416    0.3149    3.0088 C.ar      1 <0>         0.2289
     17 C11        -3.6615   -0.0946    4.3364 C.ar      1 <0>        -0.1910
     18 C12        -4.7454   -0.7968    4.8251 C.ar      1 <0>        -0.0584
     19 C13        -5.8112   -1.0926    3.9951 C.ar      1 <0>        -0.1702
     20 C14        -5.7952   -0.6865    2.6722 C.ar      1 <0>         0.0147
     21 C15        -4.7151    0.0210    2.1784 C.ar      1 <0>        -0.1928
     22 Cl1        -7.1356   -1.0596    1.6341 Cl        1 <0>        -0.0710
     23 H1          0.2751   -0.3519    1.5884 H         1 <0>         0.0870
     24 H2         -1.0758   -0.3804    0.4297 H         1 <0>         0.0857
     25 H3          0.6032   -0.3675   -0.1610 H         1 <0>         0.0998
     26 H4         -2.1533    4.1226    1.0043 H         1 <0>         0.1678
     27 H5          5.2570    3.9988   -0.5850 H         1 <0>         0.4166
     28 H6          4.3668    5.4133   -0.4134 H         1 <0>         0.4192
     29 H7          2.9687   -0.2089   -0.6007 H         1 <0>         0.4111
     30 H8          1.9673   -0.2936    0.7456 H         1 <0>         0.4185
     31 H9         -3.3760    2.1140    0.9224 H         1 <0>         0.0745
     32 H10        -2.5914    0.5840    0.4622 H         1 <0>         0.0743
     33 H11        -1.7992    1.2340    3.0941 H         1 <0>         0.4023
     34 H12        -2.8300    0.1365    4.9857 H         1 <0>         0.1250
     35 H13        -4.7609   -1.1152    5.8570 H         1 <0>         0.1310
     36 H14        -6.6579   -1.6414    4.3801 H         1 <0>         0.1293
     37 H15        -4.7047    0.3418    1.1471 H         1 <0>         0.1314
@<TRIPOS>BOND
     1    1    2 1
     2    1   23 1
     3    1   24 1
     4    1   25 1
     5    2    7 ar
     6    2    3 ar
     7    3    4 ar
     8    3   14 1
     9    4    5 ar
    10    4   26 1
    11    5    6 ar
    12    6   11 ar
    13    6    7 ar
    14    7    8 ar
    15    8    9 ar
    16    8   13 1
    17    9   10 ar
    18   10   11 ar
    19   10   12 1
    20   12   27 1
    21   12   28 1
    22   13   29 1
    23   13   30 1
    24   14   15 1
    25   14   31 1
    26   14   32 1
    27   15   16 1
    28   15   33 1
    29   16   21 ar
    30   16   17 ar
    31   17   18 ar
    32   17   34 1
    33   18   19 ar
    34   18   35 1
    35   19   20 ar
    36   19   36 1
    37   20   21 ar
    38   20   22 1
    39   21   37 1
@<TRIPOS>MOLECULE
ZINC03814972
   38    40     0     0     0
SMALL
USER_CHARGES

@<TRIPOS>ATOM
      1 C1         -0.0700   -0.0033    0.6150 C.3       1 <0>        -0.1677
      2 C2         -0.0875    1.5035    0.5983 C.ar      1 <0>         0.0777
      3 C3         -1.2454    2.1982    0.8324 C.ar      1 <0>        -0.1750
      4 C4         -1.2346    3.5874    0.8144 C.ar      1 <0>         0.2376
      5 N1         -0.1370    4.2679    0.5695 N.ar      1 <0>        -0.4999
      6 C5          1.0200    3.6503    0.3300 C.ar      1 <0>         0.4072
      7 C6          1.0769    2.2347    0.3375 C.ar      1 <0>        -0.2343
      8 C7          2.3199    1.6054    0.0792 C.ar      1 <0>         0.5807
      9 N2          3.3743    2.3726   -0.1580 N.ar      1 <0>        -0.5714
     10 C8          3.2781    3.6991   -0.1557 C.ar      1 <0>         0.6941
     11 N3          4.4134    4.4445   -0.4100 N.pl3     1 <0>        -0.7772
     12 N4          2.4294    0.2322    0.0742 N.pl3     1 <0>        -0.8009
     13 C9         -2.5273    1.4568    1.1120 C.3       1 <0>         0.1660
     14 N5         -2.5467    1.0258    2.5121 N.pl3     1 <0>        -0.7473
     15 C10        -3.6416    0.3149    3.0088 C.ar      1 <0>         0.2186
     16 C11        -3.6615   -0.0946    4.3364 C.ar      1 <0>        -0.1846
     17 C12        -4.7454   -0.7968    4.8251 C.ar      1 <0>        -0.0576
     18 C13        -5.8112   -1.0926    3.9951 C.ar      1 <0>        -0.1590
     19 C14        -5.7952   -0.6865    2.6722 C.ar      1 <0>         0.0122
     20 C15        -4.7151    0.0210    2.1784 C.ar      1 <0>        -0.1891
     21 Cl1        -7.1356   -1.0596    1.6341 Cl        1 <0>        -0.0625
     22 H1          0.2751   -0.3519    1.5884 H         1 <0>         0.1070
     23 H2         -1.0758   -0.3804    0.4297 H         1 <0>         0.1069
     24 H3          0.6032   -0.3675   -0.1610 H         1 <0>         0.1062
     25 H4         -2.1533    4.1226    1.0043 H         1 <0>         0.1932
     26 H5          5.2570    3.9988   -0.5850 H         1 <0>         0.4463
     27 H6          4.3668    5.4133   -0.4134 H         1 <0>         0.4337
     28 H7          2.9687   -0.2089   -0.6007 H         1 <0>         0.4316
     29 H8          1.9673   -0.2936    0.7456 H         1 <0>         0.4366
     30 H9         -3.3760    2.1140    0.9224 H         1 <0>         0.0855
     31 H10        -2.5914    0.5840    0.4622 H         1 <0>         0.0857
     32 H11        -1.7992    1.2340    3.0941 H         1 <0>         0.4016
     33 H12        -2.8300    0.1365    4.9857 H         1 <0>         0.1260
     34 H13        -4.7609   -1.1152    5.8570 H         1 <0>         0.1349
     35 H14        -6.6579   -1.6414    4.3801 H         1 <0>         0.1338
     36 H15        -4.7047    0.3418    1.1471 H         1 <0>         0.1310
     37 N6          2.1441    4.4066    0.0776 N.ar      1 <0>        -0.5898
     38 H16         2.1655    5.4062    0.0585 H         1 <0>         0.4618
@<TRIPOS>BOND
     1    1    2 1
     2    1   22 1
     3    1   23 1
     4    1   24 1
     5    2    7 ar
     6    2    3 ar
     7    3    4 ar
     8    3   13 1
     9    4    5 ar
    10    4   25 1
    11    5    6 ar
    12    6    7 ar
    13    6   37 ar
    14    7    8 ar
    15    8    9 ar
    16    8   12 1
    17    9   10 ar
    18   10   11 1
    19   10   37 ar
    20   11   26 1
    21   11   27 1
    22   12   28 1
    23   12   29 1
    24   13   14 1
    25   13   30 1
    26   13   31 1
    27   14   15 1
    28   14   32 1
    29   15   20 ar
    30   15   16 ar
    31   16   17 ar
    32   16   33 1
    33   17   18 ar
    34   17   34 1
    35   18   19 ar
    36   18   35 1
    37   19   20 ar
    38   19   21 1
    39   20   36 1
    40   37   38 1
@<TRIPOS>MOLECULE
ZINC03814973
   37    39     0     0     0
SMALL
USER_CHARGES

@<TRIPOS>ATOM
      1 C1          1.1353    3.6264   -1.6998 C.3       1 <0>        -0.1578
      2 C2          0.1690    2.6999   -2.3919 C.ar      1 <0>         0.0611
      3 C3          0.1355    1.3631   -2.0919 C.ar      1 <0>        -0.2190
      4 C4         -0.7605    0.5288   -2.7486 C.ar      1 <0>         0.2099
      5 N1         -1.5971    0.9867   -3.6532 N.ar      1 <0>        -0.4893
      6 C5         -1.6135    2.2767   -3.9891 C.ar      1 <0>         0.4170
      7 C6         -0.7204    3.1792   -3.3604 C.ar      1 <0>        -0.2828
      8 C7         -0.7604    4.5445   -3.7370 C.ar      1 <0>         0.5247
      9 N2         -1.6339    4.9148   -4.6626 N.ar      1 <0>        -0.6167
     10 C8         -2.4553    4.0352   -5.2286 C.ar      1 <0>         0.6257
     11 N3         -2.4588    2.7534   -4.9141 N.ar      1 <0>        -0.5914
     12 N4         -3.3435    4.4827   -6.1879 N.pl3     1 <0>        -0.8098
     13 N5          0.0866    5.4630   -3.1569 N.pl3     1 <0>        -0.8447
     14 C9          1.0731    0.7981   -1.0561 C.3       1 <0>         0.1772
     15 N6          0.5453    1.0738    0.2824 N.pl3     1 <0>        -0.7417
     16 C10         1.2463    0.6435    1.4122 C.ar      1 <0>         0.2209
     17 C11         2.4407   -0.0505    1.2673 C.ar      1 <0>        -0.1868
     18 C12         3.1345   -0.4692    2.3857 C.ar      1 <0>        -0.0603
     19 C13         2.6346   -0.2085    3.6495 C.ar      1 <0>        -0.0927
     20 C14         1.4420    0.4778    3.7966 C.ar      1 <0>        -0.0605
     21 C15         0.7471    0.9041    2.6818 C.ar      1 <0>        -0.1833
     22 Cl1         3.5055   -0.7430    5.0529 Cl        1 <0>        -0.0795
     23 H1          2.0147    3.7693   -2.3278 H         1 <0>         0.0879
     24 H2          0.6539    4.5884   -1.5244 H         1 <0>         0.1004
     25 H3          1.4362    3.1915   -0.7467 H         1 <0>         0.0875
     26 H4         -0.7731   -0.5236   -2.5061 H         1 <0>         0.1678
     27 H5         -3.3585    5.4205   -6.4351 H         1 <0>         0.4166
     28 H6         -3.9520    3.8590   -6.6140 H         1 <0>         0.4192
     29 H7          1.0137    5.2307   -2.9911 H         1 <0>         0.4186
     30 H8         -0.2440    6.3420   -2.9141 H         1 <0>         0.4110
     31 H9          1.1631   -0.2790   -1.1965 H         1 <0>         0.0747
     32 H10         2.0539    1.2616   -1.1625 H         1 <0>         0.0731
     33 H11        -0.2907    1.5549    0.3845 H         1 <0>         0.4018
     34 H12         2.8287   -0.2588    0.2812 H         1 <0>         0.1300
     35 H13         4.0659   -1.0043    2.2738 H         1 <0>         0.1316
     36 H14         1.0545    0.6805    4.7841 H         1 <0>         0.1315
     37 H15        -0.1835    1.4400    2.7973 H         1 <0>         0.1281
@<TRIPOS>BOND
     1    1    2 1
     2    1   23 1
     3    1   24 1
     4    1   25 1
     5    2    7 ar
     6    2    3 ar
     7    3    4 ar
     8    3   14 1
     9    4    5 ar
    10    4   26 1
    11    5    6 ar
    12    6   11 ar
    13    6    7 ar
    14    7    8 ar
    15    8    9 ar
    16    8   13 1
    17    9   10 ar
    18   10   11 ar
    19   10   12 1
    20   12   27 1
    21   12   28 1
    22   13   29 1
    23   13   30 1
    24   14   15 1
    25   14   31 1
    26   14   32 1
    27   15   16 1
    28   15   33 1
    29   16   21 ar
    30   16   17 ar
    31   17   18 ar
    32   17   34 1
    33   18   19 ar
    34   18   35 1
    35   19   20 ar
    36   19   22 1
    37   20   21 ar
    38   20   36 1
    39   21   37 1
@<TRIPOS>MOLECULE
ZINC03814973
   38    40     0     0     0
SMALL
USER_CHARGES

@<TRIPOS>ATOM
      1 C1          1.1353    3.6264   -1.6998 C.3       1 <0>        -0.1709
      2 C2          0.1690    2.6999   -2.3919 C.ar      1 <0>         0.0783
      3 C3          0.1355    1.3631   -2.0919 C.ar      1 <0>        -0.1755
      4 C4         -0.7605    0.5288   -2.7486 C.ar      1 <0>         0.2372
      5 N1         -1.5971    0.9867   -3.6532 N.ar      1 <0>        -0.5000
      6 C5         -1.6135    2.2767   -3.9891 C.ar      1 <0>         0.4074
      7 C6         -0.7204    3.1792   -3.3604 C.ar      1 <0>        -0.2345
      8 C7         -0.7604    4.5445   -3.7370 C.ar      1 <0>         0.5806
      9 N2         -1.6339    4.9148   -4.6626 N.ar      1 <0>        -0.5713
     10 C8         -2.4553    4.0352   -5.2286 C.ar      1 <0>         0.6940
     11 N3         -3.3435    4.4827   -6.1879 N.pl3     1 <0>        -0.7771
     12 N4          0.0866    5.4630   -3.1569 N.pl3     1 <0>        -0.8008
     13 C9          1.0731    0.7981   -1.0561 C.3       1 <0>         0.1671
     14 N5          0.5453    1.0738    0.2824 N.pl3     1 <0>        -0.7490
     15 C10         1.2463    0.6435    1.4122 C.ar      1 <0>         0.2097
     16 C11         2.4407   -0.0505    1.2673 C.ar      1 <0>        -0.1822
     17 C12         3.1345   -0.4692    2.3857 C.ar      1 <0>        -0.0614
     18 C13         2.6346   -0.2085    3.6495 C.ar      1 <0>        -0.0832
     19 C14         1.4420    0.4778    3.7966 C.ar      1 <0>        -0.0612
     20 C15         0.7471    0.9041    2.6818 C.ar      1 <0>        -0.1760
     21 Cl1         3.5055   -0.7430    5.0529 Cl        1 <0>        -0.0685
     22 H1          2.0147    3.7693   -2.3278 H         1 <0>         0.1081
     23 H2          0.6539    4.5884   -1.5244 H         1 <0>         0.1068
     24 H3          1.4362    3.1915   -0.7467 H         1 <0>         0.1083
     25 H4         -0.7731   -0.5236   -2.5061 H         1 <0>         0.1932
     26 H5         -3.3585    5.4205   -6.4351 H         1 <0>         0.4463
     27 H6         -3.9520    3.8590   -6.6140 H         1 <0>         0.4337
     28 H7          1.0137    5.2307   -2.9911 H         1 <0>         0.4367
     29 H8         -0.2440    6.3420   -2.9141 H         1 <0>         0.4315
     30 H9          1.1631   -0.2790   -1.1965 H         1 <0>         0.0856
     31 H10         2.0539    1.2616   -1.1625 H         1 <0>         0.0850
     32 H11        -0.2907    1.5549    0.3845 H         1 <0>         0.4011
     33 H12         2.8287   -0.2588    0.2812 H         1 <0>         0.1297
     34 H13         4.0659   -1.0043    2.2738 H         1 <0>         0.1352
     35 H14         1.0545    0.6805    4.7841 H         1 <0>         0.1354
     36 H15        -0.1835    1.4400    2.7973 H         1 <0>         0.1290
     37 N6         -2.5050    2.7088   -4.9471 N.ar      1 <0>        -0.5898
     38 H16        -3.1578    2.1205   -5.4243 H         1 <0>         0.4618
@<TRIPOS>BOND
     1    1    2 1
     2    1   22 1
     3    1   23 1
     4    1   24 1
     5    2    7 ar
     6    2    3 ar
     7    3    4 ar
     8    3   13 1
     9    4    5 ar
    10    4   25 1
    11    5    6 ar
    12    6    7 ar
    13    6   37 ar
    14    7    8 ar
    15    8    9 ar
    16    8   12 1
    17    9   10 ar
    18   10   11 1
    19   10   37 ar
    20   11   26 1
    21   11   27 1
    22   12   28 1
    23   12   29 1
    24   13   14 1
    25   13   30 1
    26   13   31 1
    27   14   15 1
    28   14   32 1
    29   15   20 ar
    30   15   16 ar
    31   16   17 ar
    32   16   33 1
    33   17   18 ar
    34   17   34 1
    35   18   19 ar
    36   18   21 1
    37   19   20 ar
    38   19   35 1
    39   20   36 1
    40   37   38 1
@<TRIPOS>MOLECULE
ZINC03814974
   44    46     0     0     0
SMALL
USER_CHARGES

@<TRIPOS>ATOM
      1 C1          2.6099    0.5225    8.9183 C.3       1 <0>        -0.1522
      2 C2          2.7168    1.6440    7.9174 C.ar      1 <0>         0.0398
      3 C3          1.9093    1.6812    6.8106 C.ar      1 <0>        -0.2129
      4 C4          2.0317    2.7228    5.8995 C.ar      1 <0>         0.2092
      5 N1          2.9007    3.6940    6.0710 N.ar      1 <0>        -0.4885
      6 C5          3.7143    3.7147    7.1270 C.ar      1 <0>         0.4077
      7 C6          3.6438    2.6781    8.0903 C.ar      1 <0>        -0.2749
      8 C7          4.5204    2.7263    9.2024 C.ar      1 <0>         0.5212
      9 N2          5.3678    3.7416    9.2900 N.ar      1 <0>        -0.6146
     10 C8          5.4019    4.6949    8.3633 C.ar      1 <0>         0.6201
     11 N3          4.6080    4.6974    7.3090 N.ar      1 <0>        -0.5891
     12 N4          6.3082    5.7275    8.5104 N.pl3     1 <0>        -0.8123
     13 N5          4.4929    1.7433   10.1672 N.pl3     1 <0>        -0.8488
     14 C9          0.8949    0.5910    6.5793 C.3       1 <0>         0.1791
     15 N6          0.2714    0.7748    5.2664 N.pl3     1 <0>        -0.6301
     16 C10        -1.0002    1.4936    5.1534 C.3       1 <0>         0.0872
     17 C11         0.8893    0.2647    4.1224 C.ar      1 <0>         0.2470
     18 C12         2.0955   -0.4173    4.2284 C.ar      1 <0>        -0.2250
     19 C13         2.7060   -0.9220    3.0970 C.ar      1 <0>        -0.0355
     20 C14         2.1197   -0.7505    1.8571 C.ar      1 <0>        -0.2606
     21 C15         0.9156   -0.0699    1.7451 C.ar      1 <0>         0.1708
     22 C16         0.3023    0.4432    2.8774 C.ar      1 <0>        -0.2274
     23 O1          0.3406    0.0982    0.5252 O.3       1 <0>        -0.3182
     24 C17         1.0310   -0.4516   -0.5987 C.3       1 <0>         0.0284
     25 H1          3.3624   -0.2345    8.6975 H         1 <0>         0.0864
     26 H2          2.7728    0.9148    9.9222 H         1 <0>         0.1010
     27 H3          1.6172    0.0762    8.8593 H         1 <0>         0.0803
     28 H4          1.3925    2.7374    5.0291 H         1 <0>         0.1631
     29 H5          6.9019    5.7461    9.2773 H         1 <0>         0.4156
     30 H6          6.3508    6.4337    7.8469 H         1 <0>         0.4183
     31 H7          4.4357    0.8104    9.9076 H         1 <0>         0.4175
     32 H8          4.5308    1.9841   11.1061 H         1 <0>         0.4101
     33 H9          0.1298    0.6363    7.3543 H         1 <0>         0.0923
     34 H10         1.3901   -0.3794    6.6137 H         1 <0>         0.0888
     35 H11        -1.8226    0.7782    5.1474 H         1 <0>         0.0544
     36 H12        -1.1123    2.1690    6.0016 H         1 <0>         0.0711
     37 H13        -1.0117    2.0682    4.2273 H         1 <0>         0.0707
     38 H14         2.5555   -0.5530    5.1960 H         1 <0>         0.1206
     39 H15         3.6436   -1.4514    3.1812 H         1 <0>         0.1224
     40 H16         2.5996   -1.1463    0.9743 H         1 <0>         0.1237
     41 H17        -0.6326    0.9769    2.7915 H         1 <0>         0.1314
     42 H18         1.1348   -1.5290   -0.4698 H         1 <0>         0.0559
     43 H19         2.0191    0.0020   -0.6756 H         1 <0>         0.0562
     44 H20         0.4656   -0.2473   -1.5079 H         1 <0>         0.0995
@<TRIPOS>BOND
     1    1    2 1
     2    1   25 1
     3    1   26 1
     4    1   27 1
     5    2    7 ar
     6    2    3 ar
     7    3    4 ar
     8    3   14 1
     9    4    5 ar
    10    4   28 1
    11    5    6 ar
    12    6   11 ar
    13    6    7 ar
    14    7    8 ar
    15    8    9 ar
    16    8   13 1
    17    9   10 ar
    18   10   11 ar
    19   10   12 1
    20   12   29 1
    21   12   30 1
    22   13   31 1
    23   13   32 1
    24   14   15 1
    25   14   33 1
    26   14   34 1
    27   15   16 1
    28   15   17 1
    29   16   35 1
    30   16   36 1
    31   16   37 1
    32   17   22 ar
    33   17   18 ar
    34   18   19 ar
    35   18   38 1
    36   19   20 ar
    37   19   39 1
    38   20   21 ar
    39   20   40 1
    40   21   22 ar
    41   21   23 1
    42   22   41 1
    43   23   24 1
    44   24   42 1
    45   24   43 1
    46   24   44 1
@<TRIPOS>MOLECULE
ZINC03814974
   45    47     0     0     0
SMALL
USER_CHARGES

@<TRIPOS>ATOM
      1 C1          2.6099    0.5225    8.9183 C.3       1 <0>        -0.1652
      2 C2          2.7168    1.6440    7.9174 C.ar      1 <0>         0.0595
      3 C3          1.9093    1.6812    6.8106 C.ar      1 <0>        -0.1721
      4 C4          2.0317    2.7228    5.8995 C.ar      1 <0>         0.2341
      5 N1          2.9007    3.6940    6.0710 N.ar      1 <0>        -0.4983
      6 C5          3.7143    3.7147    7.1270 C.ar      1 <0>         0.3951
      7 C6          3.6438    2.6781    8.0903 C.ar      1 <0>        -0.2286
      8 C7          4.5204    2.7263    9.2024 C.ar      1 <0>         0.5813
      9 N2          5.3678    3.7416    9.2900 N.ar      1 <0>        -0.5706
     10 C8          5.4019    4.6949    8.3633 C.ar      1 <0>         0.6918
     11 N3          6.3082    5.7275    8.5104 N.pl3     1 <0>        -0.7794
     12 N4          4.4929    1.7433   10.1672 N.pl3     1 <0>        -0.8071
     13 C9          0.8949    0.5910    6.5793 C.3       1 <0>         0.1679
     14 N5          0.2714    0.7748    5.2664 N.pl3     1 <0>        -0.6353
     15 C10        -1.0002    1.4936    5.1534 C.3       1 <0>         0.0829
     16 C11         0.8893    0.2647    4.1224 C.ar      1 <0>         0.2357
     17 C12         2.0955   -0.4173    4.2284 C.ar      1 <0>        -0.2311
     18 C13         2.7060   -0.9220    3.0970 C.ar      1 <0>        -0.0344
     19 C14         2.1197   -0.7505    1.8571 C.ar      1 <0>        -0.2536
     20 C15         0.9156   -0.0699    1.7451 C.ar      1 <0>         0.1758
     21 C16         0.3023    0.4432    2.8774 C.ar      1 <0>        -0.2230
     22 O1          0.3406    0.0982    0.5252 O.3       1 <0>        -0.3156
     23 C17         1.0310   -0.4516   -0.5987 C.3       1 <0>         0.0265
     24 H1          3.3624   -0.2345    8.6975 H         1 <0>         0.1064
     25 H2          2.7728    0.9148    9.9222 H         1 <0>         0.1069
     26 H3          1.6172    0.0762    8.8593 H         1 <0>         0.1018
     27 H4          1.3925    2.7374    5.0291 H         1 <0>         0.1876
     28 H5          6.9019    5.7461    9.2773 H         1 <0>         0.4456
     29 H6          6.3508    6.4337    7.8469 H         1 <0>         0.4330
     30 H7          4.4357    0.8104    9.9076 H         1 <0>         0.4360
     31 H8          4.5308    1.9841   11.1061 H         1 <0>         0.4307
     32 H9          0.1298    0.6363    7.3543 H         1 <0>         0.1076
     33 H10         1.3901   -0.3794    6.6137 H         1 <0>         0.1032
     34 H11        -1.8226    0.7782    5.1474 H         1 <0>         0.0610
     35 H12        -1.1123    2.1690    6.0016 H         1 <0>         0.0713
     36 H13        -1.0117    2.0682    4.2273 H         1 <0>         0.0745
     37 H14         2.5555   -0.5530    5.1960 H         1 <0>         0.1177
     38 H15         3.6436   -1.4514    3.1812 H         1 <0>         0.1250
     39 H16         2.5996   -1.1463    0.9743 H         1 <0>         0.1279
     40 H17        -0.6326    0.9769    2.7915 H         1 <0>         0.1342
     41 H18         1.1348   -1.5290   -0.4698 H         1 <0>         0.0589
     42 H19         2.0191    0.0020   -0.6756 H         1 <0>         0.0576
     43 H20         0.4656   -0.2473   -1.5079 H         1 <0>         0.1039
     44 N6          4.6129    4.7510    7.2609 N.ar      1 <0>        -0.5878
     45 H21         4.7089    5.5087    6.6154 H         1 <0>         0.4606
@<TRIPOS>BOND
     1    1    2 1
     2    1   24 1
     3    1   25 1
     4    1   26 1
     5    2    7 ar
     6    2    3 ar
     7    3    4 ar
     8    3   13 1
     9    4    5 ar
    10    4   27 1
    11    5    6 ar
    12    6    7 ar
    13    6   44 ar
    14    7    8 ar
    15    8    9 ar
    16    8   12 1
    17    9   10 ar
    18   10   11 1
    19   10   44 ar
    20   11   28 1
    21   11   29 1
    22   12   30 1
    23   12   31 1
    24   13   14 1
    25   13   32 1
    26   13   33 1
    27   14   15 1
    28   14   16 1
    29   15   34 1
    30   15   35 1
    31   15   36 1
    32   16   21 ar
    33   16   17 ar
    34   17   18 ar
    35   17   37 1
    36   18   19 ar
    37   18   38 1
    38   19   20 ar
    39   19   39 1
    40   20   21 ar
    41   20   22 1
    42   21   40 1
    43   22   23 1
    44   23   41 1
    45   23   42 1
    46   23   43 1
    47   44   45 1
@<TRIPOS>MOLECULE
ZINC03814975
   44    46     0     0     0
SMALL
USER_CHARGES

@<TRIPOS>ATOM
      1 C1         -0.0832   -0.0034    0.6168 C.3       1 <0>        -0.1558
      2 C2         -0.1002    1.5034    0.6000 C.ar      1 <0>         0.0529
      3 C3         -1.2579    2.1985    0.8340 C.ar      1 <0>        -0.2137
      4 C4         -1.2465    3.5877    0.8159 C.ar      1 <0>         0.2048
      5 N1         -0.1486    4.2678    0.5711 N.ar      1 <0>        -0.4886
      6 C5          1.0082    3.6498    0.3318 C.ar      1 <0>         0.4120
      7 C6          1.0646    2.2341    0.3393 C.ar      1 <0>        -0.2784
      8 C7          2.3073    1.6044    0.0812 C.ar      1 <0>         0.5222
      9 N2          3.3621    2.3712   -0.1559 N.ar      1 <0>        -0.6171
     10 C8          3.2663    3.6977   -0.1537 C.ar      1 <0>         0.6226
     11 N3          2.1337    4.3335    0.0802 N.ar      1 <0>        -0.5908
     12 N4          4.4020    4.4427   -0.4078 N.pl3     1 <0>        -0.8117
     13 N5          2.4164    0.2312    0.0763 N.pl3     1 <0>        -0.8459
     14 C9         -2.5400    1.4576    1.1135 C.3       1 <0>         0.1746
     15 N6         -2.5597    1.0266    2.5135 N.pl3     1 <0>        -0.6279
     16 C10        -2.0107   -0.2797    2.8856 C.3       1 <0>         0.0903
     17 C11        -3.1030    1.8627    3.4954 C.ar      1 <0>         0.1827
     18 C12        -3.6184    3.1033    3.1439 C.ar      1 <0>        -0.1574
     19 C13        -4.1596    3.9254    4.1128 C.ar      1 <0>        -0.1573
     20 C14        -4.1776    3.5172    5.4382 C.ar      1 <0>         0.0720
     21 C15        -3.6583    2.2804    5.7909 C.ar      1 <0>        -0.1030
     22 C16        -3.1219    1.4546    4.8225 C.ar      1 <0>        -0.1560
     23 O1         -4.7053    4.3299    6.3925 O.3       1 <0>        -0.3221
     24 C17        -5.2224    5.5894    5.9585 C.3       1 <0>         0.0288
     25 H1          0.2620   -0.3521    1.5902 H         1 <0>         0.0870
     26 H2         -1.0891   -0.3802    0.4317 H         1 <0>         0.0831
     27 H3          0.5898   -0.3679   -0.1593 H         1 <0>         0.0983
     28 H4         -2.1650    4.1232    1.0056 H         1 <0>         0.1616
     29 H5          5.2454    3.9968   -0.5827 H         1 <0>         0.4157
     30 H6          4.3557    5.4116   -0.4113 H         1 <0>         0.4185
     31 H7          2.9557   -0.2101   -0.5984 H         1 <0>         0.4102
     32 H8          1.9539   -0.2945    0.7476 H         1 <0>         0.4175
     33 H9         -3.3884    2.1151    0.9237 H         1 <0>         0.0872
     34 H10        -2.6043    0.5848    0.4637 H         1 <0>         0.0880
     35 H11        -0.9521   -0.1746    3.1230 H         1 <0>         0.0450
     36 H12        -2.5422   -0.6623    3.7570 H         1 <0>         0.0689
     37 H13        -2.1294   -0.9740    2.0538 H         1 <0>         0.0682
     38 H14        -3.5997    3.4235    2.1126 H         1 <0>         0.1238
     39 H15        -4.5645    4.8885    3.8390 H         1 <0>         0.1277
     40 H16        -3.6731    1.9631    6.8232 H         1 <0>         0.1292
     41 H17        -2.7176    0.4916    5.0973 H         1 <0>         0.1285
     42 H18        -4.4258    6.1671    5.4896 H         1 <0>         0.0533
     43 H19        -6.0239    5.4245    5.2385 H         1 <0>         0.0531
     44 H20        -5.6118    6.1374    6.8165 H         1 <0>         0.0976
@<TRIPOS>BOND
     1    1    2 1
     2    1   25 1
     3    1   26 1
     4    1   27 1
     5    2    7 ar
     6    2    3 ar
     7    3    4 ar
     8    3   14 1
     9    4    5 ar
    10    4   28 1
    11    5    6 ar
    12    6   11 ar
    13    6    7 ar
    14    7    8 ar
    15    8    9 ar
    16    8   13 1
    17    9   10 ar
    18   10   11 ar
    19   10   12 1
    20   12   29 1
    21   12   30 1
    22   13   31 1
    23   13   32 1
    24   14   15 1
    25   14   33 1
    26   14   34 1
    27   15   16 1
    28   15   17 1
    29   16   35 1
    30   16   36 1
    31   16   37 1
    32   17   22 ar
    33   17   18 ar
    34   18   19 ar
    35   18   38 1
    36   19   20 ar
    37   19   39 1
    38   20   21 ar
    39   20   23 1
    40   21   22 ar
    41   21   40 1
    42   22   41 1
    43   23   24 1
    44   24   42 1
    45   24   43 1
    46   24   44 1
@<TRIPOS>MOLECULE
ZINC03814975
   45    47     0     0     0
SMALL
USER_CHARGES

@<TRIPOS>ATOM
      1 C1         -0.0832   -0.0034    0.6168 C.3       1 <0>        -0.1700
      2 C2         -0.1002    1.5034    0.6000 C.ar      1 <0>         0.0715
      3 C3         -1.2579    2.1985    0.8340 C.ar      1 <0>        -0.1724
      4 C4         -1.2465    3.5877    0.8159 C.ar      1 <0>         0.2300
      5 N1         -0.1486    4.2678    0.5711 N.ar      1 <0>        -0.4987
      6 C5          1.0082    3.6498    0.3318 C.ar      1 <0>         0.4002
      7 C6          1.0646    2.2341    0.3393 C.ar      1 <0>        -0.2312
      8 C7          2.3073    1.6044    0.0812 C.ar      1 <0>         0.5801
      9 N2          3.3621    2.3712   -0.1559 N.ar      1 <0>        -0.5723
     10 C8          3.2663    3.6977   -0.1537 C.ar      1 <0>         0.6932
     11 N3          4.4020    4.4427   -0.4078 N.pl3     1 <0>        -0.7791
     12 N4          2.4164    0.2312    0.0763 N.pl3     1 <0>        -0.8025
     13 C9         -2.5400    1.4576    1.1135 C.3       1 <0>         0.1645
     14 N5         -2.5597    1.0266    2.5135 N.pl3     1 <0>        -0.6303
     15 C10        -2.0107   -0.2797    2.8856 C.3       1 <0>         0.0862
     16 C11        -3.1030    1.8627    3.4954 C.ar      1 <0>         0.1693
     17 C12        -3.6184    3.1033    3.1439 C.ar      1 <0>        -0.1593
     18 C13        -4.1596    3.9254    4.1128 C.ar      1 <0>        -0.1607
     19 C14        -4.1776    3.5172    5.4382 C.ar      1 <0>         0.0841
     20 C15        -3.6583    2.2804    5.7909 C.ar      1 <0>        -0.1021
     21 C16        -3.1219    1.4546    4.8225 C.ar      1 <0>        -0.1472
     22 O1         -4.7053    4.3299    6.3925 O.3       1 <0>        -0.3185
     23 C17        -5.2224    5.5894    5.9585 C.3       1 <0>         0.0277
     24 H1          0.2620   -0.3521    1.5902 H         1 <0>         0.1065
     25 H2         -1.0891   -0.3802    0.4317 H         1 <0>         0.1044
     26 H3          0.5898   -0.3679   -0.1593 H         1 <0>         0.1052
     27 H4         -2.1650    4.1232    1.0056 H         1 <0>         0.1865
     28 H5          5.2454    3.9968   -0.5827 H         1 <0>         0.4457
     29 H6          4.3557    5.4116   -0.4113 H         1 <0>         0.4331
     30 H7          2.9557   -0.2101   -0.5984 H         1 <0>         0.4308
     31 H8          1.9539   -0.2945    0.7476 H         1 <0>         0.4357
     32 H9         -3.3884    2.1151    0.9237 H         1 <0>         0.0989
     33 H10        -2.6043    0.5848    0.4637 H         1 <0>         0.1005
     34 H11        -0.9521   -0.1746    3.1230 H         1 <0>         0.0447
     35 H12        -2.5422   -0.6623    3.7570 H         1 <0>         0.0762
     36 H13        -2.1294   -0.9740    2.0538 H         1 <0>         0.0714
     37 H14        -3.5997    3.4235    2.1126 H         1 <0>         0.1199
     38 H15        -4.5645    4.8885    3.8390 H         1 <0>         0.1303
     39 H16        -3.6731    1.9631    6.8232 H         1 <0>         0.1339
     40 H17        -2.7176    0.4916    5.0973 H         1 <0>         0.1313
     41 H18        -4.4258    6.1671    5.4896 H         1 <0>         0.0532
     42 H19        -6.0239    5.4245    5.2385 H         1 <0>         0.0554
     43 H20        -5.6118    6.1374    6.8165 H         1 <0>         0.1019
     44 N6          2.1326    4.4056    0.0794 N.ar      1 <0>        -0.5890
     45 H21         2.1545    5.4052    0.0601 H         1 <0>         0.4608
@<TRIPOS>BOND
     1    1    2 1
     2    1   24 1
     3    1   25 1
     4    1   26 1
     5    2    7 ar
     6    2    3 ar
     7    3    4 ar
     8    3   13 1
     9    4    5 ar
    10    4   27 1
    11    5    6 ar
    12    6    7 ar
    13    6   44 ar
    14    7    8 ar
    15    8    9 ar
    16    8   12 1
    17    9   10 ar
    18   10   11 1
    19   10   44 ar
    20   11   28 1
    21   11   29 1
    22   12   30 1
    23   12   31 1
    24   13   14 1
    25   13   32 1
    26   13   33 1
    27   14   15 1
    28   14   16 1
    29   15   34 1
    30   15   35 1
    31   15   36 1
    32   16   21 ar
    33   16   17 ar
    34   17   18 ar
    35   17   37 1
    36   18   19 ar
    37   18   38 1
    38   19   20 ar
    39   19   22 1
    40   20   21 ar
    41   20   39 1
    42   21   40 1
    43   22   23 1
    44   23   41 1
    45   23   42 1
    46   23   43 1
    47   44   45 1
@<TRIPOS>MOLECULE
ZINC03814976
   40    42     0     0     0
SMALL
USER_CHARGES

@<TRIPOS>ATOM
      1 C1          0.6019    1.5059    0.0250 C.3       1 <0>        -0.1443
      2 C2          0.5971   -0.0011    0.0161 C.ar      1 <0>         0.0674
      3 C3          0.7586   -0.7002   -1.1515 C.ar      1 <0>        -0.1927
      4 C4          0.7533   -2.0894   -1.1326 C.ar      1 <0>         0.1995
      5 N1          0.5889   -2.7658   -0.0176 N.ar      1 <0>        -0.4908
      6 C5          0.4225   -2.1439    1.1498 C.ar      1 <0>         0.4122
      7 C6          0.4216   -0.7279    1.1991 C.ar      1 <0>        -0.2797
      8 C7          0.2422   -0.0940    2.4535 C.ar      1 <0>         0.5243
      9 N2          0.0832   -0.8573    3.5253 N.ar      1 <0>        -0.6185
     10 C8          0.0904   -2.1842    3.4357 C.ar      1 <0>         0.6230
     11 N3          0.2531   -2.8238    2.2928 N.ar      1 <0>        -0.5923
     12 N4         -0.0803   -2.9254    4.5893 N.pl3     1 <0>        -0.8123
     13 N5          0.2328    1.2797    2.5563 N.pl3     1 <0>        -0.8452
     14 C9          0.9449    0.0365   -2.4529 C.3       1 <0>         0.1100
     15 N6          2.3404    0.4802   -2.5691 N.pl3     1 <0>        -0.4957
     16 C10         3.2499   -0.6677   -2.6840 C.3       1 <0>         0.0277
     17 C11         2.4997    1.3552   -3.6471 C.ar      1 <0>         0.0936
     18 C12         2.2037    0.9323   -4.9364 C.ar      1 <0>        -0.1366
     19 C13         2.3571    1.8012   -5.9991 C.ar      1 <0>        -0.1062
     20 C14         2.8153    3.0878   -5.7822 C.ar      1 <0>        -0.1083
     21 C15         3.1161    3.5113   -4.5007 C.ar      1 <0>        -0.1080
     22 C16         2.9600    2.6489   -3.4320 C.ar      1 <0>        -0.0118
     23 Cl1         3.3389    3.1805   -1.8235 Cl        1 <0>        -0.0546
     24 H1          1.5933    1.8644    0.3021 H         1 <0>         0.0882
     25 H2          0.3462    1.8759   -0.9679 H         1 <0>         0.0821
     26 H3         -0.1301    1.8674    0.7472 H         1 <0>         0.0925
     27 H4          0.8848   -2.6280   -2.0594 H         1 <0>         0.1613
     28 H5         -0.2020   -2.4766    5.4406 H         1 <0>         0.4156
     29 H6         -0.0785   -3.8945    4.5478 H         1 <0>         0.4181
     30 H7         -0.4080    1.7182    3.1377 H         1 <0>         0.4097
     31 H8          0.8670    1.8085    2.0474 H         1 <0>         0.4190
     32 H9          0.7042   -0.6270   -3.2836 H         1 <0>         0.0530
     33 H10         0.2847    0.9035   -2.4774 H         1 <0>         0.0898
     34 H11         2.9927   -1.2478   -3.5702 H         1 <0>         0.0352
     35 H12         4.2764   -0.3108   -2.7686 H         1 <0>         0.0719
     36 H13         3.1556   -1.2961   -1.7984 H         1 <0>         0.0755
     37 H14         1.8504   -0.0738   -5.1075 H         1 <0>         0.1292
     38 H15         2.1235    1.4738   -7.0014 H         1 <0>         0.1292
     39 H16         2.9388    3.7634   -6.6157 H         1 <0>         0.1330
     40 H17         3.4737    4.5168   -4.3348 H         1 <0>         0.1361
@<TRIPOS>BOND
     1    1    2 1
     2    1   24 1
     3    1   25 1
     4    1   26 1
     5    2    7 ar
     6    2    3 ar
     7    3    4 ar
     8    3   14 1
     9    4    5 ar
    10    4   27 1
    11    5    6 ar
    12    6   11 ar
    13    6    7 ar
    14    7    8 ar
    15    8    9 ar
    16    8   13 1
    17    9   10 ar
    18   10   11 ar
    19   10   12 1
    20   12   28 1
    21   12   29 1
    22   13   30 1
    23   13   31 1
    24   14   15 1
    25   14   32 1
    26   14   33 1
    27   15   16 1
    28   15   17 1
    29   16   34 1
    30   16   35 1
    31   16   36 1
    32   17   22 ar
    33   17   18 ar
    34   18   19 ar
    35   18   37 1
    36   19   20 ar
    37   19   38 1
    38   20   21 ar
    39   20   39 1
    40   21   22 ar
    41   21   40 1
    42   22   23 1
@<TRIPOS>MOLECULE
ZINC03814976
   41    43     0     0     0
SMALL
USER_CHARGES

@<TRIPOS>ATOM
      1 C1          0.6019    1.5059    0.0250 C.3       1 <0>        -0.1590
      2 C2          0.5971   -0.0011    0.0161 C.ar      1 <0>         0.0851
      3 C3          0.7586   -0.7002   -1.1515 C.ar      1 <0>        -0.1486
      4 C4          0.7533   -2.0894   -1.1326 C.ar      1 <0>         0.2237
      5 N1          0.5889   -2.7658   -0.0176 N.ar      1 <0>        -0.5004
      6 C5          0.4225   -2.1439    1.1498 C.ar      1 <0>         0.4006
      7 C6          0.4216   -0.7279    1.1991 C.ar      1 <0>        -0.2322
      8 C7          0.2422   -0.0940    2.4535 C.ar      1 <0>         0.5809
      9 N2          0.0832   -0.8573    3.5253 N.ar      1 <0>        -0.5731
     10 C8          0.0904   -2.1842    3.4357 C.ar      1 <0>         0.6934
     11 N3         -0.0803   -2.9254    4.5893 N.pl3     1 <0>        -0.7799
     12 N4          0.2328    1.2797    2.5563 N.pl3     1 <0>        -0.8010
     13 C9          0.9449    0.0365   -2.4529 C.3       1 <0>         0.0942
     14 N5          2.3404    0.4802   -2.5691 N.pl3     1 <0>        -0.4936
     15 C10         3.2499   -0.6677   -2.6840 C.3       1 <0>         0.0226
     16 C11         2.4997    1.3552   -3.6471 C.ar      1 <0>         0.0814
     17 C12         2.2037    0.9323   -4.9364 C.ar      1 <0>        -0.1344
     18 C13         2.3571    1.8012   -5.9991 C.ar      1 <0>        -0.1030
     19 C14         2.8153    3.0878   -5.7822 C.ar      1 <0>        -0.0997
     20 C15         3.1161    3.5113   -4.5007 C.ar      1 <0>        -0.1053
     21 C16         2.9600    2.6489   -3.4320 C.ar      1 <0>        -0.0088
     22 Cl1         3.3389    3.1805   -1.8235 Cl        1 <0>        -0.0570
     23 H1          1.5933    1.8644    0.3021 H         1 <0>         0.1073
     24 H2          0.3462    1.8759   -0.9679 H         1 <0>         0.1037
     25 H3         -0.1301    1.8674    0.7472 H         1 <0>         0.1001
     26 H4          0.8848   -2.6280   -2.0594 H         1 <0>         0.1870
     27 H5         -0.2020   -2.4766    5.4406 H         1 <0>         0.4455
     28 H6         -0.0785   -3.8945    4.5478 H         1 <0>         0.4328
     29 H7         -0.4080    1.7182    3.1377 H         1 <0>         0.4305
     30 H8          0.8670    1.8085    2.0474 H         1 <0>         0.4371
     31 H9          0.7042   -0.6270   -3.2836 H         1 <0>         0.0665
     32 H10         0.2847    0.9035   -2.4774 H         1 <0>         0.1030
     33 H11         2.9927   -1.2478   -3.5702 H         1 <0>         0.0412
     34 H12         4.2764   -0.3108   -2.7686 H         1 <0>         0.0801
     35 H13         3.1556   -1.2961   -1.7984 H         1 <0>         0.0688
     36 H14         1.8504   -0.0738   -5.1075 H         1 <0>         0.1295
     37 H15         2.1235    1.4738   -7.0014 H         1 <0>         0.1330
     38 H16         2.9388    3.7634   -6.6157 H         1 <0>         0.1374
     39 H17         3.4737    4.5168   -4.3348 H         1 <0>         0.1398
     40 N6          0.2528   -2.8960    2.2921 N.ar      1 <0>        -0.5898
     41 H18         0.2438   -3.8956    2.3198 H         1 <0>         0.4604
@<TRIPOS>BOND
     1    1    2 1
     2    1   23 1
     3    1   24 1
     4    1   25 1
     5    2    7 ar
     6    2    3 ar
     7    3    4 ar
     8    3   13 1
     9    4    5 ar
    10    4   26 1
    11    5    6 ar
    12    6    7 ar
    13    6   40 ar
    14    7    8 ar
    15    8    9 ar
    16    8   12 1
    17    9   10 ar
    18   10   11 1
    19   10   40 ar
    20   11   27 1
    21   11   28 1
    22   12   29 1
    23   12   30 1
    24   13   14 1
    25   13   31 1
    26   13   32 1
    27   14   15 1
    28   14   16 1
    29   15   33 1
    30   15   34 1
    31   15   35 1
    32   16   21 ar
    33   16   17 ar
    34   17   18 ar
    35   17   36 1
    36   18   19 ar
    37   18   37 1
    38   19   20 ar
    39   19   38 1
    40   20   21 ar
    41   20   39 1
    42   21   22 1
    43   40   41 1
@<TRIPOS>MOLECULE
ZINC03814977
   40    42     0     0     0
SMALL
USER_CHARGES

@<TRIPOS>ATOM
      1 C1         -0.0832   -0.0034    0.6168 C.3       1 <0>        -0.1565
      2 C2         -0.1002    1.5034    0.6000 C.ar      1 <0>         0.0540
      3 C3         -1.2579    2.1985    0.8340 C.ar      1 <0>        -0.2165
      4 C4         -1.2465    3.5877    0.8159 C.ar      1 <0>         0.2053
      5 N1         -0.1486    4.2678    0.5711 N.ar      1 <0>        -0.4874
      6 C5          1.0082    3.6498    0.3318 C.ar      1 <0>         0.4132
      7 C6          1.0646    2.2341    0.3393 C.ar      1 <0>        -0.2790
      8 C7          2.3073    1.6044    0.0812 C.ar      1 <0>         0.5224
      9 N2          3.3621    2.3712   -0.1559 N.ar      1 <0>        -0.6167
     10 C8          3.2663    3.6977   -0.1537 C.ar      1 <0>         0.6233
     11 N3          2.1337    4.3335    0.0802 N.ar      1 <0>        -0.5904
     12 N4          4.4020    4.4427   -0.4078 N.pl3     1 <0>        -0.8111
     13 N5          2.4164    0.2312    0.0763 N.pl3     1 <0>        -0.8458
     14 C9         -2.5400    1.4576    1.1135 C.3       1 <0>         0.1716
     15 N6         -2.5597    1.0266    2.5135 N.pl3     1 <0>        -0.6229
     16 C10        -2.0107   -0.2797    2.8856 C.3       1 <0>         0.0864
     17 C11        -3.1023    1.8615    3.4940 C.ar      1 <0>         0.2219
     18 C12        -3.6180    3.1026    3.1434 C.ar      1 <0>        -0.1867
     19 C13        -4.1592    3.9231    4.1136 C.ar      1 <0>        -0.0590
     20 C14        -4.1767    3.5150    5.4358 C.ar      1 <0>        -0.0914
     21 C15        -3.6585    2.2814    5.7887 C.ar      1 <0>        -0.0607
     22 C16        -3.1216    1.4542    4.8218 C.ar      1 <0>        -0.1859
     23 Cl1        -4.8508    4.5522    6.6538 Cl        1 <0>        -0.0791
     24 H1          0.2620   -0.3521    1.5902 H         1 <0>         0.0870
     25 H2         -1.0891   -0.3802    0.4317 H         1 <0>         0.0830
     26 H3          0.5898   -0.3679   -0.1593 H         1 <0>         0.0992
     27 H4         -2.1650    4.1232    1.0056 H         1 <0>         0.1626
     28 H5          5.2454    3.9968   -0.5827 H         1 <0>         0.4160
     29 H6          4.3557    5.4116   -0.4113 H         1 <0>         0.4188
     30 H7          2.9557   -0.2101   -0.5984 H         1 <0>         0.4104
     31 H8          1.9539   -0.2945    0.7476 H         1 <0>         0.4174
     32 H9         -3.3884    2.1151    0.9237 H         1 <0>         0.0902
     33 H10        -2.6043    0.5848    0.4637 H         1 <0>         0.0906
     34 H11        -0.9521   -0.1746    3.1230 H         1 <0>         0.0486
     35 H12        -2.5422   -0.6623    3.7570 H         1 <0>         0.0711
     36 H13        -2.1294   -0.9740    2.0538 H         1 <0>         0.0713
     37 H14        -3.5998    3.4239    2.1125 H         1 <0>         0.1300
     38 H15        -4.5650    4.8861    3.8409 H         1 <0>         0.1331
     39 H16        -3.6741    1.9650    6.8212 H         1 <0>         0.1312
     40 H17        -2.7176    0.4914    5.0977 H         1 <0>         0.1304
@<TRIPOS>BOND
     1    1    2 1
     2    1   24 1
     3    1   25 1
     4    1   26 1
     5    2    7 ar
     6    2    3 ar
     7    3    4 ar
     8    3   14 1
     9    4    5 ar
    10    4   27 1
    11    5    6 ar
    12    6   11 ar
    13    6    7 ar
    14    7    8 ar
    15    8    9 ar
    16    8   13 1
    17    9   10 ar
    18   10   11 ar
    19   10   12 1
    20   12   28 1
    21   12   29 1
    22   13   30 1
    23   13   31 1
    24   14   15 1
    25   14   32 1
    26   14   33 1
    27   15   16 1
    28   15   17 1
    29   16   34 1
    30   16   35 1
    31   16   36 1
    32   17   22 ar
    33   17   18 ar
    34   18   19 ar
    35   18   37 1
    36   19   20 ar
    37   19   38 1
    38   20   21 ar
    39   20   23 1
    40   21   22 ar
    41   21   39 1
    42   22   40 1
@<TRIPOS>MOLECULE
ZINC03814977
   41    43     0     0     0
SMALL
USER_CHARGES

@<TRIPOS>ATOM
      1 C1         -0.0832   -0.0034    0.6168 C.3       1 <0>        -0.1706
      2 C2         -0.1002    1.5034    0.6000 C.ar      1 <0>         0.0724
      3 C3         -1.2579    2.1985    0.8340 C.ar      1 <0>        -0.1752
      4 C4         -1.2465    3.5877    0.8159 C.ar      1 <0>         0.2309
      5 N1         -0.1486    4.2678    0.5711 N.ar      1 <0>        -0.4978
      6 C5          1.0082    3.6498    0.3318 C.ar      1 <0>         0.4019
      7 C6          1.0646    2.2341    0.3393 C.ar      1 <0>        -0.2316
      8 C7          2.3073    1.6044    0.0812 C.ar      1 <0>         0.5801
      9 N2          3.3621    2.3712   -0.1559 N.ar      1 <0>        -0.5718
     10 C8          3.2663    3.6977   -0.1537 C.ar      1 <0>         0.6933
     11 N3          4.4020    4.4427   -0.4078 N.pl3     1 <0>        -0.7784
     12 N4          2.4164    0.2312    0.0763 N.pl3     1 <0>        -0.8025
     13 C9         -2.5400    1.4576    1.1135 C.3       1 <0>         0.1617
     14 N5         -2.5597    1.0266    2.5135 N.pl3     1 <0>        -0.6265
     15 C10        -2.0107   -0.2797    2.8856 C.3       1 <0>         0.0827
     16 C11        -3.1023    1.8615    3.4940 C.ar      1 <0>         0.2104
     17 C12        -3.6180    3.1026    3.1434 C.ar      1 <0>        -0.1897
     18 C13        -4.1592    3.9231    4.1136 C.ar      1 <0>        -0.0601
     19 C14        -4.1767    3.5150    5.4358 C.ar      1 <0>        -0.0840
     20 C15        -3.6585    2.2814    5.7887 C.ar      1 <0>        -0.0589
     21 C16        -3.1216    1.4542    4.8218 C.ar      1 <0>        -0.1779
     22 Cl1        -4.8508    4.5522    6.6538 Cl        1 <0>        -0.0676
     23 H1          0.2620   -0.3521    1.5902 H         1 <0>         0.1065
     24 H2         -1.0891   -0.3802    0.4317 H         1 <0>         0.1043
     25 H3          0.5898   -0.3679   -0.1593 H         1 <0>         0.1060
     26 H4         -2.1650    4.1232    1.0056 H         1 <0>         0.1875
     27 H5          5.2454    3.9968   -0.5827 H         1 <0>         0.4458
     28 H6          4.3557    5.4116   -0.4113 H         1 <0>         0.4334
     29 H7          2.9557   -0.2101   -0.5984 H         1 <0>         0.4310
     30 H8          1.9539   -0.2945    0.7476 H         1 <0>         0.4356
     31 H9         -3.3884    2.1151    0.9237 H         1 <0>         0.1017
     32 H10        -2.6043    0.5848    0.4637 H         1 <0>         0.1031
     33 H11        -0.9521   -0.1746    3.1230 H         1 <0>         0.0481
     34 H12        -2.5422   -0.6623    3.7570 H         1 <0>         0.0782
     35 H13        -2.1294   -0.9740    2.0538 H         1 <0>         0.0744
     36 H14        -3.5998    3.4239    2.1125 H         1 <0>         0.1263
     37 H15        -4.5650    4.8861    3.8409 H         1 <0>         0.1358
     38 H16        -3.6741    1.9650    6.8212 H         1 <0>         0.1359
     39 H17        -2.7176    0.4914    5.0977 H         1 <0>         0.1333
     40 N6          2.1326    4.4056    0.0794 N.ar      1 <0>        -0.5890
     41 H18         2.1545    5.4052    0.0601 H         1 <0>         0.4613
@<TRIPOS>BOND
     1    1    2 1
     2    1   23 1
     3    1   24 1
     4    1   25 1
     5    2    7 ar
     6    2    3 ar
     7    3    4 ar
     8    3   13 1
     9    4    5 ar
    10    4   26 1
    11    5    6 ar
    12    6    7 ar
    13    6   40 ar
    14    7    8 ar
    15    8    9 ar
    16    8   12 1
    17    9   10 ar
    18   10   11 1
    19   10   40 ar
    20   11   27 1
    21   11   28 1
    22   12   29 1
    23   12   30 1
    24   13   14 1
    25   13   31 1
    26   13   32 1
    27   14   15 1
    28   14   16 1
    29   15   33 1
    30   15   34 1
    31   15   35 1
    32   16   21 ar
    33   16   17 ar
    34   17   18 ar
    35   17   36 1
    36   18   19 ar
    37   18   37 1
    38   19   20 ar
    39   19   22 1
    40   20   21 ar
    41   20   38 1
    42   21   39 1
    43   40   41 1
@<TRIPOS>MOLECULE
ZINC03814978
   41    43     0     0     0
SMALL
USER_CHARGES

@<TRIPOS>ATOM
      1 C1          0.6018    1.5059    0.0250 C.3       1 <0>        -0.1534
      2 C2          0.5970   -0.0011    0.0161 C.ar      1 <0>         0.0602
      3 C3          0.7585   -0.7002   -1.1515 C.ar      1 <0>        -0.2153
      4 C4          0.7532   -2.0894   -1.1326 C.ar      1 <0>         0.2101
      5 N1          0.5888   -2.7658   -0.0176 N.ar      1 <0>        -0.4899
      6 C5          0.4225   -2.1439    1.1498 C.ar      1 <0>         0.4159
      7 C6          0.4215   -0.7279    1.1991 C.ar      1 <0>        -0.2820
      8 C7          0.2422   -0.0940    2.4535 C.ar      1 <0>         0.5246
      9 N2          0.0832   -0.8573    3.5253 N.ar      1 <0>        -0.6174
     10 C8          0.0905   -2.1842    3.4357 C.ar      1 <0>         0.6247
     11 N3          0.2532   -2.8238    2.2928 N.ar      1 <0>        -0.5914
     12 N4         -0.0802   -2.9254    4.5893 N.pl3     1 <0>        -0.8106
     13 N5          0.2328    1.2797    2.5563 N.pl3     1 <0>        -0.8450
     14 C9          0.9447    0.0365   -2.4530 C.3       1 <0>         0.1797
     15 N6          2.3364    0.4790   -2.5689 N.pl3     1 <0>        -0.7406
     16 C10         2.7530    1.1893   -3.7006 C.ar      1 <0>         0.1950
     17 C11         1.8508    1.4705   -4.7163 C.ar      1 <0>        -0.1686
     18 C12         2.2635    2.1764   -5.8308 C.ar      1 <0>        -0.1051
     19 C13         3.5765    2.5949   -5.9411 C.ar      1 <0>        -0.1404
     20 C14         4.4826    2.3137   -4.9350 C.ar      1 <0>        -0.1625
     21 C15         4.0760    1.6110   -3.8128 C.ar      1 <0>         0.0530
     22 O1          4.9664    1.3330   -2.8229 O.3       1 <0>        -0.3239
     23 C16         6.3057    1.7965   -3.0060 C.3       1 <0>         0.0320
     24 H1          1.5932    1.8644    0.3020 H         1 <0>         0.0869
     25 H2          0.3459    1.8759   -0.9678 H         1 <0>         0.0857
     26 H3         -0.1301    1.8674    0.7473 H         1 <0>         0.0988
     27 H4          0.8847   -2.6280   -2.0595 H         1 <0>         0.1676
     28 H5         -0.2018   -2.4766    5.4406 H         1 <0>         0.4162
     29 H6         -0.0784   -3.8945    4.5478 H         1 <0>         0.4188
     30 H7         -0.4080    1.7182    3.1377 H         1 <0>         0.4106
     31 H8          0.8670    1.8085    2.0474 H         1 <0>         0.4186
     32 H9          0.7040   -0.6270   -3.2836 H         1 <0>         0.0715
     33 H10         0.2845    0.9035   -2.4774 H         1 <0>         0.0714
     34 H11         2.9693    0.2796   -1.8613 H         1 <0>         0.4044
     35 H12         0.8255    1.1412   -4.6346 H         1 <0>         0.1276
     36 H13         1.5594    2.3980   -6.6192 H         1 <0>         0.1224
     37 H14         3.8956    3.1426   -6.8155 H         1 <0>         0.1204
     38 H15         5.5077    2.6418   -5.0245 H         1 <0>         0.1258
     39 H16         6.7237    1.3521   -3.9092 H         1 <0>         0.0538
     40 H17         6.3044    2.8822   -3.1023 H         1 <0>         0.0533
     41 H18         6.9105    1.5087   -2.1460 H         1 <0>         0.0972
@<TRIPOS>BOND
     1    1    2 1
     2    1   24 1
     3    1   25 1
     4    1   26 1
     5    2    7 ar
     6    2    3 ar
     7    3    4 ar
     8    3   14 1
     9    4    5 ar
    10    4   27 1
    11    5    6 ar
    12    6   11 ar
    13    6    7 ar
    14    7    8 ar
    15    8    9 ar
    16    8   13 1
    17    9   10 ar
    18   10   11 ar
    19   10   12 1
    20   12   28 1
    21   12   29 1
    22   13   30 1
    23   13   31 1
    24   14   15 1
    25   14   32 1
    26   14   33 1
    27   15   16 1
    28   15   34 1
    29   16   21 ar
    30   16   17 ar
    31   17   18 ar
    32   17   35 1
    33   18   19 ar
    34   18   36 1
    35   19   20 ar
    36   19   37 1
    37   20   21 ar
    38   20   38 1
    39   21   22 1
    40   22   23 1
    41   23   39 1
    42   23   40 1
    43   23   41 1
@<TRIPOS>MOLECULE
ZINC03814978
   42    44     0     0     0
SMALL
USER_CHARGES

@<TRIPOS>ATOM
      1 C1          0.6018    1.5059    0.0250 C.3       1 <0>        -0.1667
      2 C2          0.5970   -0.0011    0.0161 C.ar      1 <0>         0.0776
      3 C3          0.7585   -0.7002   -1.1515 C.ar      1 <0>        -0.1723
      4 C4          0.7532   -2.0894   -1.1326 C.ar      1 <0>         0.2372
      5 N1          0.5888   -2.7658   -0.0176 N.ar      1 <0>        -0.5005
      6 C5          0.4225   -2.1439    1.1498 C.ar      1 <0>         0.4058
      7 C6          0.4215   -0.7279    1.1991 C.ar      1 <0>        -0.2341
      8 C7          0.2422   -0.0940    2.4535 C.ar      1 <0>         0.5809
      9 N2          0.0832   -0.8573    3.5253 N.ar      1 <0>        -0.5720
     10 C8          0.0905   -2.1842    3.4357 C.ar      1 <0>         0.6939
     11 N3         -0.0802   -2.9254    4.5893 N.pl3     1 <0>        -0.7782
     12 N4          0.2328    1.2797    2.5563 N.pl3     1 <0>        -0.8011
     13 C9          0.9447    0.0365   -2.4530 C.3       1 <0>         0.1699
     14 N5          2.3364    0.4790   -2.5689 N.pl3     1 <0>        -0.7472
     15 C10         2.7530    1.1893   -3.7006 C.ar      1 <0>         0.1830
     16 C11         1.8508    1.4705   -4.7163 C.ar      1 <0>        -0.1626
     17 C12         2.2635    2.1764   -5.8308 C.ar      1 <0>        -0.1063
     18 C13         3.5765    2.5949   -5.9411 C.ar      1 <0>        -0.1280
     19 C14         4.4826    2.3137   -4.9350 C.ar      1 <0>        -0.1622
     20 C15         4.0760    1.6110   -3.8128 C.ar      1 <0>         0.0598
     21 O1          4.9664    1.3330   -2.8229 O.3       1 <0>        -0.3272
     22 C16         6.3057    1.7965   -3.0060 C.3       1 <0>         0.0302
     23 H1          1.5932    1.8644    0.3020 H         1 <0>         0.1069
     24 H2          0.3459    1.8759   -0.9678 H         1 <0>         0.1069
     25 H3         -0.1301    1.8674    0.7473 H         1 <0>         0.1052
     26 H4          0.8847   -2.6280   -2.0595 H         1 <0>         0.1930
     27 H5         -0.2018   -2.4766    5.4406 H         1 <0>         0.4460
     28 H6         -0.0784   -3.8945    4.5478 H         1 <0>         0.4334
     29 H7         -0.4080    1.7182    3.1377 H         1 <0>         0.4311
     30 H8          0.8670    1.8085    2.0474 H         1 <0>         0.4367
     31 H9          0.7040   -0.6270   -3.2836 H         1 <0>         0.0825
     32 H10         0.2845    0.9035   -2.4774 H         1 <0>         0.0828
     33 H11         2.9693    0.2796   -1.8613 H         1 <0>         0.4038
     34 H12         0.8255    1.1412   -4.6346 H         1 <0>         0.1274
     35 H13         1.5594    2.3980   -6.6192 H         1 <0>         0.1261
     36 H14         3.8956    3.1426   -6.8155 H         1 <0>         0.1251
     37 H15         5.5077    2.6418   -5.0245 H         1 <0>         0.1295
     38 H16         6.7237    1.3521   -3.9092 H         1 <0>         0.0566
     39 H17         6.3044    2.8822   -3.1023 H         1 <0>         0.0562
     40 H18         6.9105    1.5087   -2.1460 H         1 <0>         0.0989
     41 N6          0.2529   -2.8960    2.2921 N.ar      1 <0>        -0.5896
     42 H19         0.2439   -3.8956    2.3198 H         1 <0>         0.4614
@<TRIPOS>BOND
     1    1    2 1
     2    1   23 1
     3    1   24 1
     4    1   25 1
     5    2    7 ar
     6    2    3 ar
     7    3    4 ar
     8    3   13 1
     9    4    5 ar
    10    4   26 1
    11    5    6 ar
    12    6    7 ar
    13    6   41 ar
    14    7    8 ar
    15    8    9 ar
    16    8   12 1
    17    9   10 ar
    18   10   11 1
    19   10   41 ar
    20   11   27 1
    21   11   28 1
    22   12   29 1
    23   12   30 1
    24   13   14 1
    25   13   31 1
    26   13   32 1
    27   14   15 1
    28   14   33 1
    29   15   20 ar
    30   15   16 ar
    31   16   17 ar
    32   16   34 1
    33   17   18 ar
    34   17   35 1
    35   18   19 ar
    36   18   36 1
    37   19   20 ar
    38   19   37 1
    39   20   21 1
    40   21   22 1
    41   22   38 1
    42   22   39 1
    43   22   40 1
    44   41   42 1
@<TRIPOS>MOLECULE
ZINC03814979
   41    43     0     0     0
SMALL
USER_CHARGES

@<TRIPOS>ATOM
      1 C1         -2.3304   -0.6429    8.9039 C.3       1 <0>        -0.1579
      2 C2         -1.8709    0.6319    9.5633 C.ar      1 <0>         0.0607
      3 C3         -0.6120    1.1264    9.3423 C.ar      1 <0>        -0.2179
      4 C4         -0.2102    2.3005    9.9671 C.ar      1 <0>         0.2100
      5 N1         -1.0121    2.9688   10.7660 N.ar      1 <0>        -0.4897
      6 C5         -2.2483    2.5397   11.0212 C.ar      1 <0>         0.4165
      7 C6         -2.7169    1.3455   10.4198 C.ar      1 <0>        -0.2825
      8 C7         -4.0351    0.9137   10.7088 C.ar      1 <0>         0.5246
      9 N2         -4.7703    1.6492   11.5306 N.ar      1 <0>        -0.6171
     10 C8         -4.2920    2.7646   12.0744 C.ar      1 <0>         0.6253
     11 N3         -3.0725    3.2105   11.8384 N.ar      1 <0>        -0.5914
     12 N4         -5.1073    3.4880   12.9238 N.pl3     1 <0>        -0.8102
     13 N5         -4.5392   -0.2405   10.1508 N.pl3     1 <0>        -0.8447
     14 C9          0.3368    0.3948    8.4282 C.3       1 <0>         0.1793
     15 N6          0.0101    0.7065    7.0345 N.pl3     1 <0>        -0.7416
     16 C10         0.7574    0.1413    5.9988 C.ar      1 <0>         0.2520
     17 C11         1.8115   -0.7165    6.2892 C.ar      1 <0>        -0.2318
     18 C12         2.5507   -1.2750    5.2649 C.ar      1 <0>        -0.0338
     19 C13         2.2412   -0.9867    3.9490 C.ar      1 <0>        -0.2644
     20 C14         1.1931   -0.1267    3.6531 C.ar      1 <0>         0.1717
     21 C15         0.4487    0.4360    4.6781 C.ar      1 <0>        -0.2302
     22 O1          0.8932    0.1594    2.3589 O.3       1 <0>        -0.3192
     23 C16         1.7020   -0.4557    1.3542 C.3       1 <0>         0.0284
     24 H1         -2.2065   -1.4753    9.5965 H         1 <0>         0.0876
     25 H2         -3.3814   -0.5517    8.6296 H         1 <0>         0.1002
     26 H3         -1.7356   -0.8237    8.0085 H         1 <0>         0.0882
     27 H4          0.7862    2.6766    9.7880 H         1 <0>         0.1679
     28 H5         -6.0073    3.1790   13.1120 H         1 <0>         0.4164
     29 H6         -4.7796    4.3046   13.3319 H         1 <0>         0.4190
     30 H7         -3.9799   -1.0299   10.0809 H         1 <0>         0.4186
     31 H8         -5.4535   -0.2638    9.8277 H         1 <0>         0.4109
     32 H9          0.2437   -0.6788    8.5918 H         1 <0>         0.0727
     33 H10         1.3593    0.7074    8.6403 H         1 <0>         0.0742
     34 H11        -0.7253    1.3055    6.8310 H         1 <0>         0.4010
     35 H12         2.0526   -0.9469    7.3165 H         1 <0>         0.1223
     36 H13         3.3695   -1.9414    5.4924 H         1 <0>         0.1235
     37 H14         2.8183   -1.4285    3.1501 H         1 <0>         0.1235
     38 H15        -0.3697    1.1026    4.4495 H         1 <0>         0.1262
     39 H16         1.6259   -1.5397    1.4398 H         1 <0>         0.0561
     40 H17         2.7405   -0.1528    1.4880 H         1 <0>         0.0564
     41 H18         1.3567   -0.1439    0.3685 H         1 <0>         0.0993
@<TRIPOS>BOND
     1    1    2 1
     2    1   24 1
     3    1   25 1
     4    1   26 1
     5    2    7 ar
     6    2    3 ar
     7    3    4 ar
     8    3   14 1
     9    4    5 ar
    10    4   27 1
    11    5    6 ar
    12    6   11 ar
    13    6    7 ar
    14    7    8 ar
    15    8    9 ar
    16    8   13 1
    17    9   10 ar
    18   10   11 ar
    19   10   12 1
    20   12   28 1
    21   12   29 1
    22   13   30 1
    23   13   31 1
    24   14   15 1
    25   14   32 1
    26   14   33 1
    27   15   16 1
    28   15   34 1
    29   16   21 ar
    30   16   17 ar
    31   17   18 ar
    32   17   35 1
    33   18   19 ar
    34   18   36 1
    35   19   20 ar
    36   19   37 1
    37   20   21 ar
    38   20   22 1
    39   21   38 1
    40   22   23 1
    41   23   39 1
    42   23   40 1
    43   23   41 1
@<TRIPOS>MOLECULE
ZINC03814979
   42    44     0     0     0
SMALL
USER_CHARGES

@<TRIPOS>ATOM
      1 C1         -2.3304   -0.6429    8.9039 C.3       1 <0>        -0.1711
      2 C2         -1.8709    0.6319    9.5633 C.ar      1 <0>         0.0781
      3 C3         -0.6120    1.1264    9.3423 C.ar      1 <0>        -0.1746
      4 C4         -0.2102    2.3005    9.9671 C.ar      1 <0>         0.2371
      5 N1         -1.0121    2.9688   10.7660 N.ar      1 <0>        -0.5003
      6 C5         -2.2483    2.5397   11.0212 C.ar      1 <0>         0.4067
      7 C6         -2.7169    1.3455   10.4198 C.ar      1 <0>        -0.2344
      8 C7         -4.0351    0.9137   10.7088 C.ar      1 <0>         0.5806
      9 N2         -4.7703    1.6492   11.5306 N.ar      1 <0>        -0.5716
     10 C8         -4.2920    2.7646   12.0744 C.ar      1 <0>         0.6940
     11 N3         -5.1073    3.4880   12.9238 N.pl3     1 <0>        -0.7777
     12 N4         -4.5392   -0.2405   10.1508 N.pl3     1 <0>        -0.8008
     13 C9          0.3368    0.3948    8.4282 C.3       1 <0>         0.1691
     14 N5          0.0101    0.7065    7.0345 N.pl3     1 <0>        -0.7486
     15 C10         0.7574    0.1413    5.9988 C.ar      1 <0>         0.2425
     16 C11         1.8115   -0.7165    6.2892 C.ar      1 <0>        -0.2298
     17 C12         2.5507   -1.2750    5.2649 C.ar      1 <0>        -0.0327
     18 C13         2.2412   -0.9867    3.9490 C.ar      1 <0>        -0.2548
     19 C14         1.1931   -0.1267    3.6531 C.ar      1 <0>         0.1740
     20 C15         0.4487    0.4360    4.6781 C.ar      1 <0>        -0.2249
     21 O1          0.8932    0.1594    2.3589 O.3       1 <0>        -0.3177
     22 C16         1.7020   -0.4557    1.3542 C.3       1 <0>         0.0265
     23 H1         -2.2065   -1.4753    9.5965 H         1 <0>         0.1078
     24 H2         -3.3814   -0.5517    8.6296 H         1 <0>         0.1066
     25 H3         -1.7356   -0.8237    8.0085 H         1 <0>         0.1090
     26 H4          0.7862    2.6766    9.7880 H         1 <0>         0.1933
     27 H5         -6.0073    3.1790   13.1120 H         1 <0>         0.4461
     28 H6         -4.7796    4.3046   13.3319 H         1 <0>         0.4335
     29 H7         -3.9799   -1.0299   10.0809 H         1 <0>         0.4367
     30 H8         -5.4535   -0.2638    9.8277 H         1 <0>         0.4313
     31 H9          0.2437   -0.6788    8.5918 H         1 <0>         0.0847
     32 H10         1.3593    0.7074    8.6403 H         1 <0>         0.0853
     33 H11        -0.7253    1.3055    6.8310 H         1 <0>         0.4002
     34 H12         2.0526   -0.9469    7.3165 H         1 <0>         0.1219
     35 H13         3.3695   -1.9414    5.4924 H         1 <0>         0.1270
     36 H14         2.8183   -1.4285    3.1501 H         1 <0>         0.1278
     37 H15        -0.3697    1.1026    4.4495 H         1 <0>         0.1270
     38 H16         1.6259   -1.5397    1.4398 H         1 <0>         0.0584
     39 H17         2.7405   -0.1528    1.4880 H         1 <0>         0.0586
     40 H18         1.3567   -0.1439    0.3685 H         1 <0>         0.1028
     41 N6         -3.0502    3.2715   11.8699 N.ar      1 <0>        -0.5896
     42 H19        -2.7757    4.1198   12.3227 H         1 <0>         0.4616
@<TRIPOS>BOND
     1    1    2 1
     2    1   23 1
     3    1   24 1
     4    1   25 1
     5    2    7 ar
     6    2    3 ar
     7    3    4 ar
     8    3   13 1
     9    4    5 ar
    10    4   26 1
    11    5    6 ar
    12    6    7 ar
    13    6   41 ar
    14    7    8 ar
    15    8    9 ar
    16    8   12 1
    17    9   10 ar
    18   10   11 1
    19   10   41 ar
    20   11   27 1
    21   11   28 1
    22   12   29 1
    23   12   30 1
    24   13   14 1
    25   13   31 1
    26   13   32 1
    27   14   15 1
    28   14   33 1
    29   15   20 ar
    30   15   16 ar
    31   16   17 ar
    32   16   34 1
    33   17   18 ar
    34   17   35 1
    35   18   19 ar
    36   18   36 1
    37   19   20 ar
    38   19   21 1
    39   20   37 1
    40   21   22 1
    41   22   38 1
    42   22   39 1
    43   22   40 1
    44   41   42 1
@<TRIPOS>MOLECULE
ZINC03814981
   43    45     0     0     0
SMALL
USER_CHARGES

@<TRIPOS>ATOM
      1 C1          4.7634    1.3298   -0.0358 C.3       1 <0>         0.0262
      2 O1          3.5574    2.0963   -0.0202 O.3       1 <0>        -0.3073
      3 C2          2.3864    1.4049   -0.0127 C.ar      1 <0>         0.0955
      4 C3          2.3981    0.0193   -0.0203 C.ar      1 <0>        -0.1702
      5 C4          1.2069   -0.6820   -0.0131 C.ar      1 <0>        -0.1133
      6 C5          0.0021   -0.0041    0.0020 C.ar      1 <0>        -0.0803
      7 C6         -0.0167    1.3782    0.0096 C.ar      1 <0>        -0.1685
      8 C7          1.1738    2.0873    0.0021 C.ar      1 <0>         0.1024
      9 O2          1.1571    3.4471    0.0100 O.3       1 <0>        -0.3068
     10 C8         -0.1240    4.0801    0.0261 C.3       1 <0>         0.0255
     11 C9         -1.2936   -0.7736    0.0098 C.3       1 <0>        -0.0726
     12 C10        -1.7453   -1.0263   -1.4300 C.3       1 <0>        -0.0644
     13 C11        -3.0410   -1.7958   -1.4223 C.ar      1 <0>        -0.1819
     14 C12        -3.0258   -3.1661   -1.4355 C.ar      1 <0>         0.0004
     15 C13        -4.2536   -3.8377   -1.4221 C.ar      1 <0>        -0.2864
     16 C14        -4.3388   -5.2520   -1.4279 C.ar      1 <0>         0.5236
     17 N1         -5.5419   -5.8082   -1.4194 N.ar      1 <0>        -0.6352
     18 C15        -6.6457   -5.0665   -1.4058 C.ar      1 <0>         0.6317
     19 N2         -6.6218   -3.7469   -1.3994 N.ar      1 <0>        -0.6010
     20 C16        -5.4549   -3.0868   -1.4071 C.ar      1 <0>         0.4114
     21 N3         -5.4031   -1.7546   -1.4004 N.ar      1 <0>        -0.4837
     22 C17        -4.2534   -1.1174   -1.4075 C.ar      1 <0>         0.1939
     23 N4         -7.8709   -5.7052   -1.3976 N.pl3     1 <0>        -0.8119
     24 N5         -3.2012   -6.0287   -1.4424 N.pl3     1 <0>        -0.8154
     25 H1          4.8028    0.6965    0.8504 H         1 <0>         0.0547
     26 H2          4.7858    0.7060   -0.9294 H         1 <0>         0.0548
     27 H3          5.6212    2.0022   -0.0404 H         1 <0>         0.1010
     28 H4          3.3379   -0.5127   -0.0321 H         1 <0>         0.1349
     29 H5          1.2174   -1.7620   -0.0190 H         1 <0>         0.1260
     30 H6         -0.9592    1.9054    0.0170 H         1 <0>         0.1361
     31 H7         -0.6860    3.7854   -0.8602 H         1 <0>         0.0557
     32 H8         -0.6686    3.7753    0.9197 H         1 <0>         0.0554
     33 H9          0.0056    5.1624    0.0310 H         1 <0>         0.1012
     34 H10        -1.1469   -1.7271    0.5171 H         1 <0>         0.0744
     35 H11        -2.0557   -0.1967    0.5337 H         1 <0>         0.0755
     36 H12        -1.8921   -0.0728   -1.9374 H         1 <0>         0.0796
     37 H13        -0.9832   -1.6032   -1.9540 H         1 <0>         0.0768
     38 H14        -2.0938   -3.7116   -1.4515 H         1 <0>         0.1339
     39 H15        -4.2511   -0.0374   -1.4014 H         1 <0>         0.1652
     40 H16        -8.6893   -5.1845   -1.3873 H         1 <0>         0.4184
     41 H17        -7.9127   -6.6743   -1.4020 H         1 <0>         0.4154
     42 H18        -3.2743   -6.9959   -1.4466 H         1 <0>         0.4149
     43 H19        -2.3270   -5.6083   -1.4485 H         1 <0>         0.4145
@<TRIPOS>BOND
     1    1    2 1
     2    1   25 1
     3    1   26 1
     4    1   27 1
     5    2    3 1
     6    3    8 ar
     7    3    4 ar
     8    4    5 ar
     9    4   28 1
    10    5    6 ar
    11    5   29 1
    12    6    7 ar
    13    6   11 1
    14    7    8 ar
    15    7   30 1
    16    8    9 1
    17    9   10 1
    18   10   31 1
    19   10   32 1
    20   10   33 1
    21   11   12 1
    22   11   34 1
    23   11   35 1
    24   12   13 1
    25   12   36 1
    26   12   37 1
    27   13   22 ar
    28   13   14 ar
    29   14   15 ar
    30   14   38 1
    31   15   20 ar
    32   15   16 ar
    33   16   17 ar
    34   16   24 1
    35   17   18 ar
    36   18   19 ar
    37   18   23 1
    38   19   20 ar
    39   20   21 ar
    40   21   22 ar
    41   22   39 1
    42   23   40 1
    43   23   41 1
    44   24   42 1
    45   24   43 1
@<TRIPOS>MOLECULE
ZINC03814981
   44    46     0     0     0
SMALL
USER_CHARGES

@<TRIPOS>ATOM
      1 C1          4.7634    1.3298   -0.0358 C.3       1 <0>         0.0248
      2 O1          3.5574    2.0963   -0.0202 O.3       1 <0>        -0.3047
      3 C2          2.3864    1.4049   -0.0127 C.ar      1 <0>         0.1044
      4 C3          2.3981    0.0193   -0.0203 C.ar      1 <0>        -0.1710
      5 C4          1.2069   -0.6820   -0.0131 C.ar      1 <0>        -0.1111
      6 C5          0.0021   -0.0041    0.0020 C.ar      1 <0>        -0.0935
      7 C6         -0.0167    1.3782    0.0096 C.ar      1 <0>        -0.1684
      8 C7          1.1738    2.0873    0.0021 C.ar      1 <0>         0.1043
      9 O2          1.1571    3.4471    0.0100 O.3       1 <0>        -0.3039
     10 C8         -0.1240    4.0801    0.0261 C.3       1 <0>         0.0257
     11 C9         -1.2936   -0.7736    0.0098 C.3       1 <0>        -0.0693
     12 C10        -1.7453   -1.0263   -1.4300 C.3       1 <0>        -0.0806
     13 C11        -3.0410   -1.7958   -1.4223 C.ar      1 <0>        -0.1335
     14 C12        -3.0258   -3.1661   -1.4355 C.ar      1 <0>         0.0110
     15 C13        -4.2536   -3.8377   -1.4221 C.ar      1 <0>        -0.2290
     16 C14        -4.3388   -5.2520   -1.4279 C.ar      1 <0>         0.5707
     17 N1         -5.5419   -5.8082   -1.4194 N.ar      1 <0>        -0.5863
     18 C15        -6.6457   -5.0665   -1.4058 C.ar      1 <0>         0.6997
     19 C16        -5.4549   -3.0868   -1.4071 C.ar      1 <0>         0.3938
     20 N2         -5.4031   -1.7546   -1.4004 N.ar      1 <0>        -0.4918
     21 C17        -4.2534   -1.1174   -1.4075 C.ar      1 <0>         0.2180
     22 N3         -7.8709   -5.7052   -1.3976 N.pl3     1 <0>        -0.7812
     23 N4         -3.2012   -6.0287   -1.4424 N.pl3     1 <0>        -0.7608
     24 H1          4.8028    0.6965    0.8504 H         1 <0>         0.0565
     25 H2          4.7858    0.7060   -0.9294 H         1 <0>         0.0562
     26 H3          5.6212    2.0022   -0.0404 H         1 <0>         0.1045
     27 H4          3.3379   -0.5127   -0.0321 H         1 <0>         0.1375
     28 H5          1.2174   -1.7620   -0.0190 H         1 <0>         0.1255
     29 H6         -0.9592    1.9054    0.0170 H         1 <0>         0.1354
     30 H7         -0.6860    3.7854   -0.8602 H         1 <0>         0.0547
     31 H8         -0.6686    3.7753    0.9197 H         1 <0>         0.0553
     32 H9          0.0056    5.1624    0.0310 H         1 <0>         0.1039
     33 H10        -1.1469   -1.7271    0.5171 H         1 <0>         0.0764
     34 H11        -2.0557   -0.1967    0.5337 H         1 <0>         0.0771
     35 H12        -1.8921   -0.0728   -1.9374 H         1 <0>         0.0935
     36 H13        -0.9832   -1.6032   -1.9540 H         1 <0>         0.0916
     37 H14        -2.0938   -3.7116   -1.4515 H         1 <0>         0.1631
     38 H15        -4.2511   -0.0374   -1.4014 H         1 <0>         0.1906
     39 H16        -8.6893   -5.1845   -1.3873 H         1 <0>         0.4329
     40 H17        -7.9127   -6.6743   -1.4020 H         1 <0>         0.4450
     41 H18        -3.2743   -6.9959   -1.4466 H         1 <0>         0.4352
     42 H19        -2.3270   -5.6083   -1.4485 H         1 <0>         0.4324
     43 N5         -6.6839   -3.7102   -1.3986 N.ar      1 <0>        -0.5950
     44 H20        -7.5637   -3.2349   -1.3879 H         1 <0>         0.4603
@<TRIPOS>BOND
     1    1    2 1
     2    1   24 1
     3    1   25 1
     4    1   26 1
     5    2    3 1
     6    3    8 ar
     7    3    4 ar
     8    4    5 ar
     9    4   27 1
    10    5    6 ar
    11    5   28 1
    12    6    7 ar
    13    6   11 1
    14    7    8 ar
    15    7   29 1
    16    8    9 1
    17    9   10 1
    18   10   30 1
    19   10   31 1
    20   10   32 1
    21   11   12 1
    22   11   33 1
    23   11   34 1
    24   12   13 1
    25   12   35 1
    26   12   36 1
    27   13   21 ar
    28   13   14 ar
    29   14   15 ar
    30   14   37 1
    31   15   19 ar
    32   15   16 ar
    33   16   17 ar
    34   16   23 1
    35   17   18 ar
    36   18   22 1
    37   18   43 ar
    38   19   20 ar
    39   19   43 ar
    40   20   21 ar
    41   21   38 1
    42   22   39 1
    43   22   40 1
    44   23   41 1
    45   23   42 1
    46   43   44 1
@<TRIPOS>MOLECULE
ZINC03814982
   39    41     0     0     0
SMALL
USER_CHARGES

@<TRIPOS>ATOM
      1 C1          4.7725    0.1638   -0.0424 C.3       1 <0>         0.0270
      2 O1          3.5855   -0.6319   -0.0353 O.3       1 <0>        -0.3184
      3 C2          2.3989    0.0304   -0.0208 C.ar      1 <0>         0.1235
      4 C3          1.2070   -0.6796   -0.0132 C.ar      1 <0>        -0.1492
      5 C4          0.0021   -0.0041    0.0020 C.ar      1 <0>        -0.0753
      6 C5         -0.0167    1.3784    0.0096 C.ar      1 <0>        -0.1213
      7 C6          1.1698    2.0883    0.0021 C.ar      1 <0>        -0.0765
      8 C7          2.3774    1.4175   -0.0131 C.ar      1 <0>        -0.2066
      9 C8         -1.3326    2.1128    0.0199 C.3       1 <0>        -0.0715
     10 C9         -1.7711    2.3535    1.4658 C.3       1 <0>        -0.0648
     11 C10        -3.0870    3.0879    1.4760 C.ar      1 <0>        -0.1814
     12 C11        -3.1085    4.4581    1.4893 C.ar      1 <0>        -0.0005
     13 C12        -4.3539    5.0965    1.4939 C.ar      1 <0>        -0.2864
     14 C13        -4.4771    6.5080    1.5021 C.ar      1 <0>         0.5234
     15 N1         -5.6947    7.0316    1.5103 N.ar      1 <0>        -0.6352
     16 C14        -6.7782    6.2604    1.5109 C.ar      1 <0>         0.6314
     17 N2         -6.7189    4.9420    1.5034 N.ar      1 <0>        -0.6008
     18 C15        -5.5347    4.3135    1.4948 C.ar      1 <0>         0.4111
     19 N3         -5.4472    2.9832    1.4866 N.ar      1 <0>        -0.4837
     20 C16        -4.2808    2.3772    1.4778 C.ar      1 <0>         0.1941
     21 N4         -8.0202    6.8660    1.5192 N.pl3     1 <0>        -0.8121
     22 N5         -3.3606    7.3150    1.5021 N.pl3     1 <0>        -0.8157
     23 H1          4.7965    0.7884    0.8506 H         1 <0>         0.0556
     24 H2          5.6464   -0.4875   -0.0539 H         1 <0>         0.1010
     25 H3          4.7798    0.7974   -0.9293 H         1 <0>         0.0556
     26 H4          1.2211   -1.7595   -0.0195 H         1 <0>         0.1310
     27 H5         -0.9260   -0.5563    0.0083 H         1 <0>         0.1306
     28 H6          1.1525    3.1682    0.0077 H         1 <0>         0.1233
     29 H7          3.3039    1.9724   -0.0187 H         1 <0>         0.1272
     30 H8         -1.2185    3.0698   -0.4893 H         1 <0>         0.0712
     31 H9         -2.0860    1.5155   -0.4937 H         1 <0>         0.0757
     32 H10        -1.8851    1.3965    1.9750 H         1 <0>         0.0803
     33 H11        -1.0176    2.9508    1.9793 H         1 <0>         0.0751
     34 H12        -2.1914    5.0285    1.4923 H         1 <0>         0.1333
     35 H13        -4.2495    1.2976    1.4714 H         1 <0>         0.1660
     36 H14        -8.8243    6.3234    1.5194 H         1 <0>         0.4184
     37 H15        -8.0880    7.8336    1.5247 H         1 <0>         0.4153
     38 H16        -3.4596    8.2799    1.5081 H         1 <0>         0.4147
     39 H17        -2.4755    6.9183    1.4960 H         1 <0>         0.4143
@<TRIPOS>BOND
     1    1    2 1
     2    1   23 1
     3    1   24 1
     4    1   25 1
     5    2    3 1
     6    3    8 ar
     7    3    4 ar
     8    4    5 ar
     9    4   26 1
    10    5    6 ar
    11    5   27 1
    12    6    7 ar
    13    6    9 1
    14    7    8 ar
    15    7   28 1
    16    8   29 1
    17    9   10 1
    18    9   30 1
    19    9   31 1
    20   10   11 1
    21   10   32 1
    22   10   33 1
    23   11   20 ar
    24   11   12 ar
    25   12   13 ar
    26   12   34 1
    27   13   18 ar
    28   13   14 ar
    29   14   15 ar
    30   14   22 1
    31   15   16 ar
    32   16   17 ar
    33   16   21 1
    34   17   18 ar
    35   18   19 ar
    36   19   20 ar
    37   20   35 1
    38   21   36 1
    39   21   37 1
    40   22   38 1
    41   22   39 1
@<TRIPOS>MOLECULE
ZINC03814982
   40    42     0     0     0
SMALL
USER_CHARGES

@<TRIPOS>ATOM
      1 C1          4.7725    0.1638   -0.0424 C.3       1 <0>         0.0255
      2 O1          3.5855   -0.6319   -0.0353 O.3       1 <0>        -0.3156
      3 C2          2.3989    0.0304   -0.0208 C.ar      1 <0>         0.1330
      4 C3          1.2070   -0.6796   -0.0132 C.ar      1 <0>        -0.1489
      5 C4          0.0021   -0.0041    0.0020 C.ar      1 <0>        -0.0731
      6 C5         -0.0167    1.3784    0.0096 C.ar      1 <0>        -0.1350
      7 C6          1.1698    2.0883    0.0021 C.ar      1 <0>        -0.0740
      8 C7          2.3774    1.4175   -0.0131 C.ar      1 <0>        -0.2069
      9 C8         -1.3326    2.1128    0.0199 C.3       1 <0>        -0.0682
     10 C9         -1.7711    2.3535    1.4658 C.3       1 <0>        -0.0809
     11 C10        -3.0870    3.0879    1.4760 C.ar      1 <0>        -0.1331
     12 C11        -3.1085    4.4581    1.4893 C.ar      1 <0>         0.0103
     13 C12        -4.3539    5.0965    1.4939 C.ar      1 <0>        -0.2291
     14 C13        -4.4771    6.5080    1.5021 C.ar      1 <0>         0.5706
     15 N1         -5.6947    7.0316    1.5103 N.ar      1 <0>        -0.5864
     16 C14        -6.7782    6.2604    1.5109 C.ar      1 <0>         0.6996
     17 C15        -5.5347    4.3135    1.4948 C.ar      1 <0>         0.3934
     18 N2         -5.4472    2.9832    1.4866 N.ar      1 <0>        -0.4918
     19 C16        -4.2808    2.3772    1.4778 C.ar      1 <0>         0.2183
     20 N3         -8.0202    6.8660    1.5192 N.pl3     1 <0>        -0.7814
     21 N4         -3.3606    7.3150    1.5021 N.pl3     1 <0>        -0.7612
     22 H1          4.7965    0.7884    0.8506 H         1 <0>         0.0570
     23 H2          5.6464   -0.4875   -0.0539 H         1 <0>         0.1045
     24 H3          4.7798    0.7974   -0.9293 H         1 <0>         0.0573
     25 H4          1.2211   -1.7595   -0.0195 H         1 <0>         0.1337
     26 H5         -0.9260   -0.5563    0.0083 H         1 <0>         0.1299
     27 H6          1.1525    3.1682    0.0077 H         1 <0>         0.1229
     28 H7          3.3039    1.9724   -0.0187 H         1 <0>         0.1300
     29 H8         -1.2185    3.0698   -0.4893 H         1 <0>         0.0733
     30 H9         -2.0860    1.5155   -0.4937 H         1 <0>         0.0772
     31 H10        -1.8851    1.3965    1.9750 H         1 <0>         0.0943
     32 H11        -1.0176    2.9508    1.9793 H         1 <0>         0.0899
     33 H12        -2.1914    5.0285    1.4923 H         1 <0>         0.1626
     34 H13        -4.2495    1.2976    1.4714 H         1 <0>         0.1913
     35 H14        -8.8243    6.3234    1.5194 H         1 <0>         0.4329
     36 H15        -8.0880    7.8336    1.5247 H         1 <0>         0.4449
     37 H16        -3.4596    8.2799    1.5081 H         1 <0>         0.4351
     38 H17        -2.4755    6.9183    1.4960 H         1 <0>         0.4323
     39 N5         -6.7800    4.9037    1.5035 N.ar      1 <0>        -0.5948
     40 H18        -7.6467    4.4048    1.5045 H         1 <0>         0.4603
@<TRIPOS>BOND
     1    1    2 1
     2    1   22 1
     3    1   23 1
     4    1   24 1
     5    2    3 1
     6    3    8 ar
     7    3    4 ar
     8    4    5 ar
     9    4   25 1
    10    5    6 ar
    11    5   26 1
    12    6    7 ar
    13    6    9 1
    14    7    8 ar
    15    7   27 1
    16    8   28 1
    17    9   10 1
    18    9   29 1
    19    9   30 1
    20   10   11 1
    21   10   31 1
    22   10   32 1
    23   11   19 ar
    24   11   12 ar
    25   12   13 ar
    26   12   33 1
    27   13   17 ar
    28   13   14 ar
    29   14   15 ar
    30   14   21 1
    31   15   16 ar
    32   16   20 1
    33   16   39 ar
    34   17   18 ar
    35   17   39 ar
    36   18   19 ar
    37   19   34 1
    38   20   35 1
    39   20   36 1
    40   21   37 1
    41   21   38 1
    42   39   40 1
@<TRIPOS>MOLECULE
ZINC03814983
   49    51     0     0     0
SMALL
USER_CHARGES

@<TRIPOS>ATOM
      1 C1          0.8399    5.4433   -1.5842 C.3       1 <0>         0.0887
      2 N1          0.1669    5.9883   -0.4025 N.pl3     1 <0>        -0.6196
      3 C2          0.0528    7.4384   -0.2282 C.3       1 <0>         0.1715
      4 C3          1.2508    7.9490    0.5301 C.ar      1 <0>        -0.2121
      5 C4          1.2187    8.0186    1.8984 C.ar      1 <0>         0.0158
      6 C5          2.3564    8.4951    2.5597 C.ar      1 <0>        -0.2890
      7 C6          2.4195    8.5982    3.9714 C.ar      1 <0>         0.5262
      8 N2          3.5339    9.0638    4.5174 N.ar      1 <0>        -0.6332
      9 C7          4.5707    9.4272    3.7680 C.ar      1 <0>         0.6343
     10 N3          4.5637    9.3513    2.4504 N.ar      1 <0>        -0.6008
     11 C8          3.4842    8.8935    1.8003 C.ar      1 <0>         0.4188
     12 N4          3.4515    8.8063    0.4704 N.ar      1 <0>        -0.4834
     13 C9          2.3879    8.3555   -0.1569 C.ar      1 <0>         0.2027
     14 N5          5.7050    9.9047    4.3962 N.pl3     1 <0>        -0.8102
     15 N6          1.3506    8.2247    4.7559 N.pl3     1 <0>        -0.8147
     16 C10        -0.3668    5.1239    0.5594 C.ar      1 <0>         0.2893
     17 C11        -1.0042    5.6407    1.6793 C.ar      1 <0>        -0.3157
     18 C12        -1.5332    4.7848    2.6328 C.ar      1 <0>         0.1919
     19 C13        -1.4310    3.4092    2.4644 C.ar      1 <0>        -0.0266
     20 C14        -0.7875    2.8927    1.3463 C.ar      1 <0>         0.1958
     21 C15        -0.2585    3.7497    0.3938 C.ar      1 <0>        -0.3069
     22 O1         -0.6816    1.5467    1.1837 O.3       1 <0>        -0.3002
     23 C16        -0.0127    1.0858    0.0080 C.3       1 <0>         0.0252
     24 O2         -1.9563    2.5677    3.3975 O.3       1 <0>        -0.3087
     25 C17        -1.1009    2.1770    4.4736 C.3       1 <0>         0.0333
     26 O3         -2.1575    5.2912    3.7297 O.3       1 <0>        -0.2975
     27 C18        -2.2316    6.7144    3.8348 C.3       1 <0>         0.0266
     28 H1          0.1120    5.2985   -2.3824 H         1 <0>         0.0563
     29 H2          1.6103    6.1391   -1.9167 H         1 <0>         0.0709
     30 H3          1.2983    4.4869   -1.3325 H         1 <0>         0.0689
     31 H4          0.0091    7.9195   -1.2053 H         1 <0>         0.0950
     32 H5         -0.8551    7.6668    0.3302 H         1 <0>         0.0870
     33 H6          0.3428    7.7112    2.4504 H         1 <0>         0.1286
     34 H7          2.3984    8.2993   -1.2354 H         1 <0>         0.1642
     35 H8          6.4735   10.1754    3.8698 H         1 <0>         0.4190
     36 H9          5.7328    9.9693    5.3637 H         1 <0>         0.4161
     37 H10         1.4074    8.3008    5.7213 H         1 <0>         0.4163
     38 H11         0.5410    7.8855    4.3430 H         1 <0>         0.4098
     39 H12        -1.0875    6.7097    1.8078 H         1 <0>         0.1318
     40 H13         0.2378    3.3484   -0.4774 H         1 <0>         0.1368
     41 H14         0.0021   -0.0041    0.0020 H         1 <0>         0.1030
     42 H15         1.0099    1.4631    0.0003 H         1 <0>         0.0560
     43 H16        -0.5399    1.4469   -0.8751 H         1 <0>         0.0585
     44 H17        -0.2267    1.6627    4.0745 H         1 <0>         0.0410
     45 H18        -0.7820    3.0622    5.0239 H         1 <0>         0.0403
     46 H19        -1.6417    1.5082    5.1431 H         1 <0>         0.0895
     47 H20        -2.7527    6.9843    4.7533 H         1 <0>         0.1066
     48 H21        -1.2243    7.1304    3.8529 H         1 <0>         0.0415
     49 H22        -2.7744    7.1142    2.9782 H         1 <0>         0.0617
@<TRIPOS>BOND
     1    1    2 1
     2    1   28 1
     3    1   29 1
     4    1   30 1
     5    2    3 1
     6    2   16 1
     7    3    4 1
     8    3   31 1
     9    3   32 1
    10    4   13 ar
    11    4    5 ar
    12    5    6 ar
    13    5   33 1
    14    6   11 ar
    15    6    7 ar
    16    7    8 ar
    17    7   15 1
    18    8    9 ar
    19    9   10 ar
    20    9   14 1
    21   10   11 ar
    22   11   12 ar
    23   12   13 ar
    24   13   34 1
    25   14   35 1
    26   14   36 1
    27   15   37 1
    28   15   38 1
    29   16   21 ar
    30   16   17 ar
    31   17   18 ar
    32   17   39 1
    33   18   19 ar
    34   18   26 1
    35   19   20 ar
    36   19   24 1
    37   20   21 ar
    38   20   22 1
    39   21   40 1
    40   22   23 1
    41   23   41 1
    42   23   42 1
    43   23   43 1
    44   24   25 1
    45   25   44 1
    46   25   45 1
    47   25   46 1
    48   26   27 1
    49   27   47 1
    50   27   48 1
    51   27   49 1
@<TRIPOS>MOLECULE
ZINC03814983
   50    52     0     0     0
SMALL
USER_CHARGES

@<TRIPOS>ATOM
      1 C1          0.8399    5.4433   -1.5842 C.3       1 <0>         0.0858
      2 N1          0.1669    5.9883   -0.4025 N.pl3     1 <0>        -0.6232
      3 C2          0.0528    7.4384   -0.2282 C.3       1 <0>         0.1609
      4 C3          1.2508    7.9490    0.5301 C.ar      1 <0>        -0.1647
      5 C4          1.2187    8.0186    1.8984 C.ar      1 <0>         0.0237
      6 C5          2.3564    8.4951    2.5597 C.ar      1 <0>        -0.2317
      7 C6          2.4195    8.5982    3.9714 C.ar      1 <0>         0.5719
      8 N2          3.5339    9.0638    4.5174 N.ar      1 <0>        -0.5835
      9 C7          4.5707    9.4272    3.7680 C.ar      1 <0>         0.7003
     10 C8          3.4842    8.8935    1.8003 C.ar      1 <0>         0.4029
     11 N3          3.4515    8.8063    0.4704 N.ar      1 <0>        -0.4915
     12 C9          2.3879    8.3555   -0.1569 C.ar      1 <0>         0.2281
     13 N4          5.7050    9.9047    4.3962 N.pl3     1 <0>        -0.7792
     14 N5          1.3506    8.2247    4.7559 N.pl3     1 <0>        -0.7610
     15 C10        -0.3668    5.1239    0.5594 C.ar      1 <0>         0.2807
     16 C11        -1.0042    5.6407    1.6793 C.ar      1 <0>        -0.3218
     17 C12        -1.5332    4.7848    2.6328 C.ar      1 <0>         0.1902
     18 C13        -1.4310    3.4092    2.4644 C.ar      1 <0>        -0.0170
     19 C14        -0.7875    2.8927    1.3463 C.ar      1 <0>         0.1996
     20 C15        -0.2585    3.7497    0.3938 C.ar      1 <0>        -0.3014
     21 O1         -0.6816    1.5467    1.1837 O.3       1 <0>        -0.2965
     22 C16        -0.0127    1.0858    0.0080 C.3       1 <0>         0.0238
     23 O2         -1.9563    2.5677    3.3975 O.3       1 <0>        -0.3072
     24 C17        -1.1009    2.1770    4.4736 C.3       1 <0>         0.0340
     25 O3         -2.1575    5.2912    3.7297 O.3       1 <0>        -0.2940
     26 C18        -2.2316    6.7144    3.8348 C.3       1 <0>         0.0282
     27 H1          0.1120    5.2985   -2.3824 H         1 <0>         0.0629
     28 H2          1.6103    6.1391   -1.9167 H         1 <0>         0.0693
     29 H3          1.2983    4.4869   -1.3325 H         1 <0>         0.0735
     30 H4          0.0091    7.9195   -1.2053 H         1 <0>         0.1076
     31 H5         -0.8551    7.6668    0.3302 H         1 <0>         0.0997
     32 H6          0.3428    7.7112    2.4504 H         1 <0>         0.1559
     33 H7          2.3984    8.2993   -1.2354 H         1 <0>         0.1903
     34 H8          6.4735   10.1754    3.8698 H         1 <0>         0.4334
     35 H9          5.7328    9.9693    5.3637 H         1 <0>         0.4457
     36 H10         1.4074    8.3008    5.7213 H         1 <0>         0.4366
     37 H11         0.5410    7.8855    4.3430 H         1 <0>         0.4272
     38 H12        -1.0875    6.7097    1.8078 H         1 <0>         0.1279
     39 H13         0.2378    3.3484   -0.4774 H         1 <0>         0.1395
     40 H14         0.0021   -0.0041    0.0020 H         1 <0>         0.1073
     41 H15         1.0099    1.4631    0.0003 H         1 <0>         0.0563
     42 H16        -0.5399    1.4469   -0.8751 H         1 <0>         0.0607
     43 H17        -0.2267    1.6627    4.0745 H         1 <0>         0.0425
     44 H18        -0.7820    3.0622    5.0239 H         1 <0>         0.0397
     45 H19        -1.6417    1.5082    5.1431 H         1 <0>         0.0937
     46 H20        -2.7527    6.9843    4.7533 H         1 <0>         0.1106
     47 H21        -1.2243    7.1304    3.8529 H         1 <0>         0.0314
     48 H22        -2.7744    7.1142    2.9782 H         1 <0>         0.0649
     49 N6          4.6220    9.3720    2.4133 N.ar      1 <0>        -0.5950
     50 H23         5.4471    9.6676    1.9317 H         1 <0>         0.4611
@<TRIPOS>BOND
     1    1    2 1
     2    1   27 1
     3    1   28 1
     4    1   29 1
     5    2    3 1
     6    2   15 1
     7    3    4 1
     8    3   30 1
     9    3   31 1
    10    4   12 ar
    11    4    5 ar
    12    5    6 ar
    13    5   32 1
    14    6   10 ar
    15    6    7 ar
    16    7    8 ar
    17    7   14 1
    18    8    9 ar
    19    9   13 1
    20    9   49 ar
    21   10   11 ar
    22   10   49 ar
    23   11   12 ar
    24   12   33 1
    25   13   34 1
    26   13   35 1
    27   14   36 1
    28   14   37 1
    29   15   20 ar
    30   15   16 ar
    31   16   17 ar
    32   16   38 1
    33   17   18 ar
    34   17   25 1
    35   18   19 ar
    36   18   23 1
    37   19   20 ar
    38   19   21 1
    39   20   39 1
    40   21   22 1
    41   22   40 1
    42   22   41 1
    43   22   42 1
    44   23   24 1
    45   24   43 1
    46   24   44 1
    47   24   45 1
    48   25   26 1
    49   26   46 1
    50   26   47 1
    51   26   48 1
    52   49   50 1
@<TRIPOS>MOLECULE
ZINC03814984
   52    54     0     0     0
SMALL
USER_CHARGES

@<TRIPOS>ATOM
      1 C1         -0.0187    1.5258    0.0104 C.3       1 <0>        -0.1736
      2 C2          0.0021   -0.0041    0.0020 C.3       1 <0>         0.1183
      3 N1          0.6878   -0.4765   -1.2033 N.pl3     1 <0>        -0.6167
      4 C3          2.1353   -0.7012   -1.1821 C.3       1 <0>         0.1721
      5 C4          2.4170   -2.1231   -0.7698 C.ar      1 <0>        -0.2101
      6 C5          2.5865   -2.4333    0.5543 C.ar      1 <0>         0.0143
      7 C6          2.8417   -3.7677    0.8899 C.ar      1 <0>        -0.2893
      8 C7          3.0255   -4.1855    2.2313 C.ar      1 <0>         0.5252
      9 N2          3.2674   -5.4681    2.4615 N.ar      1 <0>        -0.6345
     10 C8          3.3376   -6.3473    1.4661 C.ar      1 <0>         0.6339
     11 N3          3.1741   -6.0108    0.2005 N.ar      1 <0>        -0.6001
     12 C9          2.9249   -4.7381   -0.1392 C.ar      1 <0>         0.4181
     13 N4          2.7554   -4.3719   -1.4099 N.ar      1 <0>        -0.4814
     14 C10         2.5110   -3.1211   -1.7317 C.ar      1 <0>         0.2024
     15 N5          3.5923   -7.6709    1.7703 N.pl3     1 <0>        -0.8105
     16 N6          2.9551   -3.2821    3.2689 N.pl3     1 <0>        -0.8151
     17 C11        -0.0397   -0.7132   -2.3747 C.ar      1 <0>         0.2887
     18 C12         0.6113   -1.1554   -3.5183 C.ar      1 <0>        -0.3124
     19 C13        -0.1096   -1.3947   -4.6779 C.ar      1 <0>         0.1965
     20 C14        -1.4827   -1.1821   -4.6983 C.ar      1 <0>        -0.0266
     21 C15        -2.1329   -0.7344   -3.5547 C.ar      1 <0>         0.1938
     22 C16        -1.4114   -0.5001   -2.3944 C.ar      1 <0>        -0.3073
     23 O1         -3.4766   -0.5256   -3.5739 O.3       1 <0>        -0.3005
     24 C17        -4.0789   -0.0647   -2.3627 C.3       1 <0>         0.0260
     25 O2         -2.1910   -1.4129   -5.8385 O.3       1 <0>        -0.3093
     26 C18        -2.3368   -0.3175   -6.7445 C.3       1 <0>         0.0337
     27 O3          0.5275   -1.8328   -5.7966 O.3       1 <0>        -0.2989
     28 C19         1.9398   -2.0298   -5.7038 C.3       1 <0>         0.0230
     29 H1          1.0039    1.9031    0.0027 H         1 <0>         0.0585
     30 H2         -0.5459    1.8868   -0.8726 H         1 <0>         0.0606
     31 H3         -0.5289    1.8773    0.9072 H         1 <0>         0.0654
     32 H4          0.5293   -0.3651    0.8851 H         1 <0>         0.0724
     33 H5         -1.0205   -0.3814    0.0098 H         1 <0>         0.0761
     34 H6          2.5453   -0.5232   -2.1762 H         1 <0>         0.0898
     35 H7          2.5986   -0.0180   -0.4703 H         1 <0>         0.0894
     36 H8          2.5212   -1.6710    1.3167 H         1 <0>         0.1325
     37 H9          2.3794   -2.8623   -2.7720 H         1 <0>         0.1591
     38 H10         3.6475   -8.3297    1.0605 H         1 <0>         0.4191
     39 H11         3.7158   -7.9413    2.6937 H         1 <0>         0.4158
     40 H12         3.0833   -3.5819    4.1824 H         1 <0>         0.4154
     41 H13         2.7773   -2.3463    3.0859 H         1 <0>         0.4136
     42 H14         1.6791   -1.3166   -3.5035 H         1 <0>         0.1340
     43 H15        -1.9166   -0.1522   -1.5056 H         1 <0>         0.1348
     44 H16        -5.1509    0.0606   -2.5148 H         1 <0>         0.1021
     45 H17        -3.9070   -0.7940   -1.5711 H         1 <0>         0.0562
     46 H18        -3.6381    0.8908   -2.0784 H         1 <0>         0.0560
     47 H19        -1.3524    0.0154   -7.0736 H         1 <0>         0.0413
     48 H20        -2.9203   -0.6358   -7.6085 H         1 <0>         0.0887
     49 H21        -2.8490    0.5034   -6.2427 H         1 <0>         0.0406
     50 H22         2.4217   -1.0877   -5.4423 H         1 <0>         0.0567
     51 H23         2.1533   -2.7727   -4.9352 H         1 <0>         0.0579
     52 H24         2.3217   -2.3793   -6.6630 H         1 <0>         0.1041
@<TRIPOS>BOND
     1    1    2 1
     2    1   29 1
     3    1   30 1
     4    1   31 1
     5    2    3 1
     6    2   32 1
     7    2   33 1
     8    3    4 1
     9    3   17 1
    10    4    5 1
    11    4   34 1
    12    4   35 1
    13    5   14 ar
    14    5    6 ar
    15    6    7 ar
    16    6   36 1
    17    7   12 ar
    18    7    8 ar
    19    8    9 ar
    20    8   16 1
    21    9   10 ar
    22   10   11 ar
    23   10   15 1
    24   11   12 ar
    25   12   13 ar
    26   13   14 ar
    27   14   37 1
    28   15   38 1
    29   15   39 1
    30   16   40 1
    31   16   41 1
    32   17   22 ar
    33   17   18 ar
    34   18   19 ar
    35   18   42 1
    36   19   20 ar
    37   19   27 1
    38   20   21 ar
    39   20   25 1
    40   21   22 ar
    41   21   23 1
    42   22   43 1
    43   23   24 1
    44   24   44 1
    45   24   45 1
    46   24   46 1
    47   25   26 1
    48   26   47 1
    49   26   48 1
    50   26   49 1
    51   27   28 1
    52   28   50 1
    53   28   51 1
    54   28   52 1
@<TRIPOS>MOLECULE
ZINC03814984
   53    55     0     0     0
SMALL
USER_CHARGES

@<TRIPOS>ATOM
      1 C1         -0.0187    1.5258    0.0104 C.3       1 <0>        -0.1773
      2 C2          0.0021   -0.0041    0.0020 C.3       1 <0>         0.1185
      3 N1          0.6878   -0.4765   -1.2033 N.pl3     1 <0>        -0.6208
      4 C3          2.1353   -0.7012   -1.1821 C.3       1 <0>         0.1612
      5 C4          2.4170   -2.1231   -0.7698 C.ar      1 <0>        -0.1637
      6 C5          2.5865   -2.4333    0.5543 C.ar      1 <0>         0.0241
      7 C6          2.8417   -3.7677    0.8899 C.ar      1 <0>        -0.2321
      8 C7          3.0255   -4.1855    2.2313 C.ar      1 <0>         0.5717
      9 N2          3.2674   -5.4681    2.4615 N.ar      1 <0>        -0.5852
     10 C8          3.3376   -6.3473    1.4661 C.ar      1 <0>         0.7005
     11 C9          2.9249   -4.7381   -0.1392 C.ar      1 <0>         0.4018
     12 N3          2.7554   -4.3719   -1.4099 N.ar      1 <0>        -0.4900
     13 C10         2.5110   -3.1211   -1.7317 C.ar      1 <0>         0.2266
     14 N4          3.5923   -7.6709    1.7703 N.pl3     1 <0>        -0.7796
     15 N5          2.9551   -3.2821    3.2689 N.pl3     1 <0>        -0.7609
     16 C11        -0.0397   -0.7132   -2.3747 C.ar      1 <0>         0.2788
     17 C12         0.6113   -1.1554   -3.5183 C.ar      1 <0>        -0.3172
     18 C13        -0.1096   -1.3947   -4.6779 C.ar      1 <0>         0.1957
     19 C14        -1.4827   -1.1821   -4.6983 C.ar      1 <0>        -0.0176
     20 C15        -2.1329   -0.7344   -3.5547 C.ar      1 <0>         0.1970
     21 C16        -1.4114   -0.5001   -2.3944 C.ar      1 <0>        -0.3021
     22 O1         -3.4766   -0.5256   -3.5739 O.3       1 <0>        -0.2970
     23 C17        -4.0789   -0.0647   -2.3627 C.3       1 <0>         0.0249
     24 O2         -2.1910   -1.4129   -5.8385 O.3       1 <0>        -0.3100
     25 C18        -2.3368   -0.3175   -6.7445 C.3       1 <0>         0.0333
     26 O3          0.5275   -1.8328   -5.7966 O.3       1 <0>        -0.2955
     27 C19         1.9398   -2.0298   -5.7038 C.3       1 <0>         0.0242
     28 H1          1.0039    1.9031    0.0027 H         1 <0>         0.0601
     29 H2         -0.5459    1.8868   -0.8726 H         1 <0>         0.0639
     30 H3         -0.5289    1.8773    0.9072 H         1 <0>         0.0695
     31 H4          0.5293   -0.3651    0.8851 H         1 <0>         0.0703
     32 H5         -1.0205   -0.3814    0.0098 H         1 <0>         0.0803
     33 H6          2.5453   -0.5232   -2.1762 H         1 <0>         0.1015
     34 H7          2.5986   -0.0180   -0.4703 H         1 <0>         0.1027
     35 H8          2.5212   -1.6710    1.3167 H         1 <0>         0.1620
     36 H9          2.3794   -2.8623   -2.7720 H         1 <0>         0.1838
     37 H10         3.6475   -8.3297    1.0605 H         1 <0>         0.4334
     38 H11         3.7158   -7.9413    2.6937 H         1 <0>         0.4454
     39 H12         3.0833   -3.5819    4.1824 H         1 <0>         0.4357
     40 H13         2.7773   -2.3463    3.0859 H         1 <0>         0.4316
     41 H14         1.6791   -1.3166   -3.5035 H         1 <0>         0.1300
     42 H15        -1.9166   -0.1522   -1.5056 H         1 <0>         0.1374
     43 H16        -5.1509    0.0606   -2.5148 H         1 <0>         0.1062
     44 H17        -3.9070   -0.7940   -1.5711 H         1 <0>         0.0563
     45 H18        -3.6381    0.8908   -2.0784 H         1 <0>         0.0581
     46 H19        -1.3524    0.0154   -7.0736 H         1 <0>         0.0432
     47 H20        -2.9203   -0.6358   -7.6085 H         1 <0>         0.0929
     48 H21        -2.8490    0.5034   -6.2427 H         1 <0>         0.0434
     49 H22         2.4217   -1.0877   -5.4423 H         1 <0>         0.0585
     50 H23         2.1533   -2.7727   -4.9352 H         1 <0>         0.0511
     51 H24         2.3217   -2.3793   -6.6630 H         1 <0>         0.1073
     52 N6          3.1787   -6.0615    0.1493 N.ar      1 <0>        -0.5948
     53 H25         3.2485   -6.7898   -0.5323 H         1 <0>         0.4611
@<TRIPOS>BOND
     1    1    2 1
     2    1   28 1
     3    1   29 1
     4    1   30 1
     5    2    3 1
     6    2   31 1
     7    2   32 1
     8    3    4 1
     9    3   16 1
    10    4    5 1
    11    4   33 1
    12    4   34 1
    13    5   13 ar
    14    5    6 ar
    15    6    7 ar
    16    6   35 1
    17    7   11 ar
    18    7    8 ar
    19    8    9 ar
    20    8   15 1
    21    9   10 ar
    22   10   14 1
    23   10   52 ar
    24   11   12 ar
    25   11   52 ar
    26   12   13 ar
    27   13   36 1
    28   14   37 1
    29   14   38 1
    30   15   39 1
    31   15   40 1
    32   16   21 ar
    33   16   17 ar
    34   17   18 ar
    35   17   41 1
    36   18   19 ar
    37   18   26 1
    38   19   20 ar
    39   19   24 1
    40   20   21 ar
    41   20   22 1
    42   21   42 1
    43   22   23 1
    44   23   43 1
    45   23   44 1
    46   23   45 1
    47   24   25 1
    48   25   46 1
    49   25   47 1
    50   25   48 1
    51   26   27 1
    52   27   49 1
    53   27   50 1
    54   27   51 1
    55   52   53 1
@<TRIPOS>MOLECULE
ZINC03814986
   45    48     0     0     0
SMALL
USER_CHARGES

@<TRIPOS>ATOM
      1 C1          0.6921    8.0342   -3.0702 C.3       1 <0>        -0.1573
      2 C2          0.7102    6.5689   -3.4219 C.ar      1 <0>         0.0482
      3 C3          1.1804    5.6362   -2.5347 C.ar      1 <0>        -0.2274
      4 C4          1.1922    4.2919   -2.8854 C.ar      1 <0>         0.1974
      5 N1          0.7510    3.8770   -4.0520 N.ar      1 <0>        -0.4836
      6 C5          0.2813    4.7349   -4.9580 C.ar      1 <0>         0.4111
      7 C6          0.2477    6.1205   -4.6643 C.ar      1 <0>        -0.2787
      8 C7         -0.2570    7.0089   -5.6460 C.ar      1 <0>         0.5230
      9 N2         -0.6754    6.5007   -6.7964 N.ar      1 <0>        -0.6164
     10 C8         -0.6267    5.1928   -7.0323 C.ar      1 <0>         0.6229
     11 N3         -0.1662    4.3232   -6.1528 N.ar      1 <0>        -0.5900
     12 N4         -1.0774    4.7240   -8.2515 N.pl3     1 <0>        -0.8113
     13 N5         -0.3111    8.3652   -5.4110 N.pl3     1 <0>        -0.8454
     14 C9          1.6894    6.0685   -1.1837 C.3       1 <0>         0.0894
     15 N6          0.9198    5.3921   -0.1311 N.pl3     1 <0>        -0.4620
     16 C10        -0.5277    5.4152   -0.4347 C.3       1 <0>         0.0398
     17 C11        -1.0294    4.1041    0.2127 C.3       1 <0>        -0.0723
     18 C12         0.2113    3.2335    0.2155 C.ar      1 <0>        -0.1744
     19 C13         1.3108    4.0532   -0.0051 C.ar      1 <0>         0.1302
     20 C14         2.5817    3.4830   -0.0626 C.ar      1 <0>        -0.1808
     21 C15         2.7428    2.1227    0.1036 C.ar      1 <0>        -0.0516
     22 C16         1.6463    1.3127    0.3290 C.ar      1 <0>        -0.2299
     23 C17         0.3753    1.8695    0.3799 C.ar      1 <0>         0.1698
     24 O1         -0.7064    1.0758    0.5957 O.3       1 <0>        -0.3149
     25 C18        -0.4625   -0.3224    0.7616 C.3       1 <0>         0.0264
     26 H1          1.5784    8.5175   -3.4813 H         1 <0>         0.0885
     27 H2         -0.2014    8.4973   -3.4887 H         1 <0>         0.1009
     28 H3          0.6863    8.1476   -1.9861 H         1 <0>         0.0874
     29 H4          1.5700    3.5678   -2.1787 H         1 <0>         0.1656
     30 H5         -1.4198    5.3450   -8.9134 H         1 <0>         0.4160
     31 H6         -1.0513    3.7740   -8.4455 H         1 <0>         0.4186
     32 H7          0.4262    8.8097   -4.9642 H         1 <0>         0.4183
     33 H8         -1.0864    8.8756   -5.6925 H         1 <0>         0.4105
     34 H9          1.5753    7.1476   -1.0808 H         1 <0>         0.1024
     35 H10         2.7427    5.8040   -1.0906 H         1 <0>         0.0961
     36 H11        -0.6972    5.4045   -1.5114 H         1 <0>         0.0665
     37 H12        -1.0078    6.2806    0.0221 H         1 <0>         0.0973
     38 H13        -1.8166    3.6522   -0.3908 H         1 <0>         0.0798
     39 H14        -1.3768    4.2842    1.2301 H         1 <0>         0.0866
     40 H15         3.4441    4.1088   -0.2384 H         1 <0>         0.1261
     41 H16         3.7308    1.6891    0.0576 H         1 <0>         0.1312
     42 H17         1.7770    0.2488    0.4607 H         1 <0>         0.1317
     43 H18        -1.4079   -0.8392    0.9262 H         1 <0>         0.1003
     44 H19         0.0159   -0.7166   -0.1350 H         1 <0>         0.0574
     45 H20         0.1908   -0.4778    1.6202 H         1 <0>         0.0566
@<TRIPOS>BOND
     1    1    2 1
     2    1   26 1
     3    1   27 1
     4    1   28 1
     5    2    7 ar
     6    2    3 ar
     7    3    4 ar
     8    3   14 1
     9    4    5 ar
    10    4   29 1
    11    5    6 ar
    12    6   11 ar
    13    6    7 ar
    14    7    8 ar
    15    8    9 ar
    16    8   13 1
    17    9   10 ar
    18   10   11 ar
    19   10   12 1
    20   12   30 1
    21   12   31 1
    22   13   32 1
    23   13   33 1
    24   14   15 1
    25   14   34 1
    26   14   35 1
    27   15   19 1
    28   15   16 1
    29   16   17 1
    30   16   36 1
    31   16   37 1
    32   17   18 1
    33   17   38 1
    34   17   39 1
    35   18   23 ar
    36   18   19 ar
    37   19   20 ar
    38   20   21 ar
    39   20   40 1
    40   21   22 ar
    41   21   41 1
    42   22   23 ar
    43   22   42 1
    44   23   24 1
    45   24   25 1
    46   25   43 1
    47   25   44 1
    48   25   45 1
@<TRIPOS>MOLECULE
ZINC03814986
   46    49     0     0     0
SMALL
USER_CHARGES

@<TRIPOS>ATOM
      1 C1          0.6921    8.0342   -3.0702 C.3       1 <0>        -0.1702
      2 C2          0.7102    6.5689   -3.4219 C.ar      1 <0>         0.0662
      3 C3          1.1804    5.6362   -2.5347 C.ar      1 <0>        -0.1860
      4 C4          1.1922    4.2919   -2.8854 C.ar      1 <0>         0.2217
      5 N1          0.7510    3.8770   -4.0520 N.ar      1 <0>        -0.4940
      6 C5          0.2813    4.7349   -4.9580 C.ar      1 <0>         0.3988
      7 C6          0.2477    6.1205   -4.6643 C.ar      1 <0>        -0.2307
      8 C7         -0.2570    7.0089   -5.6460 C.ar      1 <0>         0.5806
      9 N2         -0.6754    6.5007   -6.7964 N.ar      1 <0>        -0.5713
     10 C8         -0.6267    5.1928   -7.0323 C.ar      1 <0>         0.6932
     11 N3         -1.0774    4.7240   -8.2515 N.pl3     1 <0>        -0.7785
     12 N4         -0.3111    8.3652   -5.4110 N.pl3     1 <0>        -0.8017
     13 C9          1.6894    6.0685   -1.1837 C.3       1 <0>         0.0789
     14 N5          0.9198    5.3921   -0.1311 N.pl3     1 <0>        -0.4557
     15 C10        -0.5277    5.4152   -0.4347 C.3       1 <0>         0.0400
     16 C11        -1.0294    4.1041    0.2127 C.3       1 <0>        -0.0742
     17 C12         0.2113    3.2335    0.2155 C.ar      1 <0>        -0.1747
     18 C13         1.3108    4.0532   -0.0051 C.ar      1 <0>         0.1135
     19 C14         2.5817    3.4830   -0.0626 C.ar      1 <0>        -0.1820
     20 C15         2.7428    2.1227    0.1036 C.ar      1 <0>        -0.0493
     21 C16         1.6463    1.3127    0.3290 C.ar      1 <0>        -0.2238
     22 C17         0.3753    1.8695    0.3799 C.ar      1 <0>         0.1718
     23 O1         -0.7064    1.0758    0.5957 O.3       1 <0>        -0.3138
     24 C18        -0.4625   -0.3224    0.7616 C.3       1 <0>         0.0244
     25 H1          1.5784    8.5175   -3.4813 H         1 <0>         0.1089
     26 H2         -0.2014    8.4973   -3.4887 H         1 <0>         0.1071
     27 H3          0.6863    8.1476   -1.9861 H         1 <0>         0.1084
     28 H4          1.5700    3.5678   -2.1787 H         1 <0>         0.1894
     29 H5         -1.4198    5.3450   -8.9134 H         1 <0>         0.4459
     30 H6         -1.0513    3.7740   -8.4455 H         1 <0>         0.4332
     31 H7          0.4262    8.8097   -4.9642 H         1 <0>         0.4366
     32 H8         -1.0864    8.8756   -5.6925 H         1 <0>         0.4311
     33 H9          1.5753    7.1476   -1.0808 H         1 <0>         0.1142
     34 H10         2.7427    5.8040   -1.0906 H         1 <0>         0.1112
     35 H11        -0.6972    5.4045   -1.5114 H         1 <0>         0.0551
     36 H12        -1.0078    6.2806    0.0221 H         1 <0>         0.1050
     37 H13        -1.8166    3.6522   -0.3908 H         1 <0>         0.0814
     38 H14        -1.3768    4.2842    1.2301 H         1 <0>         0.0935
     39 H15         3.4441    4.1088   -0.2384 H         1 <0>         0.1290
     40 H16         3.7308    1.6891    0.0576 H         1 <0>         0.1357
     41 H17         1.7770    0.2488    0.4607 H         1 <0>         0.1361
     42 H18        -1.4079   -0.8392    0.9262 H         1 <0>         0.1044
     43 H19         0.0159   -0.7166   -0.1350 H         1 <0>         0.0580
     44 H20         0.1908   -0.4778    1.6202 H         1 <0>         0.0606
     45 N6         -0.1652    4.2530   -6.1694 N.ar      1 <0>        -0.5886
     46 H21        -0.1663    3.2884   -6.4332 H         1 <0>         0.4609
@<TRIPOS>BOND
     1    1    2 1
     2    1   25 1
     3    1   26 1
     4    1   27 1
     5    2    7 ar
     6    2    3 ar
     7    3    4 ar
     8    3   13 1
     9    4    5 ar
    10    4   28 1
    11    5    6 ar
    12    6    7 ar
    13    6   45 ar
    14    7    8 ar
    15    8    9 ar
    16    8   12 1
    17    9   10 ar
    18   10   11 1
    19   10   45 ar
    20   11   29 1
    21   11   30 1
    22   12   31 1
    23   12   32 1
    24   13   14 1
    25   13   33 1
    26   13   34 1
    27   14   18 1
    28   14   15 1
    29   15   16 1
    30   15   35 1
    31   15   36 1
    32   16   17 1
    33   16   37 1
    34   16   38 1
    35   17   22 ar
    36   17   18 ar
    37   18   19 ar
    38   19   20 ar
    39   19   39 1
    40   20   21 ar
    41   20   40 1
    42   21   22 ar
    43   21   41 1
    44   22   23 1
    45   23   24 1
    46   24   42 1
    47   24   43 1
    48   24   44 1
    49   45   46 1
@<TRIPOS>MOLECULE
ZINC03814987
   49    52     0     0     0
SMALL
USER_CHARGES

@<TRIPOS>ATOM
      1 C1         -3.2724    3.8925    1.0963 C.3       1 <0>        -0.1618
      2 C2         -4.1492    3.1058    0.1564 C.ar      1 <0>         0.0459
      3 C3         -4.0242    1.7454    0.0472 C.ar      1 <0>        -0.1876
      4 C4         -4.8467    1.0427   -0.8245 C.ar      1 <0>         0.2129
      5 N1         -5.7489    1.6480   -1.5644 N.ar      1 <0>        -0.4885
      6 C5         -5.9163    2.9694   -1.5068 C.ar      1 <0>         0.4130
      7 C6         -5.1113    3.7435   -0.6350 C.ar      1 <0>        -0.2773
      8 C7         -5.3109    5.1457   -0.5951 C.ar      1 <0>         0.5224
      9 N2         -6.2441    5.6692   -1.3774 N.ar      1 <0>        -0.6167
     10 C8         -6.9787    4.9065   -2.1819 C.ar      1 <0>         0.6231
     11 N3         -6.8328    3.5970   -2.2575 N.ar      1 <0>        -0.5905
     12 N4         -7.9361    5.5115   -2.9735 N.pl3     1 <0>        -0.8114
     13 N5         -4.5547    5.9440    0.2346 N.pl3     1 <0>        -0.8459
     14 C9         -2.9986    1.0129    0.8735 C.3       1 <0>         0.0961
     15 N6         -3.5827    0.6530    2.1725 N.pl3     1 <0>        -0.4629
     16 C10        -3.8484    1.8589    2.9865 C.3       1 <0>         0.0314
     17 C11        -3.6587    1.3407    4.4305 C.3       1 <0>        -0.0812
     18 C12        -2.7147    0.1688    4.2472 C.ar      1 <0>        -0.1368
     19 C13        -2.7162   -0.1759    2.9011 C.ar      1 <0>         0.0993
     20 C14        -1.9134   -1.2287    2.4677 C.ar      1 <0>        -0.1904
     21 C15        -1.1291   -1.9240    3.3706 C.ar      1 <0>         0.1274
     22 C16        -1.1388   -1.5746    4.7173 C.ar      1 <0>         0.0786
     23 C17        -1.9355   -0.5266    5.1497 C.ar      1 <0>        -0.1318
     24 O1         -0.3691   -2.2596    5.6064 O.3       1 <0>        -0.3055
     25 C18        -0.4304   -1.8445    6.9724 C.3       1 <0>         0.0265
     26 O2         -0.3477   -2.9508    2.9412 O.3       1 <0>        -0.3029
     27 C19        -0.3013   -3.1856    1.5324 C.3       1 <0>         0.0245
     28 H1         -3.8101    4.0765    2.0264 H         1 <0>         0.0912
     29 H2         -2.3654    3.3260    1.3068 H         1 <0>         0.0843
     30 H3         -3.0076    4.8441    0.6353 H         1 <0>         0.1006
     31 H4         -4.7402   -0.0295   -0.8980 H         1 <0>         0.1663
     32 H5         -8.0607    6.4727   -2.9348 H         1 <0>         0.4159
     33 H6         -8.4836    4.9751   -3.5680 H         1 <0>         0.4187
     34 H7         -4.2298    6.8016   -0.0814 H         1 <0>         0.4105
     35 H8         -4.3470    5.6485    1.1349 H         1 <0>         0.4173
     36 H9         -2.6901    0.1076    0.3506 H         1 <0>         0.0925
     37 H10        -2.1321    1.6552    1.0302 H         1 <0>         0.0619
     38 H11        -3.1279    2.6448    2.7599 H         1 <0>         0.0757
     39 H12        -4.8682    2.2119    2.8332 H         1 <0>         0.0920
     40 H13        -3.2050    2.1071    5.0591 H         1 <0>         0.0818
     41 H14        -4.6088    1.0091    4.8495 H         1 <0>         0.0877
     42 H15        -1.9030   -1.5028    1.4231 H         1 <0>         0.1366
     43 H16        -1.9453   -0.2522    6.1942 H         1 <0>         0.1355
     44 H17         0.2287   -2.4716    7.5727 H         1 <0>         0.1006
     45 H18        -0.1132   -0.8046    7.0507 H         1 <0>         0.0535
     46 H19        -1.4536   -1.9406    7.3357 H         1 <0>         0.0541
     47 H20        -1.3125   -3.3409    1.1565 H         1 <0>         0.0566
     48 H21         0.1430   -2.3236    1.0348 H         1 <0>         0.0551
     49 H22         0.3011   -4.0715    1.3314 H         1 <0>         0.1018
@<TRIPOS>BOND
     1    1    2 1
     2    1   28 1
     3    1   29 1
     4    1   30 1
     5    2    7 ar
     6    2    3 ar
     7    3    4 ar
     8    3   14 1
     9    4    5 ar
    10    4   31 1
    11    5    6 ar
    12    6   11 ar
    13    6    7 ar
    14    7    8 ar
    15    8    9 ar
    16    8   13 1
    17    9   10 ar
    18   10   11 ar
    19   10   12 1
    20   12   32 1
    21   12   33 1
    22   13   34 1
    23   13   35 1
    24   14   15 1
    25   14   36 1
    26   14   37 1
    27   15   19 1
    28   15   16 1
    29   16   17 1
    30   16   38 1
    31   16   39 1
    32   17   18 1
    33   17   40 1
    34   17   41 1
    35   18   23 ar
    36   18   19 ar
    37   19   20 ar
    38   20   21 ar
    39   20   42 1
    40   21   22 ar
    41   21   26 1
    42   22   23 ar
    43   22   24 1
    44   23   43 1
    45   24   25 1
    46   25   44 1
    47   25   45 1
    48   25   46 1
    49   26   27 1
    50   27   47 1
    51   27   48 1
    52   27   49 1
@<TRIPOS>MOLECULE
ZINC03814987
   50    53     0     0     0
SMALL
USER_CHARGES

@<TRIPOS>ATOM
      1 C1         -3.2724    3.8925    1.0963 C.3       1 <0>        -0.1757
      2 C2         -4.1492    3.1058    0.1564 C.ar      1 <0>         0.0634
      3 C3         -4.0242    1.7454    0.0472 C.ar      1 <0>        -0.1447
      4 C4         -4.8467    1.0427   -0.8245 C.ar      1 <0>         0.2399
      5 N1         -5.7489    1.6480   -1.5644 N.ar      1 <0>        -0.4986
      6 C5         -5.9163    2.9694   -1.5068 C.ar      1 <0>         0.4016
      7 C6         -5.1113    3.7435   -0.6350 C.ar      1 <0>        -0.2296
      8 C7         -5.3109    5.1457   -0.5951 C.ar      1 <0>         0.5799
      9 N2         -6.2441    5.6692   -1.3774 N.ar      1 <0>        -0.5718
     10 C8         -6.9787    4.9065   -2.1819 C.ar      1 <0>         0.6933
     11 N3         -7.9361    5.5115   -2.9735 N.pl3     1 <0>        -0.7787
     12 N4         -4.5547    5.9440    0.2346 N.pl3     1 <0>        -0.8025
     13 C9         -2.9986    1.0129    0.8735 C.3       1 <0>         0.0811
     14 N5         -3.5827    0.6530    2.1725 N.pl3     1 <0>        -0.4616
     15 C10        -3.8484    1.8589    2.9865 C.3       1 <0>         0.0265
     16 C11        -3.6587    1.3407    4.4305 C.3       1 <0>        -0.0817
     17 C12        -2.7147    0.1688    4.2472 C.ar      1 <0>        -0.1300
     18 C13        -2.7162   -0.1759    2.9011 C.ar      1 <0>         0.0839
     19 C14        -1.9134   -1.2287    2.4677 C.ar      1 <0>        -0.1859
     20 C15        -1.1291   -1.9240    3.3706 C.ar      1 <0>         0.1279
     21 C16        -1.1388   -1.5746    4.7173 C.ar      1 <0>         0.0912
     22 C17        -1.9355   -0.5266    5.1497 C.ar      1 <0>        -0.1341
     23 O1         -0.3691   -2.2596    5.6064 O.3       1 <0>        -0.3025
     24 C18        -0.4304   -1.8445    6.9724 C.3       1 <0>         0.0248
     25 O2         -0.3477   -2.9508    2.9412 O.3       1 <0>        -0.2996
     26 C19        -0.3013   -3.1856    1.5324 C.3       1 <0>         0.0245
     27 H1         -3.8101    4.0765    2.0264 H         1 <0>         0.1101
     28 H2         -2.3654    3.3260    1.3068 H         1 <0>         0.1055
     29 H3         -3.0076    4.8441    0.6353 H         1 <0>         0.1072
     30 H4         -4.7402   -0.0295   -0.8980 H         1 <0>         0.1918
     31 H5         -8.0607    6.4727   -2.9348 H         1 <0>         0.4458
     32 H6         -8.4836    4.9751   -3.5680 H         1 <0>         0.4333
     33 H7         -4.2298    6.8016   -0.0814 H         1 <0>         0.4310
     34 H8         -4.3470    5.6485    1.1349 H         1 <0>         0.4355
     35 H9         -2.6901    0.1076    0.3506 H         1 <0>         0.1045
     36 H10        -2.1321    1.6552    1.0302 H         1 <0>         0.0735
     37 H11        -3.1279    2.6448    2.7599 H         1 <0>         0.0742
     38 H12        -4.8682    2.2119    2.8332 H         1 <0>         0.0908
     39 H13        -3.2050    2.1071    5.0591 H         1 <0>         0.0856
     40 H14        -4.6088    1.0091    4.8495 H         1 <0>         0.0908
     41 H15        -1.9030   -1.5028    1.4231 H         1 <0>         0.1363
     42 H16        -1.9453   -0.2522    6.1942 H         1 <0>         0.1389
     43 H17         0.2287   -2.4716    7.5727 H         1 <0>         0.1046
     44 H18        -0.1132   -0.8046    7.0507 H         1 <0>         0.0554
     45 H19        -1.4536   -1.9406    7.3357 H         1 <0>         0.0562
     46 H20        -1.3125   -3.3409    1.1565 H         1 <0>         0.0559
     47 H21         0.1430   -2.3236    1.0348 H         1 <0>         0.0550
     48 H22         0.3011   -4.0715    1.3314 H         1 <0>         0.1049
     49 N6         -6.8746    3.5591   -2.3025 N.ar      1 <0>        -0.5889
     50 H23        -7.4708    3.0663   -2.9362 H         1 <0>         0.4612
@<TRIPOS>BOND
     1    1    2 1
     2    1   27 1
     3    1   28 1
     4    1   29 1
     5    2    7 ar
     6    2    3 ar
     7    3    4 ar
     8    3   13 1
     9    4    5 ar
    10    4   30 1
    11    5    6 ar
    12    6    7 ar
    13    6   49 ar
    14    7    8 ar
    15    8    9 ar
    16    8   12 1
    17    9   10 ar
    18   10   11 1
    19   10   49 ar
    20   11   31 1
    21   11   32 1
    22   12   33 1
    23   12   34 1
    24   13   14 1
    25   13   35 1
    26   13   36 1
    27   14   18 1
    28   14   15 1
    29   15   16 1
    30   15   37 1
    31   15   38 1
    32   16   17 1
    33   16   39 1
    34   16   40 1
    35   17   22 ar
    36   17   18 ar
    37   18   19 ar
    38   19   20 ar
    39   19   41 1
    40   20   21 ar
    41   20   25 1
    42   21   22 ar
    43   21   23 1
    44   22   42 1
    45   23   24 1
    46   24   43 1
    47   24   44 1
    48   24   45 1
    49   25   26 1
    50   26   46 1
    51   26   47 1
    52   26   48 1
    53   49   50 1
@<TRIPOS>MOLECULE
ZINC03814988
   49    51     0     0     0
SMALL
USER_CHARGES

@<TRIPOS>ATOM
      1 C1         -3.3899   -3.2499   -0.0931 C.3       1 <0>         0.0170
      2 O1         -3.7717   -3.1736    1.2818 O.3       1 <0>        -0.2884
      3 C2         -4.3229   -2.0046    1.7057 C.ar      1 <0>         0.1488
      4 C3         -4.4920   -0.9543    0.8163 C.ar      1 <0>        -0.1760
      5 C4         -5.0516    0.2344    1.2458 C.ar      1 <0>        -0.0837
      6 C5         -5.4398    0.3832    2.5650 C.ar      1 <0>        -0.1400
      7 C6         -5.2790   -0.6649    3.4593 C.ar      1 <0>         0.1596
      8 C7         -4.7167   -1.8614    3.0307 C.ar      1 <0>         0.0813
      9 O2         -4.5518   -2.8900    3.9064 O.3       1 <0>        -0.3144
     10 C8         -5.6100   -3.8466    3.9903 C.3       1 <0>         0.0359
     11 O3         -5.6661   -0.5199    4.7551 O.3       1 <0>        -0.3148
     12 C9         -4.6761   -0.0679    5.6812 C.3       1 <0>         0.0353
     13 Br1        -6.1970    2.0148    3.1484 Br        1 <0>        -0.0114
     14 C10        -5.2335    1.3732    0.2758 C.3       1 <0>         0.0402
     15 C11        -4.5740    3.6699   -0.1279 C.3       1 <0>         0.0007
     16 C12        -3.7091    4.7872    0.4577 C.3       1 <0>        -0.1015
     17 C13        -2.2610    4.3754    0.4411 C.ar      1 <0>         0.2586
     18 C14        -1.8855    3.0623    0.2798 C.ar      1 <0>        -0.3753
     19 C15        -0.5219    2.7504    0.2869 C.ar      1 <0>         0.5161
     20 N1          0.3636    3.7298    0.4351 N.ar      1 <0>        -0.6168
     21 C16        -0.0381    4.9835    0.5795 C.ar      1 <0>         0.6299
     22 N2         -1.3226    5.3046    0.5837 N.ar      1 <0>        -0.5921
     23 N3          0.9079    5.9825    0.7293 N.pl3     1 <0>        -0.8028
     24 N4         -0.1005    1.4394    0.1359 N.pl3     1 <0>        -0.8271
     25 C17        -2.8914    1.9581    0.1088 C.3       1 <0>         0.0762
     26 H1         -4.2659   -3.0939   -0.7226 H         1 <0>         0.0647
     27 H2         -2.6472   -2.4813   -0.3071 H         1 <0>         0.0612
     28 H3         -2.9653   -4.2326   -0.2983 H         1 <0>         0.1156
     29 H4         -4.1864   -1.0652   -0.2136 H         1 <0>         0.1568
     30 H5         -5.3175   -4.6541    4.6615 H         1 <0>         0.1061
     31 H6         -6.5080   -3.3624    4.3741 H         1 <0>         0.0562
     32 H7         -5.8118   -4.2530    2.9992 H         1 <0>         0.0524
     33 H8         -4.3691    0.9447    5.4194 H         1 <0>         0.0514
     34 H9         -5.0920   -0.0724    6.6887 H         1 <0>         0.1103
     35 H10        -3.8120   -0.7312    5.6419 H         1 <0>         0.0598
     36 H11        -6.2287    1.8005    0.3996 H         1 <0>         0.1491
     37 H12        -5.1210    1.0038   -0.7435 H         1 <0>         0.1523
     38 H13        -5.6267    3.8932    0.0452 H         1 <0>         0.1448
     39 H14        -4.3889    3.5870   -1.1989 H         1 <0>         0.1429
     40 H15        -4.0179    4.9840    1.4843 H         1 <0>         0.1177
     41 H16        -3.8351    5.6921   -0.1368 H         1 <0>         0.1421
     42 H17         1.8522    5.7605    0.7276 H         1 <0>         0.4223
     43 H18         0.6268    6.9047    0.8359 H         1 <0>         0.4230
     44 H19         0.8469    1.2313    0.1378 H         1 <0>         0.4193
     45 H20        -0.7528    0.7297    0.0282 H         1 <0>         0.4098
     46 H21        -2.5908    1.0974    0.7063 H         1 <0>         0.1214
     47 H22        -2.9283    1.6721   -0.9424 H         1 <0>         0.1352
     48 N5         -4.2185    2.4124    0.5605 N.4       1 <0>        -0.3942
     49 H23        -4.1884    2.5815    1.5728 H         1 <0>         0.4244
@<TRIPOS>BOND
     1    1    2 1
     2    1   26 1
     3    1   27 1
     4    1   28 1
     5    2    3 1
     6    3    8 ar
     7    3    4 ar
     8    4    5 ar
     9    4   29 1
    10    5    6 ar
    11    5   14 1
    12    6    7 ar
    13    6   13 1
    14    7    8 ar
    15    7   11 1
    16    8    9 1
    17    9   10 1
    18   10   30 1
    19   10   31 1
    20   10   32 1
    21   11   12 1
    22   12   33 1
    23   12   34 1
    24   12   35 1
    25   14   36 1
    26   14   37 1
    27   14   48 1
    28   15   16 1
    29   15   38 1
    30   15   39 1
    31   15   48 1
    32   16   17 1
    33   16   40 1
    34   16   41 1
    35   17   22 ar
    36   17   18 ar
    37   18   19 ar
    38   18   25 1
    39   19   20 ar
    40   19   24 1
    41   20   21 ar
    42   21   22 ar
    43   21   23 1
    44   23   42 1
    45   23   43 1
    46   24   44 1
    47   24   45 1
    48   25   46 1
    49   25   47 1
    50   25   48 1
    51   48   49 1
@<TRIPOS>MOLECULE
ZINC03814988
   50    52     0     0     0
SMALL
USER_CHARGES

@<TRIPOS>ATOM
      1 C1         -3.3899   -3.2499   -0.0931 C.3       1 <0>         0.0167
      2 O1         -3.7717   -3.1736    1.2818 O.3       1 <0>        -0.2850
      3 C2         -4.3229   -2.0046    1.7057 C.ar      1 <0>         0.1503
      4 C3         -4.4920   -0.9543    0.8163 C.ar      1 <0>        -0.1785
      5 C4         -5.0516    0.2344    1.2458 C.ar      1 <0>        -0.0970
      6 C5         -5.4398    0.3832    2.5650 C.ar      1 <0>        -0.1417
      7 C6         -5.2790   -0.6649    3.4593 C.ar      1 <0>         0.1617
      8 C7         -4.7167   -1.8614    3.0307 C.ar      1 <0>         0.0887
      9 O2         -4.5518   -2.8900    3.9064 O.3       1 <0>        -0.3147
     10 C8         -5.6100   -3.8466    3.9903 C.3       1 <0>         0.0352
     11 O3         -5.6661   -0.5199    4.7551 O.3       1 <0>        -0.3127
     12 C9         -4.6761   -0.0679    5.6812 C.3       1 <0>         0.0360
     13 Br1        -6.1970    2.0148    3.1484 Br        1 <0>        -0.0120
     14 C10        -5.2335    1.3732    0.2758 C.3       1 <0>         0.0418
     15 C11        -4.5740    3.6699   -0.1279 C.3       1 <0>        -0.0021
     16 C12        -3.7091    4.7872    0.4577 C.3       1 <0>        -0.1387
     17 C13        -2.2610    4.3754    0.4411 C.ar      1 <0>         0.2558
     18 C14        -1.8855    3.0623    0.2798 C.ar      1 <0>        -0.2804
     19 C15        -0.5219    2.7504    0.2869 C.ar      1 <0>         0.5557
     20 N1          0.3636    3.7298    0.4351 N.ar      1 <0>        -0.5534
     21 C16        -0.0381    4.9835    0.5795 C.ar      1 <0>         0.6827
     22 N2          0.9079    5.9825    0.7293 N.pl3     1 <0>        -0.7692
     23 N3         -0.1005    1.4394    0.1359 N.pl3     1 <0>        -0.7671
     24 C17        -2.8914    1.9581    0.1088 C.3       1 <0>         0.0567
     25 H1         -4.2659   -3.0939   -0.7226 H         1 <0>         0.0668
     26 H2         -2.6472   -2.4813   -0.3071 H         1 <0>         0.0588
     27 H3         -2.9653   -4.2326   -0.2983 H         1 <0>         0.1190
     28 H4         -4.1864   -1.0652   -0.2136 H         1 <0>         0.1580
     29 H5         -5.3175   -4.6541    4.6615 H         1 <0>         0.1103
     30 H6         -6.5080   -3.3624    4.3741 H         1 <0>         0.0586
     31 H7         -5.8118   -4.2530    2.9992 H         1 <0>         0.0547
     32 H8         -4.3691    0.9447    5.4194 H         1 <0>         0.0489
     33 H9         -5.0920   -0.0724    6.6887 H         1 <0>         0.1134
     34 H10        -3.8120   -0.7312    5.6419 H         1 <0>         0.0610
     35 H11        -6.2287    1.8005    0.3996 H         1 <0>         0.1570
     36 H12        -5.1210    1.0038   -0.7435 H         1 <0>         0.1599
     37 H13        -5.6267    3.8932    0.0452 H         1 <0>         0.1644
     38 H14        -4.3889    3.5870   -1.1989 H         1 <0>         0.1569
     39 H15        -4.0179    4.9840    1.4843 H         1 <0>         0.1471
     40 H16        -3.8351    5.6921   -0.1368 H         1 <0>         0.1633
     41 H17         1.8522    5.7605    0.7276 H         1 <0>         0.4512
     42 H18         0.6268    6.9047    0.8359 H         1 <0>         0.4374
     43 H19         0.8469    1.2313    0.1378 H         1 <0>         0.4409
     44 H20        -0.7528    0.7297    0.0282 H         1 <0>         0.4298
     45 H21        -2.5908    1.0974    0.7063 H         1 <0>         0.1467
     46 H22        -2.9283    1.6721   -0.9424 H         1 <0>         0.1638
     47 N4         -4.2185    2.4124    0.5605 N.4       1 <0>        -0.4002
     48 H23        -4.1884    2.5815    1.5728 H         1 <0>         0.4278
     49 N5         -1.3427    5.3766    0.5922 N.ar      1 <0>        -0.5929
     50 H24        -1.6478    6.3226    0.7020 H         1 <0>         0.4685
@<TRIPOS>BOND
     1    1    2 1
     2    1   25 1
     3    1   26 1
     4    1   27 1
     5    2    3 1
     6    3    8 ar
     7    3    4 ar
     8    4    5 ar
     9    4   28 1
    10    5    6 ar
    11    5   14 1
    12    6    7 ar
    13    6   13 1
    14    7    8 ar
    15    7   11 1
    16    8    9 1
    17    9   10 1
    18   10   29 1
    19   10   30 1
    20   10   31 1
    21   11   12 1
    22   12   32 1
    23   12   33 1
    24   12   34 1
    25   14   35 1
    26   14   36 1
    27   14   47 1
    28   15   16 1
    29   15   37 1
    30   15   38 1
    31   15   47 1
    32   16   17 1
    33   16   39 1
    34   16   40 1
    35   17   18 ar
    36   17   49 ar
    37   18   19 ar
    38   18   24 1
    39   19   20 ar
    40   19   23 1
    41   20   21 ar
    42   21   22 1
    43   21   49 ar
    44   22   41 1
    45   22   42 1
    46   23   43 1
    47   23   44 1
    48   24   45 1
    49   24   46 1
    50   24   47 1
    51   47   48 1
    52   49   50 1
@<TRIPOS>MOLECULE
ZINC03814989
   52    54     0     0     0
SMALL
USER_CHARGES

@<TRIPOS>ATOM
      1 C1          4.9283    5.6874    0.0197 C.3       1 <0>         0.0910
      2 N1          4.8224    4.2266   -0.0141 N.pl3     1 <0>        -0.6309
      3 C2          6.0348    3.4047   -0.0418 C.3       1 <0>         0.1910
      4 C3          6.4954    3.2368   -1.4668 C.2       1 <0>        -0.1536
      5 C4          5.9720    3.8159   -2.5564 C.2       1 <0>         0.0025
      6 O1          6.6485    3.4299   -3.6548 O.3       1 <0>        -0.1775
      7 C5          7.6362    2.5769   -3.3360 C.ar      1 <0>         0.3677
      8 C6          7.6017    2.4025   -1.9424 C.ar      1 <0>        -0.3276
      9 C7          8.5380    1.5496   -1.3412 C.ar      1 <0>         0.5321
     10 N2          9.4263    0.9372   -2.1185 N.ar      1 <0>        -0.6308
     11 C8          9.4271    1.1274   -3.4315 C.ar      1 <0>         0.6342
     12 N3          8.5602    1.9237   -4.0355 N.ar      1 <0>        -0.5976
     13 N4         10.3720    0.4676   -4.1992 N.pl3     1 <0>        -0.8155
     14 N5          8.5385    1.3508    0.0274 N.pl3     1 <0>        -0.8243
     15 C9          3.5711    3.6202   -0.0198 C.ar      1 <0>         0.2172
     16 C10         2.4199    4.4026    0.0066 C.ar      1 <0>        -0.2022
     17 C11         1.1801    3.8056    0.0000 C.ar      1 <0>        -0.0180
     18 C12         1.0773    2.4118   -0.0327 C.ar      1 <0>        -0.1597
     19 C13         2.2352    1.6287   -0.0533 C.ar      1 <0>        -0.0374
     20 C14         3.4721    2.2319   -0.0524 C.ar      1 <0>        -0.1975
     21 C15        -0.2502    1.7685   -0.0392 C.2       1 <0>         0.5571
     22 O2         -1.2565    2.4508   -0.0212 O.2       1 <0>        -0.5570
     23 N6         -0.3477    0.4246   -0.0708 N.am      1 <0>        -0.6857
     24 C16        -1.6660   -0.2143   -0.0773 C.3       1 <0>         0.1003
     25 H1         -2.3640    0.3987   -0.6476 H         1 <0>         0.0857
     26 C17        -1.5589   -1.5981   -0.7210 C.3       1 <0>        -0.0862
     27 C18        -1.1751   -1.4470   -2.1943 C.3       1 <0>        -0.1528
     28 C19        -1.0696   -2.8101   -2.8283 C.2       1 <0>         0.4613
     29 O3         -1.2799   -3.8008   -2.1694 O.co2     1 <0>        -0.6391
     30 C20        -2.1626   -0.3558    1.3385 C.2       1 <0>         0.4651
     31 O4         -1.4849    0.0367    2.2585 O.co2     1 <0>        -0.6399
     32 H2          4.8620    6.0327    1.0515 H         1 <0>         0.0508
     33 H3          5.8849    5.9922   -0.4046 H         1 <0>         0.0665
     34 H4          4.1169    6.1241   -0.5625 H         1 <0>         0.0695
     35 H5          6.8181    3.8929    0.5381 H         1 <0>         0.0851
     36 H6          5.8205    2.4264    0.3884 H         1 <0>         0.0934
     37 H7          5.1322    4.4950   -2.5534 H         1 <0>         0.2109
     38 H8         10.3894    0.5936   -5.1608 H         1 <0>         0.4160
     39 H9         11.0164   -0.1206   -3.7753 H         1 <0>         0.4161
     40 H10         7.9347    1.8589    0.5915 H         1 <0>         0.4125
     41 H11         9.1426    0.7033    0.4233 H         1 <0>         0.4102
     42 H12         2.4999    5.4794    0.0318 H         1 <0>         0.1241
     43 H13         0.2874    4.4131    0.0198 H         1 <0>         0.1340
     44 H14         2.1591    0.5516   -0.0744 H         1 <0>         0.1278
     45 H15         4.3670    1.6277   -0.0732 H         1 <0>         0.1223
     46 H16         0.4551   -0.1196   -0.0891 H         1 <0>         0.3899
     47 H17        -0.7961   -2.1809   -0.2047 H         1 <0>         0.0566
     48 H18        -2.5189   -2.1089   -0.6462 H         1 <0>         0.0844
     49 H19        -1.9379   -0.8642   -2.7106 H         1 <0>         0.0607
     50 H20        -0.2151   -0.9362   -2.2691 H         1 <0>         0.0574
     51 O5         -0.7421   -2.9236   -4.1251 O.co2     1 <0>        -0.7905
     52 O6         -3.3579   -0.9179    1.5774 O.co2     1 <0>        -0.7698
@<TRIPOS>BOND
     1    1    2 1
     2    1   32 1
     3    1   33 1
     4    1   34 1
     5    2    3 1
     6    2   15 1
     7    3    4 1
     8    3   35 1
     9    3   36 1
    10    4    8 1
    11    4    5 2
    12    5    6 1
    13    5   37 1
    14    6    7 1
    15    7   12 ar
    16    7    8 ar
    17    8    9 ar
    18    9   10 ar
    19    9   14 1
    20   10   11 ar
    21   11   12 ar
    22   11   13 1
    23   13   38 1
    24   13   39 1
    25   14   40 1
    26   14   41 1
    27   15   20 ar
    28   15   16 ar
    29   16   17 ar
    30   16   42 1
    31   17   18 ar
    32   17   43 1
    33   18   19 ar
    34   18   21 1
    35   19   20 ar
    36   19   44 1
    37   20   45 1
    38   21   22 2
    39   21   23 am
    40   23   24 1
    41   23   46 1
    42   24   25 1
    43   24   26 1
    44   24   30 1
    45   26   27 1
    46   26   47 1
    47   26   48 1
    48   27   28 1
    49   27   49 1
    50   27   50 1
    51   28   29 2
    52   28   51 1
    53   30   31 2
    54   30   52 1
@<TRIPOS>MOLECULE
ZINC03814989
   53    55     0     0     0
SMALL
USER_CHARGES

@<TRIPOS>ATOM
      1 C1          4.9283    5.6874    0.0197 C.3       1 <0>         0.0868
      2 N1          4.8224    4.2266   -0.0141 N.pl3     1 <0>        -0.6336
      3 C2          6.0348    3.4047   -0.0418 C.3       1 <0>         0.1817
      4 C3          6.4954    3.2368   -1.4668 C.2       1 <0>        -0.1328
      5 C4          5.9720    3.8159   -2.5564 C.2       1 <0>         0.0348
      6 O1          6.6485    3.4299   -3.6548 O.3       1 <0>        -0.1503
      7 C5          7.6362    2.5769   -3.3360 C.ar      1 <0>         0.3129
      8 C6          7.6017    2.4025   -1.9424 C.ar      1 <0>        -0.2544
      9 C7          8.5380    1.5496   -1.3412 C.ar      1 <0>         0.5828
     10 N2          9.4263    0.9372   -2.1185 N.ar      1 <0>        -0.5707
     11 C8          9.4271    1.1274   -3.4315 C.ar      1 <0>         0.7014
     12 N3         10.3720    0.4676   -4.1992 N.pl3     1 <0>        -0.7860
     13 N4          8.5385    1.3508    0.0274 N.pl3     1 <0>        -0.7662
     14 C9          3.5711    3.6202   -0.0198 C.ar      1 <0>         0.2025
     15 C10         2.4199    4.4026    0.0066 C.ar      1 <0>        -0.1931
     16 C11         1.1801    3.8056    0.0000 C.ar      1 <0>        -0.0173
     17 C12         1.0773    2.4118   -0.0327 C.ar      1 <0>        -0.1461
     18 C13         2.2352    1.6287   -0.0533 C.ar      1 <0>        -0.0399
     19 C14         3.4721    2.2319   -0.0524 C.ar      1 <0>        -0.1984
     20 C15        -0.2502    1.7685   -0.0392 C.2       1 <0>         0.5515
     21 O2         -1.2565    2.4508   -0.0212 O.2       1 <0>        -0.5502
     22 N5         -0.3477    0.4246   -0.0708 N.am      1 <0>        -0.6829
     23 C16        -1.6660   -0.2143   -0.0773 C.3       1 <0>         0.0994
     24 H1         -2.3640    0.3987   -0.6476 H         1 <0>         0.0872
     25 C17        -1.5589   -1.5981   -0.7210 C.3       1 <0>        -0.0871
     26 C18        -1.1751   -1.4470   -2.1943 C.3       1 <0>        -0.1516
     27 C19        -1.0696   -2.8101   -2.8283 C.2       1 <0>         0.4602
     28 O3         -1.2799   -3.8008   -2.1694 O.co2     1 <0>        -0.6360
     29 C20        -2.1626   -0.3558    1.3385 C.2       1 <0>         0.4643
     30 O4         -1.4849    0.0367    2.2585 O.co2     1 <0>        -0.6412
     31 H2          4.8620    6.0327    1.0515 H         1 <0>         0.0573
     32 H3          5.8849    5.9922   -0.4046 H         1 <0>         0.0662
     33 H4          4.1169    6.1241   -0.5625 H         1 <0>         0.0745
     34 H5          6.8181    3.8929    0.5381 H         1 <0>         0.0979
     35 H6          5.8205    2.4264    0.3884 H         1 <0>         0.1038
     36 H7          5.1322    4.4950   -2.5534 H         1 <0>         0.2367
     37 H8         10.3894    0.5936   -5.1608 H         1 <0>         0.4312
     38 H9         11.0164   -0.1206   -3.7753 H         1 <0>         0.4456
     39 H10         7.9347    1.8589    0.5915 H         1 <0>         0.4321
     40 H11         9.1426    0.7033    0.4233 H         1 <0>         0.4319
     41 H12         2.4999    5.4794    0.0318 H         1 <0>         0.1271
     42 H13         0.2874    4.4131    0.0198 H         1 <0>         0.1385
     43 H14         2.1591    0.5516   -0.0744 H         1 <0>         0.1304
     44 H15         4.3670    1.6277   -0.0732 H         1 <0>         0.1185
     45 H16         0.4551   -0.1196   -0.0891 H         1 <0>         0.3886
     46 H17        -0.7961   -2.1809   -0.2047 H         1 <0>         0.0567
     47 H18        -2.5189   -2.1089   -0.6462 H         1 <0>         0.0867
     48 H19        -1.9379   -0.8642   -2.7106 H         1 <0>         0.0614
     49 H20        -0.2151   -0.9362   -2.2691 H         1 <0>         0.0543
     50 O5         -0.7421   -2.9236   -4.1251 O.co2     1 <0>        -0.7916
     51 O6         -3.3579   -0.9179    1.5774 O.co2     1 <0>        -0.7645
     52 N6          8.5632    1.9318   -4.1081 N.ar      1 <0>        -0.5709
     53 H21         8.5716    2.0691   -5.0986 H         1 <0>         0.4599
@<TRIPOS>BOND
     1    1    2 1
     2    1   31 1
     3    1   32 1
     4    1   33 1
     5    2    3 1
     6    2   14 1
     7    3    4 1
     8    3   34 1
     9    3   35 1
    10    4    8 1
    11    4    5 2
    12    5    6 1
    13    5   36 1
    14    6    7 1
    15    7    8 ar
    16    7   52 ar
    17    8    9 ar
    18    9   10 ar
    19    9   13 1
    20   10   11 ar
    21   11   12 1
    22   11   52 ar
    23   12   37 1
    24   12   38 1
    25   13   39 1
    26   13   40 1
    27   14   19 ar
    28   14   15 ar
    29   15   16 ar
    30   15   41 1
    31   16   17 ar
    32   16   42 1
    33   17   18 ar
    34   17   20 1
    35   18   19 ar
    36   18   43 1
    37   19   44 1
    38   20   21 2
    39   20   22 am
    40   22   23 1
    41   22   45 1
    42   23   24 1
    43   23   25 1
    44   23   29 1
    45   25   26 1
    46   25   46 1
    47   25   47 1
    48   26   27 1
    49   26   48 1
    50   26   49 1
    51   27   28 2
    52   27   50 1
    53   29   30 2
    54   29   51 1
    55   52   53 1
@<TRIPOS>MOLECULE
ZINC03814990
   50    52     0     0     0
SMALL
USER_CHARGES

@<TRIPOS>ATOM
      1 C1          2.4720    1.4175   -0.0081 C.ar      1 <0>        -0.0359
      2 C2          3.6525    2.1246   -0.0209 C.ar      1 <0>        -0.2053
      3 C3          3.6320    3.5166   -0.0132 C.ar      1 <0>         0.2223
      4 C4          2.4178    4.1976    0.0020 C.ar      1 <0>        -0.2042
      5 C5          1.2339    3.4963    0.0091 C.ar      1 <0>        -0.0164
      6 C6          1.2512    2.0985    0.0014 C.ar      1 <0>        -0.1653
      7 C7         -0.0162    1.3436    0.0094 C.2       1 <0>         0.5574
      8 O1         -1.0774    1.9372    0.0177 O.2       1 <0>        -0.5581
      9 N1          0.0021   -0.0041    0.0020 N.am      1 <0>        -0.6861
     10 C8         -1.2565   -0.7538    0.0100 C.3       1 <0>         0.1004
     11 H1         -2.0051   -0.2133   -0.5694 H         1 <0>         0.0854
     12 C9         -1.0316   -2.1346   -0.6092 C.3       1 <0>        -0.0862
     13 C10        -0.6634   -1.9775   -2.0859 C.3       1 <0>        -0.1526
     14 C11        -0.4418   -3.3377   -2.6958 C.2       1 <0>         0.4613
     15 O2         -0.5657   -4.3308   -2.0189 O.co2     1 <0>        -0.6389
     16 C12        -1.7380   -0.9120    1.4292 C.2       1 <0>         0.4649
     17 O3         -1.0956   -0.4464    2.3405 O.co2     1 <0>        -0.6398
     18 N2          4.8266    4.2281   -0.0213 N.pl3     1 <0>        -0.7435
     19 C13         6.1050    3.5130   -0.0373 C.3       1 <0>         0.1933
     20 C14         7.2370    4.5078   -0.0433 C.2       1 <0>        -0.1388
     21 C15         7.9552    4.8964   -1.1088 C.2       1 <0>         0.0492
     22 N3          8.8967    5.8179   -0.7235 N.pl3     1 <0>        -0.5703
     23 H2          9.5323    6.2459   -1.3183 H         1 <0>         0.4204
     24 C16         8.8106    6.0397    0.6234 C.ar      1 <0>         0.3849
     25 C17         7.7686    5.2306    1.1118 C.ar      1 <0>        -0.2977
     26 C18         7.4684    5.2692    2.4823 C.ar      1 <0>         0.5308
     27 N4          8.1831    6.0715    3.2646 N.ar      1 <0>        -0.6416
     28 C19         9.1592    6.8197    2.7658 C.ar      1 <0>         0.6279
     29 N5          9.4742    6.8132    1.4816 N.ar      1 <0>        -0.6292
     30 N6          9.8750    7.6389    3.6230 N.pl3     1 <0>        -0.8239
     31 N7          6.4521    4.4912    3.0063 N.pl3     1 <0>        -0.8218
     32 H3          2.4886    0.3376   -0.0099 H         1 <0>         0.1276
     33 H4          4.5960    1.5991   -0.0331 H         1 <0>         0.1229
     34 H5          2.4051    5.2775    0.0079 H         1 <0>         0.1191
     35 H6          0.2923    4.0252    0.0202 H         1 <0>         0.1324
     36 H7          0.8486   -0.4776   -0.0086 H         1 <0>         0.3900
     37 H8         -0.2211   -2.6405   -0.0845 H         1 <0>         0.0568
     38 H9         -1.9441   -2.7245   -0.5230 H         1 <0>         0.0841
     39 H10        -1.4739   -1.4717   -2.6106 H         1 <0>         0.0605
     40 H11         0.2491   -1.3877   -2.1721 H         1 <0>         0.0579
     41 H12         4.8134    5.1980   -0.0162 H         1 <0>         0.3989
     42 H13         6.1799    2.8827    0.8488 H         1 <0>         0.0639
     43 H14         6.1626    2.8917   -0.9310 H         1 <0>         0.0749
     44 H15         7.8120    4.5395   -2.1180 H         1 <0>         0.1807
     45 H16        10.5920    8.1936    3.2778 H         1 <0>         0.4115
     46 H17         9.6593    7.6580    4.5685 H         1 <0>         0.4133
     47 H18         5.9372    3.9101    2.4248 H         1 <0>         0.4169
     48 H19         6.2542    4.5267    3.9552 H         1 <0>         0.4080
     49 O4         -0.1069   -3.4459   -3.9912 O.co2     1 <0>        -0.7912
     50 O5         -2.8803   -1.5703    1.6810 O.co2     1 <0>        -0.7703
@<TRIPOS>BOND
     1    1    6 ar
     2    1    2 ar
     3    1   32 1
     4    2    3 ar
     5    2   33 1
     6    3    4 ar
     7    3   18 1
     8    4    5 ar
     9    4   34 1
    10    5    6 ar
    11    5   35 1
    12    6    7 1
    13    7    8 2
    14    7    9 am
    15    9   10 1
    16    9   36 1
    17   10   11 1
    18   10   12 1
    19   10   16 1
    20   12   13 1
    21   12   37 1
    22   12   38 1
    23   13   14 1
    24   13   39 1
    25   13   40 1
    26   14   15 2
    27   14   49 1
    28   16   17 2
    29   16   50 1
    30   18   19 1
    31   18   41 1
    32   19   20 1
    33   19   42 1
    34   19   43 1
    35   20   25 1
    36   20   21 2
    37   21   22 1
    38   21   44 1
    39   22   23 1
    40   22   24 1
    41   24   29 ar
    42   24   25 ar
    43   25   26 ar
    44   26   27 ar
    45   26   31 1
    46   27   28 ar
    47   28   29 ar
    48   28   30 1
    49   30   45 1
    50   30   46 1
    51   31   47 1
    52   31   48 1
@<TRIPOS>MOLECULE
ZINC03814990
   51    53     0     0     0
SMALL
USER_CHARGES

@<TRIPOS>ATOM
      1 C1          2.4720    1.4175   -0.0081 C.ar      1 <0>        -0.0382
      2 C2          3.6525    2.1246   -0.0209 C.ar      1 <0>        -0.2000
      3 C3          3.6320    3.5166   -0.0132 C.ar      1 <0>         0.2064
      4 C4          2.4178    4.1976    0.0020 C.ar      1 <0>        -0.1956
      5 C5          1.2339    3.4963    0.0091 C.ar      1 <0>        -0.0182
      6 C6          1.2512    2.0985    0.0014 C.ar      1 <0>        -0.1490
      7 C7         -0.0162    1.3436    0.0094 C.2       1 <0>         0.5519
      8 O1         -1.0774    1.9372    0.0177 O.2       1 <0>        -0.5527
      9 N1          0.0021   -0.0041    0.0020 N.am      1 <0>        -0.6825
     10 C8         -1.2565   -0.7538    0.0100 C.3       1 <0>         0.0994
     11 H1         -2.0051   -0.2133   -0.5694 H         1 <0>         0.0870
     12 C9         -1.0316   -2.1346   -0.6092 C.3       1 <0>        -0.0870
     13 C10        -0.6634   -1.9775   -2.0859 C.3       1 <0>        -0.1521
     14 C11        -0.4418   -3.3377   -2.6958 C.2       1 <0>         0.4602
     15 O2         -0.5657   -4.3308   -2.0189 O.co2     1 <0>        -0.6372
     16 C12        -1.7380   -0.9120    1.4292 C.2       1 <0>         0.4650
     17 O3         -1.0956   -0.4464    2.3405 O.co2     1 <0>        -0.6427
     18 N2          4.8266    4.2281   -0.0213 N.pl3     1 <0>        -0.7525
     19 C13         6.1050    3.5130   -0.0373 C.3       1 <0>         0.1833
     20 C14         7.2370    4.5078   -0.0433 C.2       1 <0>        -0.1046
     21 C15         7.9552    4.8964   -1.1088 C.2       1 <0>         0.0696
     22 N3          8.8967    5.8179   -0.7235 N.pl3     1 <0>        -0.5408
     23 H2          9.5323    6.2459   -1.3183 H         1 <0>         0.4370
     24 C16         8.8106    6.0397    0.6234 C.ar      1 <0>         0.3283
     25 C17         7.7686    5.2306    1.1118 C.ar      1 <0>        -0.2374
     26 C18         7.4684    5.2692    2.4823 C.ar      1 <0>         0.5797
     27 N4          8.1831    6.0715    3.2646 N.ar      1 <0>        -0.5810
     28 C19         9.1592    6.8197    2.7658 C.ar      1 <0>         0.7000
     29 N5          9.8750    7.6389    3.6230 N.pl3     1 <0>        -0.7958
     30 N6          6.4521    4.4912    3.0063 N.pl3     1 <0>        -0.7621
     31 H3          2.4886    0.3376   -0.0099 H         1 <0>         0.1315
     32 H4          4.5960    1.5991   -0.0331 H         1 <0>         0.1230
     33 H5          2.4051    5.2775    0.0079 H         1 <0>         0.1203
     34 H6          0.2923    4.0252    0.0202 H         1 <0>         0.1365
     35 H7          0.8486   -0.4776   -0.0086 H         1 <0>         0.3896
     36 H8         -0.2211   -2.6405   -0.0845 H         1 <0>         0.0571
     37 H9         -1.9441   -2.7245   -0.5230 H         1 <0>         0.0861
     38 H10        -1.4739   -1.4717   -2.6106 H         1 <0>         0.0611
     39 H11         0.2491   -1.3877   -2.1721 H         1 <0>         0.0558
     40 H12         4.8134    5.1980   -0.0162 H         1 <0>         0.3983
     41 H13         6.1799    2.8827    0.8488 H         1 <0>         0.0716
     42 H14         6.1626    2.8917   -0.9310 H         1 <0>         0.0911
     43 H15         7.8120    4.5395   -2.1180 H         1 <0>         0.2065
     44 H16        10.5920    8.1936    3.2778 H         1 <0>         0.4269
     45 H17         9.6593    7.6580    4.5685 H         1 <0>         0.4432
     46 H18         5.9372    3.9101    2.4248 H         1 <0>         0.4360
     47 H19         6.2542    4.5267    3.9552 H         1 <0>         0.4298
     48 O4         -0.1069   -3.4459   -3.9912 O.co2     1 <0>        -0.7901
     49 O5         -2.8803   -1.5703    1.6810 O.co2     1 <0>        -0.7650
     50 N7          9.5283    6.8556    1.4577 N.ar      1 <0>        -0.5970
     51 H20        10.2653    7.4228    1.0900 H         1 <0>         0.4492
@<TRIPOS>BOND
     1    1    6 ar
     2    1    2 ar
     3    1   31 1
     4    2    3 ar
     5    2   32 1
     6    3    4 ar
     7    3   18 1
     8    4    5 ar
     9    4   33 1
    10    5    6 ar
    11    5   34 1
    12    6    7 1
    13    7    8 2
    14    7    9 am
    15    9   10 1
    16    9   35 1
    17   10   11 1
    18   10   12 1
    19   10   16 1
    20   12   13 1
    21   12   36 1
    22   12   37 1
    23   13   14 1
    24   13   38 1
    25   13   39 1
    26   14   15 2
    27   14   48 1
    28   16   17 2
    29   16   49 1
    30   18   19 1
    31   18   40 1
    32   19   20 1
    33   19   41 1
    34   19   42 1
    35   20   25 1
    36   20   21 2
    37   21   22 1
    38   21   43 1
    39   22   23 1
    40   22   24 1
    41   24   25 ar
    42   24   50 ar
    43   25   26 ar
    44   26   27 ar
    45   26   30 1
    46   27   28 ar
    47   28   29 1
    48   28   50 ar
    49   29   44 1
    50   29   45 1
    51   30   46 1
    52   30   47 1
    53   50   51 1
@<TRIPOS>MOLECULE
ZINC03814991
   53    55     0     0     0
SMALL
USER_CHARGES

@<TRIPOS>ATOM
      1 C1          4.7644    5.6284    0.1416 C.3       1 <0>         0.0943
      2 N1          4.8117    4.1674    0.0441 N.pl3     1 <0>        -0.6286
      3 C2          6.0820    3.4926   -0.2339 C.3       1 <0>         0.1958
      4 C3          6.1854    3.2047   -1.7095 C.2       1 <0>        -0.1489
      5 C4          5.3291    3.6014   -2.6642 C.2       1 <0>         0.0521
      6 N2          5.7567    3.1511   -3.8883 N.pl3     1 <0>        -0.5694
      7 H1          5.3037    3.3141   -4.7304 H         1 <0>         0.4206
      8 C5          6.9125    2.4339   -3.7453 C.ar      1 <0>         0.3874
      9 C6          7.2346    2.4339   -2.3760 C.ar      1 <0>        -0.2959
     10 C7          8.3901    1.7585   -1.9534 C.ar      1 <0>         0.5252
     11 N3          9.1347    1.1447   -2.8675 N.ar      1 <0>        -0.6405
     12 C8          8.7971    1.1676   -4.1508 C.ar      1 <0>         0.6252
     13 N4          7.7174    1.7915   -4.5906 N.ar      1 <0>        -0.6235
     14 N5          9.6065    0.5125   -5.0642 N.pl3     1 <0>        -0.8243
     15 N6          8.7453    1.7317   -0.6171 N.pl3     1 <0>        -0.8300
     16 C9          3.6510    3.4212    0.2154 C.ar      1 <0>         0.2206
     17 C10         2.4446    4.0640    0.4796 C.ar      1 <0>        -0.2053
     18 C11         1.2940    3.3284    0.6487 C.ar      1 <0>        -0.0192
     19 C12         1.3374    1.9342    0.5555 C.ar      1 <0>        -0.1623
     20 C13         2.5513    1.2914    0.2958 C.ar      1 <0>        -0.0384
     21 C14         3.6975    2.0330    0.1220 C.ar      1 <0>        -0.1938
     22 C15         0.1058    1.1426    0.7368 C.2       1 <0>         0.5574
     23 O1         -0.9494    1.7031    0.9626 O.2       1 <0>        -0.5583
     24 N7          0.1493   -0.2014    0.6466 N.am      1 <0>        -0.6860
     25 C16        -1.0738   -0.9875    0.8266 C.3       1 <0>         0.1005
     26 H2         -1.9220   -0.4386    0.4176 H         1 <0>         0.0854
     27 C17        -0.9323   -2.3251    0.0973 C.3       1 <0>        -0.0861
     28 C18        -0.8290   -2.0763   -1.4088 C.3       1 <0>        -0.1526
     29 C19        -0.6897   -3.3938   -2.1271 C.2       1 <0>         0.4614
     30 O2         -0.6745   -4.4257   -1.4989 O.co2     1 <0>        -0.6387
     31 C20        -1.2985   -1.2377    2.2956 C.2       1 <0>         0.4650
     32 O3         -0.5171   -0.8038    3.1088 O.co2     1 <0>        -0.6396
     33 H3          4.8460    5.9256    1.1872 H         1 <0>         0.0481
     34 H4          5.5919    6.0572   -0.4236 H         1 <0>         0.0655
     35 H5          3.8202    5.9894   -0.2661 H         1 <0>         0.0668
     36 H6          6.9086    4.1348    0.0698 H         1 <0>         0.0820
     37 H7          6.1256    2.5565    0.3228 H         1 <0>         0.0823
     38 H8          4.4389    4.1891   -2.4949 H         1 <0>         0.1732
     39 H9         10.4028    0.0487   -4.7615 H         1 <0>         0.4120
     40 H10         9.3769    0.5176   -6.0067 H         1 <0>         0.4122
     41 H11         8.2403    2.2492    0.0294 H         1 <0>         0.4102
     42 H12         9.4995    1.1955   -0.3264 H         1 <0>         0.4067
     43 H13         2.4117    5.1411    0.5515 H         1 <0>         0.1227
     44 H14         0.3583    3.8277    0.8529 H         1 <0>         0.1324
     45 H15         2.5888    0.2143    0.2273 H         1 <0>         0.1261
     46 H16         4.6347    1.5372   -0.0834 H         1 <0>         0.1230
     47 H17         0.9903   -0.6482    0.4625 H         1 <0>         0.3899
     48 H18        -0.0332   -2.8346    0.4439 H         1 <0>         0.0566
     49 H19        -1.8042   -2.9457    0.3042 H         1 <0>         0.0843
     50 H20        -1.7281   -1.5668   -1.7554 H         1 <0>         0.0604
     51 H21         0.0428   -1.4557   -1.6156 H         1 <0>         0.0573
     52 O4         -0.5824   -3.4207   -3.4648 O.co2     1 <0>        -0.7910
     53 O5         -2.3666   -1.9425    2.7007 O.co2     1 <0>        -0.7702
@<TRIPOS>BOND
     1    1    2 1
     2    1   33 1
     3    1   34 1
     4    1   35 1
     5    2    3 1
     6    2   16 1
     7    3    4 1
     8    3   36 1
     9    3   37 1
    10    4    9 1
    11    4    5 2
    12    5    6 1
    13    5   38 1
    14    6    7 1
    15    6    8 1
    16    8   13 ar
    17    8    9 ar
    18    9   10 ar
    19   10   11 ar
    20   10   15 1
    21   11   12 ar
    22   12   13 ar
    23   12   14 1
    24   14   39 1
    25   14   40 1
    26   15   41 1
    27   15   42 1
    28   16   21 ar
    29   16   17 ar
    30   17   18 ar
    31   17   43 1
    32   18   19 ar
    33   18   44 1
    34   19   20 ar
    35   19   22 1
    36   20   21 ar
    37   20   45 1
    38   21   46 1
    39   22   23 2
    40   22   24 am
    41   24   25 1
    42   24   47 1
    43   25   26 1
    44   25   27 1
    45   25   31 1
    46   27   28 1
    47   27   48 1
    48   27   49 1
    49   28   29 1
    50   28   50 1
    51   28   51 1
    52   29   30 2
    53   29   52 1
    54   31   32 2
    55   31   53 1
@<TRIPOS>MOLECULE
ZINC03814991
   54    56     0     0     0
SMALL
USER_CHARGES

@<TRIPOS>ATOM
      1 C1          4.7644    5.6284    0.1416 C.3       1 <0>         0.0904
      2 N1          4.8117    4.1674    0.0441 N.pl3     1 <0>        -0.6313
      3 C2          6.0820    3.4926   -0.2339 C.3       1 <0>         0.1848
      4 C3          6.1854    3.2047   -1.7095 C.2       1 <0>        -0.1136
      5 C4          5.3291    3.6014   -2.6642 C.2       1 <0>         0.0679
      6 N2          5.7567    3.1511   -3.8883 N.pl3     1 <0>        -0.5372
      7 H1          5.3037    3.3141   -4.7304 H         1 <0>         0.4372
      8 C5          6.9125    2.4339   -3.7453 C.ar      1 <0>         0.3300
      9 C6          7.2346    2.4339   -2.3760 C.ar      1 <0>        -0.2404
     10 C7          8.3901    1.7585   -1.9534 C.ar      1 <0>         0.5807
     11 N3          9.1347    1.1447   -2.8675 N.ar      1 <0>        -0.5821
     12 C8          8.7971    1.1676   -4.1508 C.ar      1 <0>         0.7000
     13 N4          9.6065    0.5125   -5.0642 N.pl3     1 <0>        -0.7955
     14 N5          8.7453    1.7317   -0.6171 N.pl3     1 <0>        -0.7757
     15 C9          3.6510    3.4212    0.2154 C.ar      1 <0>         0.2064
     16 C10         2.4446    4.0640    0.4796 C.ar      1 <0>        -0.1960
     17 C11         1.2940    3.3284    0.6487 C.ar      1 <0>        -0.0179
     18 C12         1.3374    1.9342    0.5555 C.ar      1 <0>        -0.1490
     19 C13         2.5513    1.2914    0.2958 C.ar      1 <0>        -0.0408
     20 C14         3.6975    2.0330    0.1220 C.ar      1 <0>        -0.1969
     21 C15         0.1058    1.1426    0.7368 C.2       1 <0>         0.5518
     22 O1         -0.9494    1.7031    0.9626 O.2       1 <0>        -0.5511
     23 N6          0.1493   -0.2014    0.6466 N.am      1 <0>        -0.6833
     24 C16        -1.0738   -0.9875    0.8266 C.3       1 <0>         0.0995
     25 H2         -1.9220   -0.4386    0.4176 H         1 <0>         0.0870
     26 C17        -0.9323   -2.3251    0.0973 C.3       1 <0>        -0.0870
     27 C18        -0.8290   -2.0763   -1.4088 C.3       1 <0>        -0.1513
     28 C19        -0.6897   -3.3938   -2.1271 C.2       1 <0>         0.4602
     29 O2         -0.6745   -4.4257   -1.4989 O.co2     1 <0>        -0.6354
     30 C20        -1.2985   -1.2377    2.2956 C.2       1 <0>         0.4640
     31 O3         -0.5171   -0.8038    3.1088 O.co2     1 <0>        -0.6409
     32 H3          4.8460    5.9256    1.1872 H         1 <0>         0.0545
     33 H4          5.5919    6.0572   -0.4236 H         1 <0>         0.0661
     34 H5          3.8202    5.9894   -0.2661 H         1 <0>         0.0717
     35 H6          6.9086    4.1348    0.0698 H         1 <0>         0.0959
     36 H7          6.1256    2.5565    0.3228 H         1 <0>         0.0934
     37 H8          4.4389    4.1891   -2.4949 H         1 <0>         0.1990
     38 H9         10.4028    0.0487   -4.7615 H         1 <0>         0.4422
     39 H10         9.3769    0.5176   -6.0067 H         1 <0>         0.4277
     40 H11         8.2403    2.2492    0.0294 H         1 <0>         0.4296
     41 H12         9.4995    1.1955   -0.3264 H         1 <0>         0.4282
     42 H13         2.4117    5.1411    0.5515 H         1 <0>         0.1261
     43 H14         0.3583    3.8277    0.8529 H         1 <0>         0.1371
     44 H15         2.5888    0.2143    0.2273 H         1 <0>         0.1286
     45 H16         4.6347    1.5372   -0.0834 H         1 <0>         0.1185
     46 H17         0.9903   -0.6482    0.4625 H         1 <0>         0.3884
     47 H18        -0.0332   -2.8346    0.4439 H         1 <0>         0.0566
     48 H19        -1.8042   -2.9457    0.3042 H         1 <0>         0.0866
     49 H20        -1.7281   -1.5668   -1.7554 H         1 <0>         0.0613
     50 H21         0.0428   -1.4557   -1.6156 H         1 <0>         0.0540
     51 O4         -0.5824   -3.4207   -3.4648 O.co2     1 <0>        -0.7925
     52 O5         -2.3666   -1.9425    2.7007 O.co2     1 <0>        -0.7647
     53 N7          7.7019    1.7907   -4.6617 N.ar      1 <0>        -0.5935
     54 H22         7.4545    1.8025   -5.6306 H         1 <0>         0.4508
@<TRIPOS>BOND
     1    1    2 1
     2    1   32 1
     3    1   33 1
     4    1   34 1
     5    2    3 1
     6    2   15 1
     7    3    4 1
     8    3   35 1
     9    3   36 1
    10    4    9 1
    11    4    5 2
    12    5    6 1
    13    5   37 1
    14    6    7 1
    15    6    8 1
    16    8    9 ar
    17    8   53 ar
    18    9   10 ar
    19   10   11 ar
    20   10   14 1
    21   11   12 ar
    22   12   13 1
    23   12   53 ar
    24   13   38 1
    25   13   39 1
    26   14   40 1
    27   14   41 1
    28   15   20 ar
    29   15   16 ar
    30   16   17 ar
    31   16   42 1
    32   17   18 ar
    33   17   43 1
    34   18   19 ar
    35   18   21 1
    36   19   20 ar
    37   19   44 1
    38   20   45 1
    39   21   22 2
    40   21   23 am
    41   23   24 1
    42   23   46 1
    43   24   25 1
    44   24   26 1
    45   24   30 1
    46   26   27 1
    47   26   47 1
    48   26   48 1
    49   27   28 1
    50   27   49 1
    51   27   50 1
    52   28   29 2
    53   28   51 1
    54   30   31 2
    55   30   52 1
    56   53   54 1
@<TRIPOS>MOLECULE
ZINC03814992
   38    40     0     0     0
SMALL
USER_CHARGES

@<TRIPOS>ATOM
      1 C1          0.2606    3.6029    0.9088 C.3       1 <0>        -0.1193
      2 C2         -0.6264    2.8444    1.8622 C.2       1 <0>        -0.0489
      3 C3         -2.0583    2.7794    1.6425 C.ar      1 <0>        -0.2958
      4 C4         -2.8413    3.3422    0.5943 C.ar      1 <0>         0.5308
      5 N1         -4.1493    3.1494    0.5887 N.ar      1 <0>        -0.6320
      6 C5         -4.7620    2.4406    1.5291 C.ar      1 <0>         0.6274
      7 N2         -4.0846    1.8890    2.5265 N.ar      1 <0>        -0.5703
      8 C6         -2.7763    2.0345    2.6046 C.ar      1 <0>         0.1875
      9 S1         -1.5209    1.4861    3.7307 S.3       1 <0>         0.1396
     10 C7         -0.0993    2.2171    2.9412 C.2       1 <0>        -0.1229
     11 C8          1.3156    2.1540    3.3630 C.ar      1 <0>         0.0035
     12 C9          2.3098    1.8407    2.4357 C.ar      1 <0>        -0.0923
     13 C10         3.6336    1.7883    2.8361 C.ar      1 <0>         0.0947
     14 C11         3.9719    2.0355    4.1598 C.ar      1 <0>        -0.1597
     15 C12         2.9912    2.3413    5.0846 C.ar      1 <0>        -0.1662
     16 C13         1.6636    2.4026    4.6959 C.ar      1 <0>         0.1109
     17 O1          0.7004    2.7039    5.6065 O.3       1 <0>        -0.3043
     18 C14         1.1288    2.9456    6.9482 C.3       1 <0>         0.0250
     19 O2          4.6045    1.4886    1.9324 O.3       1 <0>        -0.3157
     20 C15         5.9489    1.4456    2.4147 C.3       1 <0>         0.0269
     21 N3         -6.1355    2.2746    1.4675 N.pl3     1 <0>        -0.8120
     22 N4         -2.2406    4.0874   -0.4036 N.pl3     1 <0>        -0.8339
     23 H1          0.5288    2.9587    0.0714 H         1 <0>         0.0777
     24 H2          1.1653    3.9194    1.4280 H         1 <0>         0.0803
     25 H3         -0.2706    4.4792    0.5375 H         1 <0>         0.0719
     26 H4          2.0474    1.6435    1.4067 H         1 <0>         0.1421
     27 H5          5.0059    1.9890    4.4681 H         1 <0>         0.1339
     28 H6          3.2610    2.5326    6.1127 H         1 <0>         0.1363
     29 H7          1.8196    3.7886    6.9627 H         1 <0>         0.0554
     30 H8          0.2635    3.1741    7.5703 H         1 <0>         0.1027
     31 H9          1.6302    2.0583    7.3349 H         1 <0>         0.0561
     32 H10         6.6216    1.1962    1.5941 H         1 <0>         0.1014
     33 H11         6.2196    2.4192    2.8233 H         1 <0>         0.0553
     34 H12         6.0311    0.6887    3.1947 H         1 <0>         0.0555
     35 H13        -6.5928    1.7587    2.1500 H         1 <0>         0.4182
     36 H14        -6.6403    2.6741    0.7419 H         1 <0>         0.4169
     37 H15        -2.7758    4.6772   -0.9573 H         1 <0>         0.4074
     38 H16        -1.2841    4.0203   -0.5499 H         1 <0>         0.4156
@<TRIPOS>BOND
     1    1    2 1
     2    1   23 1
     3    1   24 1
     4    1   25 1
     5    2   10 2
     6    2    3 1
     7    3    8 ar
     8    3    4 ar
     9    4    5 ar
    10    4   22 1
    11    5    6 ar
    12    6    7 ar
    13    6   21 1
    14    7    8 ar
    15    8    9 1
    16    9   10 1
    17   10   11 1
    18   11   16 ar
    19   11   12 ar
    20   12   13 ar
    21   12   26 1
    22   13   14 ar
    23   13   19 1
    24   14   15 ar
    25   14   27 1
    26   15   16 ar
    27   15   28 1
    28   16   17 1
    29   17   18 1
    30   18   29 1
    31   18   30 1
    32   18   31 1
    33   19   20 1
    34   20   32 1
    35   20   33 1
    36   20   34 1
    37   21   35 1
    38   21   36 1
    39   22   37 1
    40   22   38 1
@<TRIPOS>MOLECULE
ZINC03814992
   39    41     0     0     0
SMALL
USER_CHARGES

@<TRIPOS>ATOM
      1 C1          0.2606    3.6029    0.9088 C.3       1 <0>        -0.1272
      2 C2         -0.6264    2.8444    1.8622 C.2       1 <0>        -0.0668
      3 C3         -2.0583    2.7794    1.6425 C.ar      1 <0>        -0.2092
      4 C4         -2.8413    3.3422    0.5943 C.ar      1 <0>         0.5779
      5 N1         -4.1493    3.1494    0.5887 N.ar      1 <0>        -0.5797
      6 C5         -4.7620    2.4406    1.5291 C.ar      1 <0>         0.6865
      7 C6         -2.7763    2.0345    2.6046 C.ar      1 <0>         0.0882
      8 S1         -1.5209    1.4861    3.7307 S.3       1 <0>         0.2596
      9 C7         -0.0993    2.2171    2.9412 C.2       1 <0>        -0.0699
     10 C8          1.3156    2.1540    3.3630 C.ar      1 <0>        -0.0320
     11 C9          2.3098    1.8407    2.4357 C.ar      1 <0>        -0.0848
     12 C10         3.6336    1.7883    2.8361 C.ar      1 <0>         0.1009
     13 C11         3.9719    2.0355    4.1598 C.ar      1 <0>        -0.1416
     14 C12         2.9912    2.3413    5.0846 C.ar      1 <0>        -0.1615
     15 C13         1.6636    2.4026    4.6959 C.ar      1 <0>         0.1187
     16 O1          0.7004    2.7039    5.6065 O.3       1 <0>        -0.3161
     17 C14         1.1288    2.9456    6.9482 C.3       1 <0>         0.0230
     18 O2          4.6045    1.4886    1.9324 O.3       1 <0>        -0.3127
     19 C15         5.9489    1.4456    2.4147 C.3       1 <0>         0.0238
     20 N2         -6.1355    2.2746    1.4675 N.pl3     1 <0>        -0.7860
     21 N3         -2.2406    4.0874   -0.4036 N.pl3     1 <0>        -0.7827
     22 H1          0.5288    2.9587    0.0714 H         1 <0>         0.0921
     23 H2          1.1653    3.9194    1.4280 H         1 <0>         0.0975
     24 H3         -0.2706    4.4792    0.5375 H         1 <0>         0.0767
     25 H4          2.0474    1.6435    1.4067 H         1 <0>         0.1461
     26 H5          5.0059    1.9890    4.4681 H         1 <0>         0.1417
     27 H6          3.2610    2.5326    6.1127 H         1 <0>         0.1431
     28 H7          1.8196    3.7886    6.9627 H         1 <0>         0.0619
     29 H8          0.2635    3.1741    7.5703 H         1 <0>         0.1064
     30 H9          1.6302    2.0583    7.3349 H         1 <0>         0.0616
     31 H10         6.6216    1.1962    1.5941 H         1 <0>         0.1072
     32 H11         6.2196    2.4192    2.8233 H         1 <0>         0.0591
     33 H12         6.0311    0.6887    3.1947 H         1 <0>         0.0590
     34 H13        -6.5928    1.7587    2.1500 H         1 <0>         0.4314
     35 H14        -6.6403    2.6741    0.7419 H         1 <0>         0.4450
     36 H15        -2.7758    4.6772   -0.9573 H         1 <0>         0.4275
     37 H16        -1.2841    4.0203   -0.5499 H         1 <0>         0.4325
     38 N4         -4.1187    1.8516    2.5758 N.ar      1 <0>        -0.5567
     39 H17        -4.6383    1.3301    3.2525 H         1 <0>         0.4596
@<TRIPOS>BOND
     1    1    2 1
     2    1   22 1
     3    1   23 1
     4    1   24 1
     5    2    9 2
     6    2    3 1
     7    3    7 ar
     8    3    4 ar
     9    4    5 ar
    10    4   21 1
    11    5    6 ar
    12    6   20 1
    13    6   38 ar
    14    7    8 1
    15    7   38 ar
    16    8    9 1
    17    9   10 1
    18   10   15 ar
    19   10   11 ar
    20   11   12 ar
    21   11   25 1
    22   12   13 ar
    23   12   18 1
    24   13   14 ar
    25   13   26 1
    26   14   15 ar
    27   14   27 1
    28   15   16 1
    29   16   17 1
    30   17   28 1
    31   17   29 1
    32   17   30 1
    33   18   19 1
    34   19   31 1
    35   19   32 1
    36   19   33 1
    37   20   34 1
    38   20   35 1
    39   21   36 1
    40   21   37 1
    41   38   39 1
@<TRIPOS>MOLECULE
ZINC03814993
   41    43     0     0     0
SMALL
USER_CHARGES

@<TRIPOS>ATOM
      1 C1          0.1775    5.1477   -2.6160 C.3       1 <0>        -0.1200
      2 C2          1.6279    5.3887   -2.9465 C.2       1 <0>        -0.0628
      3 C3          2.5868    4.6533   -2.3664 C.2       1 <0>        -0.1524
      4 S1          4.0914    5.2985   -3.0725 S.3       1 <0>         0.1178
      5 C4          3.3916    6.5445   -4.1224 C.ar      1 <0>         0.1860
      6 C5          2.0035    6.4244   -3.8945 C.ar      1 <0>        -0.2930
      7 C6          1.1825    7.3254   -4.6275 C.ar      1 <0>         0.5273
      8 N1          1.7475    8.1929   -5.4504 N.ar      1 <0>        -0.6305
      9 C7          3.0627    8.2529   -5.6177 C.ar      1 <0>         0.6242
     10 N2          3.8773    7.4381   -4.9618 N.ar      1 <0>        -0.5694
     11 N3          3.5944    9.1840   -6.4946 N.pl3     1 <0>        -0.8132
     12 N4         -0.1923    7.2949   -4.4807 N.pl3     1 <0>        -0.8370
     13 C8          2.4299    3.5413   -1.3614 C.3       1 <0>         0.0168
     14 C9          2.2861    2.2271   -2.0847 C.ar      1 <0>        -0.0742
     15 C10         1.0292    1.7216   -2.3557 C.ar      1 <0>        -0.1069
     16 C11         0.8970    0.5099   -3.0170 C.ar      1 <0>         0.0932
     17 C12         2.0266   -0.1893   -3.4163 C.ar      1 <0>        -0.1679
     18 C13         3.2830    0.3186   -3.1501 C.ar      1 <0>        -0.1663
     19 C14         3.4154    1.5279   -2.4835 C.ar      1 <0>         0.1039
     20 O1          4.6525    2.0279   -2.2214 O.3       1 <0>        -0.3091
     21 C15         5.7712    1.2552   -2.6612 C.3       1 <0>         0.0271
     22 O2         -0.3401    0.0098   -3.2791 O.3       1 <0>        -0.3175
     23 C16        -0.4018   -1.2401   -3.9689 C.3       1 <0>         0.0275
     24 H1         -0.1426    5.8535   -1.8495 H         1 <0>         0.0749
     25 H2         -0.4272    5.2856   -3.5123 H         1 <0>         0.0723
     26 H3          0.0533    4.1296   -2.2470 H         1 <0>         0.0780
     27 H4          4.5543    9.2355   -6.6241 H         1 <0>         0.4177
     28 H5          3.0067    9.7846   -6.9793 H         1 <0>         0.4166
     29 H6         -0.7626    7.6540   -5.1784 H         1 <0>         0.4069
     30 H7         -0.5863    6.9145   -3.6801 H         1 <0>         0.4150
     31 H8          1.5419    3.7216   -0.7556 H         1 <0>         0.0975
     32 H9          3.3085    3.5072   -0.7171 H         1 <0>         0.0973
     33 H10         0.1497    2.2681   -2.0487 H         1 <0>         0.1383
     34 H11         1.9235   -1.1309   -3.9350 H         1 <0>         0.1304
     35 H12         4.1625   -0.2256   -3.4613 H         1 <0>         0.1321
     36 H13         5.7449    0.2746   -2.1858 H         1 <0>         0.0539
     37 H14         5.7270    1.1354   -3.7437 H         1 <0>         0.0546
     38 H15         6.6950    1.7660   -2.3896 H         1 <0>         0.1015
     39 H16         0.0868   -1.1445   -4.9385 H         1 <0>         0.0541
     40 H17         0.1048   -2.0052   -3.3806 H         1 <0>         0.0548
     41 H18        -1.4442   -1.5241   -4.1138 H         1 <0>         0.1005
@<TRIPOS>BOND
     1    1    2 1
     2    1   24 1
     3    1   25 1
     4    1   26 1
     5    2    6 1
     6    2    3 2
     7    3    4 1
     8    3   13 1
     9    4    5 1
    10    5   10 ar
    11    5    6 ar
    12    6    7 ar
    13    7    8 ar
    14    7   12 1
    15    8    9 ar
    16    9   10 ar
    17    9   11 1
    18   11   27 1
    19   11   28 1
    20   12   29 1
    21   12   30 1
    22   13   14 1
    23   13   31 1
    24   13   32 1
    25   14   19 ar
    26   14   15 ar
    27   15   16 ar
    28   15   33 1
    29   16   17 ar
    30   16   22 1
    31   17   18 ar
    32   17   34 1
    33   18   19 ar
    34   18   35 1
    35   19   20 1
    36   20   21 1
    37   21   36 1
    38   21   37 1
    39   21   38 1
    40   22   23 1
    41   23   39 1
    42   23   40 1
    43   23   41 1
@<TRIPOS>MOLECULE
ZINC03814993
   42    44     0     0     0
SMALL
USER_CHARGES

@<TRIPOS>ATOM
      1 C1          0.1775    5.1477   -2.6160 C.3       1 <0>        -0.1299
      2 C2          1.6279    5.3887   -2.9465 C.2       1 <0>        -0.0730
      3 C3          2.5868    4.6533   -2.3664 C.2       1 <0>        -0.1116
      4 S1          4.0914    5.2985   -3.0725 S.3       1 <0>         0.2415
      5 C4          3.3916    6.5445   -4.1224 C.ar      1 <0>         0.0827
      6 C5          2.0035    6.4244   -3.8945 C.ar      1 <0>        -0.2105
      7 C6          1.1825    7.3254   -4.6275 C.ar      1 <0>         0.5772
      8 N1          1.7475    8.1929   -5.4504 N.ar      1 <0>        -0.5770
      9 C7          3.0627    8.2529   -5.6177 C.ar      1 <0>         0.6927
     10 N2          3.5944    9.1840   -6.4946 N.pl3     1 <0>        -0.7858
     11 N3         -0.1923    7.2949   -4.4807 N.pl3     1 <0>        -0.7862
     12 C8          2.4299    3.5413   -1.3614 C.3       1 <0>         0.0068
     13 C9          2.2861    2.2271   -2.0847 C.ar      1 <0>        -0.0882
     14 C10         1.0292    1.7216   -2.3557 C.ar      1 <0>        -0.1073
     15 C11         0.8970    0.5099   -3.0170 C.ar      1 <0>         0.1000
     16 C12         2.0266   -0.1893   -3.4163 C.ar      1 <0>        -0.1608
     17 C13         3.2830    0.3186   -3.1501 C.ar      1 <0>        -0.1610
     18 C14         3.4154    1.5279   -2.4835 C.ar      1 <0>         0.0995
     19 O1          4.6525    2.0279   -2.2214 O.3       1 <0>        -0.3187
     20 C15         5.7712    1.2552   -2.6612 C.3       1 <0>         0.0246
     21 O2         -0.3401    0.0098   -3.2791 O.3       1 <0>        -0.3156
     22 C16        -0.4018   -1.2401   -3.9689 C.3       1 <0>         0.0253
     23 H1         -0.1426    5.8535   -1.8495 H         1 <0>         0.0907
     24 H2         -0.4272    5.2856   -3.5123 H         1 <0>         0.0783
     25 H3          0.0533    4.1296   -2.2470 H         1 <0>         0.0952
     26 H4          4.5543    9.2355   -6.6241 H         1 <0>         0.4316
     27 H5          3.0067    9.7846   -6.9793 H         1 <0>         0.4448
     28 H6         -0.7626    7.6540   -5.1784 H         1 <0>         0.4275
     29 H7         -0.5863    6.9145   -3.6801 H         1 <0>         0.4326
     30 H8          1.5419    3.7216   -0.7556 H         1 <0>         0.1130
     31 H9          3.3085    3.5072   -0.7171 H         1 <0>         0.1083
     32 H10         0.1497    2.2681   -2.0487 H         1 <0>         0.1404
     33 H11         1.9235   -1.1309   -3.9350 H         1 <0>         0.1354
     34 H12         4.1625   -0.2256   -3.4613 H         1 <0>         0.1357
     35 H13         5.7449    0.2746   -2.1858 H         1 <0>         0.0598
     36 H14         5.7270    1.1354   -3.7437 H         1 <0>         0.0562
     37 H15         6.6950    1.7660   -2.3896 H         1 <0>         0.1036
     38 H16         0.0868   -1.1445   -4.9385 H         1 <0>         0.0560
     39 H17         0.1048   -2.0052   -3.3806 H         1 <0>         0.0582
     40 H18        -1.4442   -1.5241   -4.1138 H         1 <0>         0.1050
     41 N4          3.9469    7.4425   -4.9718 N.ar      1 <0>        -0.5570
     42 H19         4.9397    7.4744   -5.0867 H         1 <0>         0.4600
@<TRIPOS>BOND
     1    1    2 1
     2    1   23 1
     3    1   24 1
     4    1   25 1
     5    2    6 1
     6    2    3 2
     7    3    4 1
     8    3   12 1
     9    4    5 1
    10    5    6 ar
    11    5   41 ar
    12    6    7 ar
    13    7    8 ar
    14    7   11 1
    15    8    9 ar
    16    9   10 1
    17    9   41 ar
    18   10   26 1
    19   10   27 1
    20   11   28 1
    21   11   29 1
    22   12   13 1
    23   12   30 1
    24   12   31 1
    25   13   18 ar
    26   13   14 ar
    27   14   15 ar
    28   14   32 1
    29   15   16 ar
    30   15   21 1
    31   16   17 ar
    32   16   33 1
    33   17   18 ar
    34   17   34 1
    35   18   19 1
    36   19   20 1
    37   20   35 1
    38   20   36 1
    39   20   37 1
    40   21   22 1
    41   22   38 1
    42   22   39 1
    43   22   40 1
    44   41   42 1
@<TRIPOS>MOLECULE
ZINC03814994
   35    37     0     0     0
SMALL
USER_CHARGES

@<TRIPOS>ATOM
      1 C1         -2.3717    5.5084    0.0545 C.3       1 <0>         0.0241
      2 O1         -2.4259    4.0805    0.0473 O.3       1 <0>        -0.3116
      3 C2         -1.2401    3.4184    0.0324 C.ar      1 <0>         0.1868
      4 C3         -0.0479    4.1333    0.0248 C.ar      1 <0>        -0.2430
      5 C4          1.1587    3.4689    0.0097 C.ar      1 <0>        -0.0217
      6 C5          1.1861    2.0728    0.0019 C.ar      1 <0>        -0.1008
      7 C6         -0.0163    1.3536    0.0095 C.ar      1 <0>         0.2144
      8 C7         -1.2231    2.0316    0.0189 C.ar      1 <0>        -0.2477
      9 O2          0.0021   -0.0041    0.0020 O.3       1 <0>        -0.2727
     10 C8         -1.2622   -0.6701    0.0105 C.3       1 <0>         0.0186
     11 C9          2.4775    1.3571   -0.0148 C.2       1 <0>         0.3238
     12 N1          3.7135    1.9552   -0.0235 N.pl3     1 <0>        -0.5844
     13 H1          3.8959    2.9384   -0.0197 H         1 <0>         0.4325
     14 C10         4.6527    0.9535   -0.0384 C.ar      1 <0>         0.3447
     15 C11         3.9368   -0.2562   -0.0384 C.ar      1 <0>        -0.1447
     16 N2          2.6190    0.0535   -0.0180 N.2       1 <0>        -0.4221
     17 C12         4.6637   -1.4603   -0.0515 C.ar      1 <0>         0.4941
     18 N3          5.9907   -1.4014   -0.0638 N.ar      1 <0>        -0.5883
     19 C13         6.6255   -0.2364   -0.0638 C.ar      1 <0>         0.6168
     20 N4          5.9811    0.9195   -0.0512 N.ar      1 <0>        -0.5998
     21 N5          8.0107   -0.2297   -0.0769 N.pl3     1 <0>        -0.8154
     22 N6          4.0103   -2.6804   -0.0512 N.pl3     1 <0>        -0.7494
     23 H2         -1.8359    5.8472    0.9412 H         1 <0>         0.0601
     24 H3         -1.8530    5.8568   -0.8386 H         1 <0>         0.0600
     25 H4         -3.3848    5.9105    0.0663 H         1 <0>         0.1042
     26 H5         -0.0678    5.2131    0.0312 H         1 <0>         0.1381
     27 H6          2.0830    4.0275    0.0042 H         1 <0>         0.1318
     28 H7         -2.1519    1.4804    0.0199 H         1 <0>         0.1456
     29 H8         -1.1047   -1.7486    0.0032 H         1 <0>         0.1050
     30 H9         -1.8146   -0.3896    0.9073 H         1 <0>         0.0582
     31 H10        -1.8316   -0.3800   -0.8725 H         1 <0>         0.0579
     32 H11         8.4917    0.6126   -0.0767 H         1 <0>         0.4158
     33 H12         8.4997   -1.0674   -0.0862 H         1 <0>         0.4176
     34 H13         4.2608   -3.1928   -0.8726 H         1 <0>         0.3663
     35 H14         3.0408   -2.7114   -0.0422 H         1 <0>         0.3851
@<TRIPOS>BOND
     1    1    2 1
     2    1   23 1
     3    1   24 1
     4    1   25 1
     5    2    3 1
     6    3    8 ar
     7    3    4 ar
     8    4    5 ar
     9    4   26 1
    10    5    6 ar
    11    5   27 1
    12    6    7 ar
    13    6   11 1
    14    7    8 ar
    15    7    9 1
    16    8   28 1
    17    9   10 1
    18   10   29 1
    19   10   30 1
    20   10   31 1
    21   11   16 2
    22   11   12 1
    23   12   13 1
    24   12   14 1
    25   14   20 ar
    26   14   15 ar
    27   15   16 1
    28   15   17 ar
    29   17   18 ar
    30   17   22 1
    31   18   19 ar
    32   19   20 ar
    33   19   21 1
    34   21   32 1
    35   21   33 1
    36   22   34 1
    37   22   35 1
@<TRIPOS>MOLECULE
ZINC03814994
   36    38     0     0     0
SMALL
USER_CHARGES

@<TRIPOS>ATOM
      1 C1         -2.3717    5.5084    0.0545 C.3       1 <0>         0.0207
      2 O1         -2.4259    4.0805    0.0473 O.3       1 <0>        -0.3046
      3 C2         -1.2401    3.4184    0.0324 C.ar      1 <0>         0.2095
      4 C3         -0.0479    4.1333    0.0248 C.ar      1 <0>        -0.2418
      5 C4          1.1587    3.4689    0.0097 C.ar      1 <0>        -0.0120
      6 C5          1.1861    2.0728    0.0019 C.ar      1 <0>        -0.1378
      7 C6         -0.0163    1.3536    0.0095 C.ar      1 <0>         0.2298
      8 C7         -1.2231    2.0316    0.0189 C.ar      1 <0>        -0.2494
      9 O2          0.0021   -0.0041    0.0020 O.3       1 <0>        -0.2800
     10 C8         -1.2622   -0.6701    0.0105 C.3       1 <0>         0.0162
     11 C9          2.4775    1.3571   -0.0148 C.2       1 <0>         0.3744
     12 N1          3.7135    1.9552   -0.0235 N.pl3     1 <0>        -0.5652
     13 H1          3.8959    2.9384   -0.0197 H         1 <0>         0.4488
     14 C10         4.6527    0.9535   -0.0384 C.ar      1 <0>         0.2862
     15 C11         3.9368   -0.2562   -0.0384 C.ar      1 <0>        -0.0718
     16 N2          2.6190    0.0535   -0.0180 N.2       1 <0>        -0.4049
     17 C12         4.6637   -1.4603   -0.0515 C.ar      1 <0>         0.5629
     18 N3          5.9907   -1.4014   -0.0638 N.ar      1 <0>        -0.5357
     19 C13         6.6255   -0.2364   -0.0638 C.ar      1 <0>         0.6901
     20 N4          8.0107   -0.2297   -0.0769 N.pl3     1 <0>        -0.7832
     21 N5          4.0103   -2.6804   -0.0512 N.pl3     1 <0>        -0.7154
     22 H2         -1.8359    5.8472    0.9412 H         1 <0>         0.0636
     23 H3         -1.8530    5.8568   -0.8386 H         1 <0>         0.0635
     24 H4         -3.3848    5.9105    0.0663 H         1 <0>         0.1108
     25 H5         -0.0678    5.2131    0.0312 H         1 <0>         0.1447
     26 H6          2.0830    4.0275    0.0042 H         1 <0>         0.1316
     27 H7         -2.1519    1.4804    0.0199 H         1 <0>         0.1526
     28 H8         -1.1047   -1.7486    0.0032 H         1 <0>         0.1098
     29 H9         -1.8146   -0.3896    0.9073 H         1 <0>         0.0639
     30 H10        -1.8316   -0.3800   -0.8725 H         1 <0>         0.0636
     31 H11         8.4917    0.6126   -0.0767 H         1 <0>         0.4312
     32 H12         8.4997   -1.0674   -0.0862 H         1 <0>         0.4474
     33 H13         4.2608   -3.1928   -0.8726 H         1 <0>         0.3952
     34 H14         3.0408   -2.7114   -0.0422 H         1 <0>         0.4077
     35 N6          6.0187    0.9815   -0.0512 N.ar      1 <0>        -0.5756
     36 H15         6.5009    1.8575   -0.0509 H         1 <0>         0.4533
@<TRIPOS>BOND
     1    1    2 1
     2    1   22 1
     3    1   23 1
     4    1   24 1
     5    2    3 1
     6    3    8 ar
     7    3    4 ar
     8    4    5 ar
     9    4   25 1
    10    5    6 ar
    11    5   26 1
    12    6    7 ar
    13    6   11 1
    14    7    8 ar
    15    7    9 1
    16    8   27 1
    17    9   10 1
    18   10   28 1
    19   10   29 1
    20   10   30 1
    21   11   16 2
    22   11   12 1
    23   12   13 1
    24   12   14 1
    25   14   15 ar
    26   14   35 ar
    27   15   16 1
    28   15   17 ar
    29   17   18 ar
    30   17   21 1
    31   18   19 ar
    32   19   20 1
    33   19   35 ar
    34   20   31 1
    35   20   32 1
    36   21   33 1
    37   21   34 1
    38   35   36 1
@<TRIPOS>MOLECULE
ZINC03814995
   24    25     0     0     0
SMALL
USER_CHARGES

@<TRIPOS>ATOM
      1 C1         -0.5495    4.2665    0.8445 C.3       1 <0>        -0.1689
      2 S1          1.1834    3.8623    0.4919 S.3       1 <0>        -0.0841
      3 C2          1.2131    2.1007    0.4641 C.ar      1 <0>        -0.0220
      4 C3          0.0541    1.3771    0.6877 C.ar      1 <0>        -0.1702
      5 C4          0.0717   -0.0105    0.6665 C.ar      1 <0>        -0.0447
      6 C5          1.2263   -0.6984    0.4255 C.ar      1 <0>        -0.1337
      7 C6          2.4190   -0.0026    0.1948 C.ar      1 <0>         0.2440
      8 C7          2.4141    1.4134    0.2142 C.ar      1 <0>        -0.2122
      9 C8          3.6310    2.0931   -0.0220 C.ar      1 <0>         0.5111
     10 N1          4.7204    1.3728   -0.2508 N.ar      1 <0>        -0.6125
     11 C9          4.6829    0.0434   -0.2606 C.ar      1 <0>         0.6051
     12 N2          3.5751   -0.6406   -0.0463 N.ar      1 <0>        -0.5984
     13 N3          5.8537   -0.6510   -0.5054 N.pl3     1 <0>        -0.8177
     14 N4          3.6837    3.4710   -0.0143 N.pl3     1 <0>        -0.8341
     15 H1         -1.1850    3.8573    0.0592 H         1 <0>         0.0863
     16 H2         -0.8350    3.8357    1.8042 H         1 <0>         0.0852
     17 H3         -0.6697    5.3492    0.8821 H         1 <0>         0.1101
     18 H4         -0.8734    1.8974    0.8758 H         1 <0>         0.1289
     19 H5         -0.8437   -0.5556    0.8434 H         1 <0>         0.1347
     20 H6          1.2195   -1.7783    0.4132 H         1 <0>         0.1398
     21 H7          6.6795   -0.1680   -0.6655 H         1 <0>         0.4139
     22 H8          5.8490   -1.6209   -0.5171 H         1 <0>         0.4163
     23 H9          3.2280    3.9699    0.6816 H         1 <0>         0.4120
     24 H10         4.1766    3.9414   -0.7047 H         1 <0>         0.4111
@<TRIPOS>BOND
     1    1    2 1
     2    1   15 1
     3    1   16 1
     4    1   17 1
     5    2    3 1
     6    3    8 ar
     7    3    4 ar
     8    4    5 ar
     9    4   18 1
    10    5    6 ar
    11    5   19 1
    12    6    7 ar
    13    6   20 1
    14    7   12 ar
    15    7    8 ar
    16    8    9 ar
    17    9   10 ar
    18    9   14 1
    19   10   11 ar
    20   11   12 ar
    21   11   13 1
    22   13   21 1
    23   13   22 1
    24   14   23 1
    25   14   24 1
@<TRIPOS>MOLECULE
ZINC03814995
   25    26     0     0     0
SMALL
USER_CHARGES

@<TRIPOS>ATOM
      1 C1         -0.5495    4.2665    0.8445 C.3       1 <0>        -0.1706
      2 S1          1.1834    3.8623    0.4919 S.3       1 <0>        -0.0435
      3 C2          1.2131    2.1007    0.4641 C.ar      1 <0>        -0.0100
      4 C3          0.0541    1.3771    0.6877 C.ar      1 <0>        -0.1465
      5 C4          0.0717   -0.0105    0.6665 C.ar      1 <0>         0.0035
      6 C5          1.2263   -0.6984    0.4255 C.ar      1 <0>        -0.1608
      7 C6          2.4190   -0.0026    0.1948 C.ar      1 <0>         0.2211
      8 C7          2.4141    1.4134    0.2142 C.ar      1 <0>        -0.1740
      9 C8          3.6310    2.0931   -0.0220 C.ar      1 <0>         0.5726
     10 N1          4.7204    1.3728   -0.2508 N.ar      1 <0>        -0.5734
     11 C9          4.6829    0.0434   -0.2606 C.ar      1 <0>         0.6829
     12 N2          5.8537   -0.6510   -0.5054 N.pl3     1 <0>        -0.7866
     13 N3          3.6837    3.4710   -0.0143 N.pl3     1 <0>        -0.7934
     14 H1         -1.1850    3.8573    0.0592 H         1 <0>         0.0980
     15 H2         -0.8350    3.8357    1.8042 H         1 <0>         0.0973
     16 H3         -0.6697    5.3492    0.8821 H         1 <0>         0.1257
     17 H4         -0.8734    1.8974    0.8758 H         1 <0>         0.1513
     18 H5         -0.8437   -0.5556    0.8434 H         1 <0>         0.1581
     19 H6          1.2195   -1.7783    0.4132 H         1 <0>         0.1582
     20 H7          6.6795   -0.1680   -0.6655 H         1 <0>         0.4435
     21 H8          5.8490   -1.6209   -0.5171 H         1 <0>         0.4307
     22 H9          3.2280    3.9699    0.6816 H         1 <0>         0.4280
     23 H10         4.1766    3.9414   -0.7047 H         1 <0>         0.4314
     24 N4          3.5770   -0.7118   -0.0476 N.ar      1 <0>        -0.6012
     25 H11         3.6402   -1.7095   -0.0732 H         1 <0>         0.4578
@<TRIPOS>BOND
     1    1    2 1
     2    1   14 1
     3    1   15 1
     4    1   16 1
     5    2    3 1
     6    3    8 ar
     7    3    4 ar
     8    4    5 ar
     9    4   17 1
    10    5    6 ar
    11    5   18 1
    12    6    7 ar
    13    6   19 1
    14    7    8 ar
    15    7   24 ar
    16    8    9 ar
    17    9   10 ar
    18    9   13 1
    19   10   11 ar
    20   11   12 1
    21   11   24 ar
    22   12   20 1
    23   12   21 1
    24   13   22 1
    25   13   23 1
    26   24   25 1
@<TRIPOS>MOLECULE
ZINC03814996
   33    35     0     0     0
SMALL
USER_CHARGES

@<TRIPOS>ATOM
      1 C1          0.0021   -0.0041    0.0020 C.ar      1 <0>        -0.1823
      2 C2         -0.0167    1.3769    0.0096 C.ar      1 <0>        -0.0604
      3 C3          1.1715    2.0863    0.0021 C.ar      1 <0>        -0.0923
      4 C4          2.3813    1.4147   -0.0130 C.ar      1 <0>        -0.0600
      5 C5          2.4059    0.0338   -0.0207 C.ar      1 <0>        -0.1862
      6 C6          1.2149   -0.6808   -0.0132 C.ar      1 <0>         0.2229
      7 N1          1.2369   -2.0780   -0.0214 N.pl3     1 <0>        -0.7398
      8 C7          2.5169   -2.7904   -0.0374 C.3       1 <0>         0.1884
      9 C8          2.2649   -4.2762   -0.0435 C.ar      1 <0>         0.0174
     10 C9          2.2422   -4.9676   -1.2543 C.ar      1 <0>         0.1579
     11 N2          2.0245   -6.2653   -1.2850 N.ar      1 <0>        -0.4404
     12 C10         1.8231   -6.9266   -0.1427 C.ar      1 <0>         0.3812
     13 C11         1.8471   -6.2190    1.0850 C.ar      1 <0>        -0.0935
     14 N3          2.0737   -4.9093    1.0943 N.ar      1 <0>        -0.3611
     15 C12         1.6220   -6.9784    2.3162 C.ar      1 <0>         0.5467
     16 N4          1.4090   -8.2824    2.2057 N.ar      1 <0>        -0.6276
     17 C13         1.3997   -8.8819    1.0193 C.ar      1 <0>         0.6444
     18 N5          1.5970   -8.2460   -0.1184 N.ar      1 <0>        -0.6023
     19 N6          1.1716  -10.2441    0.9764 N.pl3     1 <0>        -0.8038
     20 N7          1.6307   -6.3595    3.5469 N.pl3     1 <0>        -0.7893
     21 Cl1         1.1442    3.8220    0.0116 Cl        1 <0>        -0.0793
     22 H1         -0.9255   -0.5572    0.0082 H         1 <0>         0.1282
     23 H2         -0.9595    1.9036    0.0169 H         1 <0>         0.1319
     24 H3          3.3070    1.9708   -0.0189 H         1 <0>         0.1322
     25 H4          3.3504   -0.4898   -0.0321 H         1 <0>         0.1309
     26 H5          0.4046   -2.5762   -0.0164 H         1 <0>         0.4020
     27 H6          3.0759   -2.5130   -0.9311 H         1 <0>         0.0856
     28 H7          3.0926   -2.5232    0.8488 H         1 <0>         0.0829
     29 H8          2.4049   -4.4319   -2.1778 H         1 <0>         0.1825
     30 H9          1.1597  -10.7073    0.1242 H         1 <0>         0.4210
     31 H10         1.0234  -10.7372    1.7985 H         1 <0>         0.4184
     32 H11         1.4793   -6.8789    4.3521 H         1 <0>         0.4176
     33 H12         1.7882   -5.4044    3.6084 H         1 <0>         0.4264
@<TRIPOS>BOND
     1    1    6 ar
     2    1    2 ar
     3    1   22 1
     4    2    3 ar
     5    2   23 1
     6    3    4 ar
     7    3   21 1
     8    4    5 ar
     9    4   24 1
    10    5    6 ar
    11    5   25 1
    12    6    7 1
    13    7    8 1
    14    7   26 1
    15    8    9 1
    16    8   27 1
    17    8   28 1
    18    9   14 ar
    19    9   10 ar
    20   10   11 ar
    21   10   29 1
    22   11   12 ar
    23   12   18 ar
    24   12   13 ar
    25   13   14 ar
    26   13   15 ar
    27   15   16 ar
    28   15   20 1
    29   16   17 ar
    30   17   18 ar
    31   17   19 1
    32   19   30 1
    33   19   31 1
    34   20   32 1
    35   20   33 1
@<TRIPOS>MOLECULE
ZINC03814996
   34    36     0     0     0
SMALL
USER_CHARGES

@<TRIPOS>ATOM
      1 C1          0.0021   -0.0041    0.0020 C.ar      1 <0>        -0.1747
      2 C2         -0.0167    1.3769    0.0096 C.ar      1 <0>        -0.0610
      3 C3          1.1715    2.0863    0.0021 C.ar      1 <0>        -0.0826
      4 C4          2.3813    1.4147   -0.0130 C.ar      1 <0>        -0.0611
      5 C5          2.4059    0.0338   -0.0207 C.ar      1 <0>        -0.1816
      6 C6          1.2149   -0.6808   -0.0132 C.ar      1 <0>         0.2115
      7 N1          1.2369   -2.0780   -0.0214 N.pl3     1 <0>        -0.7468
      8 C7          2.5169   -2.7904   -0.0374 C.3       1 <0>         0.1773
      9 C8          2.2649   -4.2762   -0.0435 C.ar      1 <0>         0.0743
     10 C9          2.2422   -4.9676   -1.2543 C.ar      1 <0>         0.1838
     11 N2          2.0245   -6.2653   -1.2850 N.ar      1 <0>        -0.4436
     12 C10         1.8231   -6.9266   -0.1427 C.ar      1 <0>         0.3458
     13 C11         1.8471   -6.2190    1.0850 C.ar      1 <0>        -0.0149
     14 N3          2.0737   -4.9093    1.0943 N.ar      1 <0>        -0.3475
     15 C12         1.6220   -6.9784    2.3162 C.ar      1 <0>         0.5816
     16 N4          1.4090   -8.2824    2.2057 N.ar      1 <0>        -0.5737
     17 C13         1.3997   -8.8819    1.0193 C.ar      1 <0>         0.7122
     18 N5          1.1716  -10.2441    0.9764 N.pl3     1 <0>        -0.7729
     19 N6          1.6307   -6.3595    3.5469 N.pl3     1 <0>        -0.7283
     20 Cl1         1.1442    3.8220    0.0116 Cl        1 <0>        -0.0681
     21 H1         -0.9255   -0.5572    0.0082 H         1 <0>         0.1292
     22 H2         -0.9595    1.9036    0.0169 H         1 <0>         0.1359
     23 H3          3.3070    1.9708   -0.0189 H         1 <0>         0.1359
     24 H4          3.3504   -0.4898   -0.0321 H         1 <0>         0.1305
     25 H5          0.4046   -2.5762   -0.0164 H         1 <0>         0.4014
     26 H6          3.0759   -2.5130   -0.9311 H         1 <0>         0.0985
     27 H7          3.0926   -2.5232    0.8488 H         1 <0>         0.0958
     28 H8          2.4049   -4.4319   -2.1778 H         1 <0>         0.2097
     29 H9          1.1597  -10.7073    0.1242 H         1 <0>         0.4351
     30 H10         1.0234  -10.7372    1.7985 H         1 <0>         0.4472
     31 H11         1.4793   -6.8789    4.3521 H         1 <0>         0.4381
     32 H12         1.7882   -5.4044    3.6084 H         1 <0>         0.4444
     33 N7          1.5955   -8.2850   -0.1834 N.ar      1 <0>        -0.5954
     34 H13         1.5830   -8.7638   -1.0612 H         1 <0>         0.4640
@<TRIPOS>BOND
     1    1    6 ar
     2    1    2 ar
     3    1   21 1
     4    2    3 ar
     5    2   22 1
     6    3    4 ar
     7    3   20 1
     8    4    5 ar
     9    4   23 1
    10    5    6 ar
    11    5   24 1
    12    6    7 1
    13    7    8 1
    14    7   25 1
    15    8    9 1
    16    8   26 1
    17    8   27 1
    18    9   14 ar
    19    9   10 ar
    20   10   11 ar
    21   10   28 1
    22   11   12 ar
    23   12   13 ar
    24   12   33 ar
    25   13   14 ar
    26   13   15 ar
    27   15   16 ar
    28   15   19 1
    29   16   17 ar
    30   17   18 1
    31   17   33 ar
    32   18   29 1
    33   18   30 1
    34   19   31 1
    35   19   32 1
    36   33   34 1
@<TRIPOS>MOLECULE
ZINC03814997
   44    46     0     0     0
SMALL
USER_CHARGES

@<TRIPOS>ATOM
      1 C1         -3.1516   -0.3128    1.2783 C.3       1 <0>         0.0295
      2 N1         -2.4166   -0.0361    0.0369 N.pl3     1 <0>        -0.4843
      3 C2         -3.2274   -0.3721   -1.1410 C.3       1 <0>         0.1175
      4 C3         -4.4149    0.5528   -1.2138 C.ar      1 <0>         0.0540
      5 C4         -4.3472    1.7028   -1.9996 C.ar      1 <0>         0.1626
      6 N2         -5.3714    2.5255   -2.0794 N.ar      1 <0>        -0.4419
      7 C5         -6.4883    2.2548   -1.3994 C.ar      1 <0>         0.3745
      8 C6         -6.5517    1.0847   -0.6023 C.ar      1 <0>        -0.0910
      9 N3         -5.5077    0.2645   -0.5395 N.ar      1 <0>        -0.3761
     10 C7         -7.7927    0.8219    0.1285 C.ar      1 <0>         0.5439
     11 N4         -8.7810    1.6963   -0.0009 N.ar      1 <0>        -0.6285
     12 C8         -8.6520    2.7750   -0.7669 C.ar      1 <0>         0.6398
     13 N5         -7.5581    3.0584   -1.4456 N.ar      1 <0>        -0.6019
     14 N6         -9.7217    3.6452   -0.8570 N.pl3     1 <0>        -0.8073
     15 N7         -7.9289   -0.2949    0.9234 N.pl3     1 <0>        -0.7926
     16 C9         -1.1943   -0.7175    0.0154 C.ar      1 <0>         0.0917
     17 C10        -1.1720   -2.1042    0.0019 C.ar      1 <0>        -0.1405
     18 C11         0.0405   -2.7764   -0.0129 C.ar      1 <0>         0.1003
     19 C12         1.2301   -2.0631   -0.0204 C.ar      1 <0>        -0.1665
     20 C13         1.2102   -0.6806   -0.0132 C.ar      1 <0>        -0.1657
     21 C14         0.0021   -0.0041    0.0020 C.ar      1 <0>         0.1212
     22 O1         -0.0164    1.3567    0.0095 O.3       1 <0>        -0.2940
     23 C15         1.2479    2.0227    0.0010 C.3       1 <0>         0.0231
     24 O2          0.0636   -4.1360   -0.0204 O.3       1 <0>        -0.3182
     25 C16         1.3476   -4.7630   -0.0361 C.3       1 <0>         0.0273
     26 H1         -2.5565    0.0099    2.1326 H         1 <0>         0.0691
     27 H2         -4.0974    0.2289    1.2690 H         1 <0>         0.0759
     28 H3         -3.3464   -1.3825    1.3546 H         1 <0>         0.0351
     29 H4         -2.6237   -0.2600   -2.0416 H         1 <0>         0.0998
     30 H5         -3.5738   -1.4026   -1.0618 H         1 <0>         0.0626
     31 H6         -3.4434    1.9212   -2.5490 H         1 <0>         0.1808
     32 H7         -9.6552    4.4400   -1.4090 H         1 <0>         0.4198
     33 H8        -10.5391    3.4613   -0.3681 H         1 <0>         0.4169
     34 H9         -8.7586   -0.4525    1.4005 H         1 <0>         0.4161
     35 H10        -7.1950   -0.9238    1.0060 H         1 <0>         0.4250
     36 H11        -2.0981   -2.6599    0.0077 H         1 <0>         0.1361
     37 H12         2.1736   -2.5886   -0.0315 H         1 <0>         0.1322
     38 H13         2.1380   -0.1277   -0.0190 H         1 <0>         0.1355
     39 H14         1.8003    1.7422   -0.8958 H         1 <0>         0.0537
     40 H15         1.0904    3.1013    0.0083 H         1 <0>         0.1006
     41 H16         1.8173    1.7327    0.8840 H         1 <0>         0.0524
     42 H17         1.2231   -5.8458   -0.0407 H         1 <0>         0.1006
     43 H18         1.8910   -4.4559   -0.9296 H         1 <0>         0.0555
     44 H19         1.9080   -4.4655    0.8502 H         1 <0>         0.0550
@<TRIPOS>BOND
     1    1    2 1
     2    1   26 1
     3    1   27 1
     4    1   28 1
     5    2    3 1
     6    2   16 1
     7    3    4 1
     8    3   29 1
     9    3   30 1
    10    4    9 ar
    11    4    5 ar
    12    5    6 ar
    13    5   31 1
    14    6    7 ar
    15    7   13 ar
    16    7    8 ar
    17    8    9 ar
    18    8   10 ar
    19   10   11 ar
    20   10   15 1
    21   11   12 ar
    22   12   13 ar
    23   12   14 1
    24   14   32 1
    25   14   33 1
    26   15   34 1
    27   15   35 1
    28   16   21 ar
    29   16   17 ar
    30   17   18 ar
    31   17   36 1
    32   18   19 ar
    33   18   24 1
    34   19   20 ar
    35   19   37 1
    36   20   21 ar
    37   20   38 1
    38   21   22 1
    39   22   23 1
    40   23   39 1
    41   23   40 1
    42   23   41 1
    43   24   25 1
    44   25   42 1
    45   25   43 1
    46   25   44 1
@<TRIPOS>MOLECULE
ZINC03814997
   45    47     0     0     0
SMALL
USER_CHARGES

@<TRIPOS>ATOM
      1 C1         -3.1516   -0.3128    1.2783 C.3       1 <0>         0.0248
      2 N1         -2.4166   -0.0361    0.0369 N.pl3     1 <0>        -0.4805
      3 C2         -3.2274   -0.3721   -1.1410 C.3       1 <0>         0.1005
      4 C3         -4.4149    0.5528   -1.2138 C.ar      1 <0>         0.1083
      5 C4         -4.3472    1.7028   -1.9996 C.ar      1 <0>         0.1888
      6 N2         -5.3714    2.5255   -2.0794 N.ar      1 <0>        -0.4451
      7 C5         -6.4883    2.2548   -1.3994 C.ar      1 <0>         0.3368
      8 C6         -6.5517    1.0847   -0.6023 C.ar      1 <0>        -0.0143
      9 N3         -5.5077    0.2645   -0.5395 N.ar      1 <0>        -0.3623
     10 C7         -7.7927    0.8219    0.1285 C.ar      1 <0>         0.5815
     11 N4         -8.7810    1.6963   -0.0009 N.ar      1 <0>        -0.5755
     12 C8         -8.6520    2.7750   -0.7669 C.ar      1 <0>         0.7111
     13 N5         -9.7217    3.6452   -0.8570 N.pl3     1 <0>        -0.7762
     14 N6         -7.9289   -0.2949    0.9234 N.pl3     1 <0>        -0.7321
     15 C9         -1.1943   -0.7175    0.0154 C.ar      1 <0>         0.0787
     16 C10        -1.1720   -2.1042    0.0019 C.ar      1 <0>        -0.1409
     17 C11         0.0405   -2.7764   -0.0129 C.ar      1 <0>         0.1045
     18 C12         1.2301   -2.0631   -0.0204 C.ar      1 <0>        -0.1593
     19 C13         1.2102   -0.6806   -0.0132 C.ar      1 <0>        -0.1620
     20 C14         0.0021   -0.0041    0.0020 C.ar      1 <0>         0.1236
     21 O1         -0.0164    1.3567    0.0095 O.3       1 <0>        -0.2987
     22 C15         1.2479    2.0227    0.0010 C.3       1 <0>         0.0217
     23 O2          0.0636   -4.1360   -0.0204 O.3       1 <0>        -0.3173
     24 C16         1.3476   -4.7630   -0.0361 C.3       1 <0>         0.0255
     25 H1         -2.5565    0.0099    2.1326 H         1 <0>         0.0779
     26 H2         -4.0974    0.2289    1.2690 H         1 <0>         0.0672
     27 H3         -3.3464   -1.3825    1.3546 H         1 <0>         0.0416
     28 H4         -2.6237   -0.2600   -2.0416 H         1 <0>         0.1143
     29 H5         -3.5738   -1.4026   -1.0618 H         1 <0>         0.0774
     30 H6         -3.4434    1.9212   -2.5490 H         1 <0>         0.2079
     31 H7         -9.6552    4.4400   -1.4090 H         1 <0>         0.4342
     32 H8        -10.5391    3.4613   -0.3681 H         1 <0>         0.4461
     33 H9         -8.7586   -0.4525    1.4005 H         1 <0>         0.4367
     34 H10        -7.1950   -0.9238    1.0060 H         1 <0>         0.4431
     35 H11        -2.0981   -2.6599    0.0077 H         1 <0>         0.1360
     36 H12         2.1736   -2.5886   -0.0315 H         1 <0>         0.1362
     37 H13         2.1380   -0.1277   -0.0190 H         1 <0>         0.1388
     38 H14         1.8003    1.7422   -0.8958 H         1 <0>         0.0562
     39 H15         1.0904    3.1013    0.0083 H         1 <0>         0.1019
     40 H16         1.8173    1.7327    0.8840 H         1 <0>         0.0555
     41 H17         1.2231   -5.8458   -0.0407 H         1 <0>         0.1040
     42 H18         1.8910   -4.4559   -0.9296 H         1 <0>         0.0576
     43 H19         1.9080   -4.4655    0.8502 H         1 <0>         0.0574
     44 N7         -7.5560    3.1213   -1.4878 N.ar      1 <0>        -0.5943
     45 H20        -7.4889    3.9411   -2.0566 H         1 <0>         0.4627
@<TRIPOS>BOND
     1    1    2 1
     2    1   25 1
     3    1   26 1
     4    1   27 1
     5    2    3 1
     6    2   15 1
     7    3    4 1
     8    3   28 1
     9    3   29 1
    10    4    9 ar
    11    4    5 ar
    12    5    6 ar
    13    5   30 1
    14    6    7 ar
    15    7    8 ar
    16    7   44 ar
    17    8    9 ar
    18    8   10 ar
    19   10   11 ar
    20   10   14 1
    21   11   12 ar
    22   12   13 1
    23   12   44 ar
    24   13   31 1
    25   13   32 1
    26   14   33 1
    27   14   34 1
    28   15   20 ar
    29   15   16 ar
    30   16   17 ar
    31   16   35 1
    32   17   18 ar
    33   17   23 1
    34   18   19 ar
    35   18   36 1
    36   19   20 ar
    37   19   37 1
    38   20   21 1
    39   21   22 1
    40   22   38 1
    41   22   39 1
    42   22   40 1
    43   23   24 1
    44   24   41 1
    45   24   42 1
    46   24   43 1
    47   44   45 1
@<TRIPOS>MOLECULE
ZINC03814998
   41    43     0     0     0
SMALL
USER_CHARGES

@<TRIPOS>ATOM
      1 C1         -0.1276    4.0824    0.0252 C.3       1 <0>         0.0277
      2 O1          1.1548    3.4521    0.0095 O.3       1 <0>        -0.3138
      3 C2          1.1744    2.0933    0.0021 C.ar      1 <0>         0.2081
      4 C3          2.3849    1.4177   -0.0131 C.ar      1 <0>        -0.2632
      5 C4          2.4046    0.0293   -0.0202 C.ar      1 <0>         0.2892
      6 C5          1.2117   -0.6812   -0.0127 C.ar      1 <0>        -0.2607
      7 C6          0.0021   -0.0041    0.0020 C.ar      1 <0>         0.2080
      8 C7         -0.0167    1.3827    0.0096 C.ar      1 <0>        -0.3488
      9 O2         -1.1655   -0.6993    0.0094 O.3       1 <0>        -0.3144
     10 C8         -2.3743    0.0628    0.0250 C.3       1 <0>         0.0278
     11 N1          3.6237   -0.6520   -0.0346 N.pl3     1 <0>        -0.7342
     12 C9          4.8821    0.0981   -0.0426 C.3       1 <0>         0.1883
     13 C10         6.0409   -0.8651   -0.0577 C.ar      1 <0>         0.0189
     14 C11         6.6283   -1.2195   -1.2718 C.ar      1 <0>         0.1582
     15 N2          7.6417   -2.0584   -1.3103 N.ar      1 <0>        -0.4407
     16 C12         8.1123   -2.5758   -0.1728 C.ar      1 <0>         0.3806
     17 C13         7.5116   -2.2122    1.0582 C.ar      1 <0>        -0.0934
     18 N3          6.4922   -1.3594    1.0755 N.ar      1 <0>        -0.3611
     19 C14         8.0550   -2.8001    2.2839 C.ar      1 <0>         0.5467
     20 N4          9.0763   -3.6373    2.1655 N.ar      1 <0>        -0.6281
     21 C15         9.5909   -3.9343    0.9764 C.ar      1 <0>         0.6439
     22 N5          9.1402   -3.4334   -0.1566 N.ar      1 <0>        -0.6024
     23 N6         10.6549   -4.8144    0.9253 N.pl3     1 <0>        -0.8043
     24 N7          7.5234   -2.4944    3.5175 N.pl3     1 <0>        -0.7895
     25 H1         -0.6888    3.7862   -0.8611 H         1 <0>         0.0558
     26 H2         -0.6718    3.7767    0.9187 H         1 <0>         0.0555
     27 H3         -0.0003    5.1649    0.0297 H         1 <0>         0.1011
     28 H4          3.3123    1.9712   -0.0189 H         1 <0>         0.1318
     29 H5          1.2262   -1.7611   -0.0179 H         1 <0>         0.1286
     30 H6         -0.9594    1.9097    0.0170 H         1 <0>         0.1306
     31 H7         -2.3991    0.6864    0.9186 H         1 <0>         0.0557
     32 H8         -2.4160    0.6960   -0.8612 H         1 <0>         0.0559
     33 H9         -3.2297   -0.6127    0.0295 H         1 <0>         0.1009
     34 H10         3.6372   -1.6219   -0.0393 H         1 <0>         0.4036
     35 H11         4.9229    0.7297   -0.9300 H         1 <0>         0.0873
     36 H12         4.9392    0.7213    0.8499 H         1 <0>         0.0845
     37 H13         6.2469   -0.8009   -2.1914 H         1 <0>         0.1830
     38 H14        11.0500   -5.0486    0.0709 H         1 <0>         0.4208
     39 H15        11.0067   -5.1982    1.7437 H         1 <0>         0.4181
     40 H16         7.8964   -2.8939    4.3189 H         1 <0>         0.4173
     41 H17         6.7761   -1.8796    3.5847 H         1 <0>         0.4266
@<TRIPOS>BOND
     1    1    2 1
     2    1   25 1
     3    1   26 1
     4    1   27 1
     5    2    3 1
     6    3    8 ar
     7    3    4 ar
     8    4    5 ar
     9    4   28 1
    10    5    6 ar
    11    5   11 1
    12    6    7 ar
    13    6   29 1
    14    7    8 ar
    15    7    9 1
    16    8   30 1
    17    9   10 1
    18   10   31 1
    19   10   32 1
    20   10   33 1
    21   11   12 1
    22   11   34 1
    23   12   13 1
    24   12   35 1
    25   12   36 1
    26   13   18 ar
    27   13   14 ar
    28   14   15 ar
    29   14   37 1
    30   15   16 ar
    31   16   22 ar
    32   16   17 ar
    33   17   18 ar
    34   17   19 ar
    35   19   20 ar
    36   19   24 1
    37   20   21 ar
    38   21   22 ar
    39   21   23 1
    40   23   38 1
    41   23   39 1
    42   24   40 1
    43   24   41 1
@<TRIPOS>MOLECULE
ZINC03814998
   42    44     0     0     0
SMALL
USER_CHARGES

@<TRIPOS>ATOM
      1 C1         -0.1276    4.0824    0.0252 C.3       1 <0>         0.0258
      2 O1          1.1548    3.4521    0.0095 O.3       1 <0>        -0.3128
      3 C2          1.1744    2.0933    0.0021 C.ar      1 <0>         0.2108
      4 C3          2.3849    1.4177   -0.0131 C.ar      1 <0>        -0.2622
      5 C4          2.4046    0.0293   -0.0202 C.ar      1 <0>         0.2807
      6 C5          1.2117   -0.6812   -0.0127 C.ar      1 <0>        -0.2570
      7 C6          0.0021   -0.0041    0.0020 C.ar      1 <0>         0.2113
      8 C7         -0.0167    1.3827    0.0096 C.ar      1 <0>        -0.3416
      9 O2         -1.1655   -0.6993    0.0094 O.3       1 <0>        -0.3129
     10 C8         -2.3743    0.0628    0.0250 C.3       1 <0>         0.0259
     11 N1          3.6237   -0.6520   -0.0346 N.pl3     1 <0>        -0.7413
     12 C9          4.8821    0.0981   -0.0426 C.3       1 <0>         0.1772
     13 C10         6.0409   -0.8651   -0.0577 C.ar      1 <0>         0.0756
     14 C11         6.6283   -1.2195   -1.2718 C.ar      1 <0>         0.1841
     15 N2          7.6417   -2.0584   -1.3103 N.ar      1 <0>        -0.4438
     16 C12         8.1123   -2.5758   -0.1728 C.ar      1 <0>         0.3448
     17 C13         7.5116   -2.2122    1.0582 C.ar      1 <0>        -0.0150
     18 N3          6.4922   -1.3594    1.0755 N.ar      1 <0>        -0.3473
     19 C14         8.0550   -2.8001    2.2839 C.ar      1 <0>         0.5817
     20 N4          9.0763   -3.6373    2.1655 N.ar      1 <0>        -0.5743
     21 C15         9.5909   -3.9343    0.9764 C.ar      1 <0>         0.7122
     22 N5         10.6549   -4.8144    0.9253 N.pl3     1 <0>        -0.7736
     23 N6          7.5234   -2.4944    3.5175 N.pl3     1 <0>        -0.7284
     24 H1         -0.6888    3.7862   -0.8611 H         1 <0>         0.0581
     25 H2         -0.6718    3.7767    0.9187 H         1 <0>         0.0578
     26 H3         -0.0003    5.1649    0.0297 H         1 <0>         0.1046
     27 H4          3.3123    1.9712   -0.0189 H         1 <0>         0.1312
     28 H5          1.2262   -1.7611   -0.0179 H         1 <0>         0.1294
     29 H6         -0.9594    1.9097    0.0170 H         1 <0>         0.1345
     30 H7         -2.3991    0.6864    0.9186 H         1 <0>         0.0579
     31 H8         -2.4160    0.6960   -0.8612 H         1 <0>         0.0581
     32 H9         -3.2297   -0.6127    0.0295 H         1 <0>         0.1045
     33 H10         3.6372   -1.6219   -0.0393 H         1 <0>         0.4030
     34 H11         4.9229    0.7297   -0.9300 H         1 <0>         0.1003
     35 H12         4.9392    0.7213    0.8499 H         1 <0>         0.0975
     36 H13         6.2469   -0.8009   -2.1914 H         1 <0>         0.2102
     37 H14        11.0500   -5.0486    0.0709 H         1 <0>         0.4349
     38 H15        11.0067   -5.1982    1.7437 H         1 <0>         0.4470
     39 H16         7.8964   -2.8939    4.3189 H         1 <0>         0.4378
     40 H17         6.7761   -1.8796    3.5847 H         1 <0>         0.4446
     41 N7          9.1732   -3.4537   -0.2217 N.ar      1 <0>        -0.5953
     42 H18         9.5815   -3.6960   -1.1019 H         1 <0>         0.4638
@<TRIPOS>BOND
     1    1    2 1
     2    1   24 1
     3    1   25 1
     4    1   26 1
     5    2    3 1
     6    3    8 ar
     7    3    4 ar
     8    4    5 ar
     9    4   27 1
    10    5    6 ar
    11    5   11 1
    12    6    7 ar
    13    6   28 1
    14    7    8 ar
    15    7    9 1
    16    8   29 1
    17    9   10 1
    18   10   30 1
    19   10   31 1
    20   10   32 1
    21   11   12 1
    22   11   33 1
    23   12   13 1
    24   12   34 1
    25   12   35 1
    26   13   18 ar
    27   13   14 ar
    28   14   15 ar
    29   14   36 1
    30   15   16 ar
    31   16   17 ar
    32   16   41 ar
    33   17   18 ar
    34   17   19 ar
    35   19   20 ar
    36   19   23 1
    37   20   21 ar
    38   21   22 1
    39   21   41 ar
    40   22   37 1
    41   22   38 1
    42   23   39 1
    43   23   40 1
    44   41   42 1
@<TRIPOS>MOLECULE
ZINC03814999
   36    38     0     0     0
SMALL
USER_CHARGES

@<TRIPOS>ATOM
      1 C1          7.1139    0.8185   -2.6635 C.3       1 <0>        -0.1585
      2 C2          7.7695    0.4811   -1.3492 C.ar      1 <0>         0.0616
      3 C3          7.2540    0.9402   -0.1653 C.ar      1 <0>        -0.1870
      4 C4          7.8807    0.6202    1.0327 C.ar      1 <0>         0.2115
      5 N1          8.9607   -0.1281    1.0705 N.ar      1 <0>        -0.4866
      6 C5          9.5104   -0.6050   -0.0465 C.ar      1 <0>         0.4163
      7 C6          8.9230   -0.3099   -1.3016 C.ar      1 <0>        -0.2794
      8 C7          9.5286   -0.8306   -2.4720 C.ar      1 <0>         0.5252
      9 N2         10.6195   -1.5714   -2.3377 N.ar      1 <0>        -0.6166
     10 C8         11.1393   -1.8248   -1.1401 C.ar      1 <0>         0.6251
     11 N3         10.6148   -1.3646   -0.0199 N.ar      1 <0>        -0.5905
     12 N4         12.2783   -2.6036   -1.0654 N.pl3     1 <0>        -0.8101
     13 N5          8.9979   -0.5731   -3.7169 N.pl3     1 <0>        -0.8445
     14 C9          6.0133    1.7956   -0.1633 C.3       1 <0>        -0.0561
     15 S1          4.5474    0.7344   -0.0394 S.3       1 <0>        -0.1080
     16 C10         3.1984    1.8679   -0.0492 C.ar      1 <0>        -0.0861
     17 C11         1.8931    1.3981    0.0333 C.ar      1 <0>        -0.1002
     18 C12         0.8385    2.2893    0.0249 C.ar      1 <0>        -0.1001
     19 C13         1.0799    3.6481   -0.0655 C.ar      1 <0>        -0.1246
     20 C14         2.3776    4.1194   -0.1476 C.ar      1 <0>        -0.1000
     21 C15         3.4372    3.2340   -0.1398 C.ar      1 <0>        -0.1350
     22 H1          7.6237    1.6690   -3.1161 H         1 <0>         0.0878
     23 H2          7.1766   -0.0403   -3.3318 H         1 <0>         0.1033
     24 H3          6.0672    1.0708   -2.4932 H         1 <0>         0.0869
     25 H4          7.4667    0.9926    1.9581 H         1 <0>         0.1687
     26 H5         12.6813   -2.9524   -1.8759 H         1 <0>         0.4163
     27 H6         12.6749   -2.8014   -0.2026 H         1 <0>         0.4190
     28 H7          8.6638    0.3127   -3.9279 H         1 <0>         0.4185
     29 H8          8.9583   -1.2777   -4.3824 H         1 <0>         0.4112
     30 H9          5.9677    2.3717   -1.0875 H         1 <0>         0.1001
     31 H10         6.0424    2.4759    0.6879 H         1 <0>         0.1019
     32 H11         1.7038    0.3371    0.1035 H         1 <0>         0.1275
     33 H12        -0.1762    1.9249    0.0886 H         1 <0>         0.1285
     34 H13         0.2529    4.3426   -0.0763 H         1 <0>         0.1255
     35 H14         2.5624    5.1811   -0.2180 H         1 <0>         0.1259
     36 H15         4.4503    3.6027   -0.2041 H         1 <0>         0.1226
@<TRIPOS>BOND
     1    1    2 1
     2    1   22 1
     3    1   23 1
     4    1   24 1
     5    2    7 ar
     6    2    3 ar
     7    3    4 ar
     8    3   14 1
     9    4    5 ar
    10    4   25 1
    11    5    6 ar
    12    6   11 ar
    13    6    7 ar
    14    7    8 ar
    15    8    9 ar
    16    8   13 1
    17    9   10 ar
    18   10   11 ar
    19   10   12 1
    20   12   26 1
    21   12   27 1
    22   13   28 1
    23   13   29 1
    24   14   15 1
    25   14   30 1
    26   14   31 1
    27   15   16 1
    28   16   21 ar
    29   16   17 ar
    30   17   18 ar
    31   17   32 1
    32   18   19 ar
    33   18   33 1
    34   19   20 ar
    35   19   34 1
    36   20   21 ar
    37   20   35 1
    38   21   36 1
@<TRIPOS>MOLECULE
ZINC03814999
   37    39     0     0     0
SMALL
USER_CHARGES

@<TRIPOS>ATOM
      1 C1          7.1139    0.8185   -2.6635 C.3       1 <0>        -0.1712
      2 C2          7.7695    0.4811   -1.3492 C.ar      1 <0>         0.0761
      3 C3          7.2540    0.9402   -0.1653 C.ar      1 <0>        -0.1407
      4 C4          7.8807    0.6202    1.0327 C.ar      1 <0>         0.2366
      5 N1          8.9607   -0.1281    1.0705 N.ar      1 <0>        -0.4967
      6 C5          9.5104   -0.6050   -0.0465 C.ar      1 <0>         0.4045
      7 C6          8.9230   -0.3099   -1.3016 C.ar      1 <0>        -0.2304
      8 C7          9.5286   -0.8306   -2.4720 C.ar      1 <0>         0.5812
      9 N2         10.6195   -1.5714   -2.3377 N.ar      1 <0>        -0.5713
     10 C8         11.1393   -1.8248   -1.1401 C.ar      1 <0>         0.6938
     11 N3         12.2783   -2.6036   -1.0654 N.pl3     1 <0>        -0.7780
     12 N4          8.9979   -0.5731   -3.7169 N.pl3     1 <0>        -0.8009
     13 C9          6.0133    1.7956   -0.1633 C.3       1 <0>        -0.0802
     14 S1          4.5474    0.7344   -0.0394 S.3       1 <0>        -0.0989
     15 C10         3.1984    1.8679   -0.0492 C.ar      1 <0>        -0.0937
     16 C11         1.8931    1.3981    0.0333 C.ar      1 <0>        -0.0953
     17 C12         0.8385    2.2893    0.0249 C.ar      1 <0>        -0.0973
     18 C13         1.0799    3.6481   -0.0655 C.ar      1 <0>        -0.1146
     19 C14         2.3776    4.1194   -0.1476 C.ar      1 <0>        -0.0990
     20 C15         3.4372    3.2340   -0.1398 C.ar      1 <0>        -0.1329
     21 H1          7.6237    1.6690   -3.1161 H         1 <0>         0.1076
     22 H2          7.1766   -0.0403   -3.3318 H         1 <0>         0.1095
     23 H3          6.0672    1.0708   -2.4932 H         1 <0>         0.1072
     24 H4          7.4667    0.9926    1.9581 H         1 <0>         0.1938
     25 H5         12.6813   -2.9524   -1.8759 H         1 <0>         0.4460
     26 H6         12.6749   -2.8014   -0.2026 H         1 <0>         0.4334
     27 H7          8.6638    0.3127   -3.9279 H         1 <0>         0.4365
     28 H8          8.9583   -1.2777   -4.3824 H         1 <0>         0.4316
     29 H9          5.9677    2.3717   -1.0875 H         1 <0>         0.1124
     30 H10         6.0424    2.4759    0.6879 H         1 <0>         0.1147
     31 H11         1.7038    0.3371    0.1035 H         1 <0>         0.1292
     32 H12        -0.1762    1.9249    0.0886 H         1 <0>         0.1329
     33 H13         0.2529    4.3426   -0.0763 H         1 <0>         0.1302
     34 H14         2.5624    5.1811   -0.2180 H         1 <0>         0.1295
     35 H15         4.4503    3.6027   -0.2041 H         1 <0>         0.1215
     36 N5         10.6460   -1.3806    0.0432 N.ar      1 <0>        -0.5889
     37 H16        11.1048   -1.6220    0.8983 H         1 <0>         0.4616
@<TRIPOS>BOND
     1    1    2 1
     2    1   21 1
     3    1   22 1
     4    1   23 1
     5    2    7 ar
     6    2    3 ar
     7    3    4 ar
     8    3   13 1
     9    4    5 ar
    10    4   24 1
    11    5    6 ar
    12    6    7 ar
    13    6   36 ar
    14    7    8 ar
    15    8    9 ar
    16    8   12 1
    17    9   10 ar
    18   10   11 1
    19   10   36 ar
    20   11   25 1
    21   11   26 1
    22   12   27 1
    23   12   28 1
    24   13   14 1
    25   13   29 1
    26   13   30 1
    27   14   15 1
    28   15   20 ar
    29   15   16 ar
    30   16   17 ar
    31   16   31 1
    32   17   18 ar
    33   17   32 1
    34   18   19 ar
    35   18   33 1
    36   19   20 ar
    37   19   34 1
    38   20   35 1
    39   36   37 1
@<TRIPOS>MOLECULE
ZINC03815000
   39    41     0     0     0
SMALL
USER_CHARGES

@<TRIPOS>ATOM
      1 C1          5.3335    2.6713   -6.6099 C.3       1 <0>        -0.1176
      2 C2          4.0121    2.2466   -6.0228 C.ar      1 <0>        -0.0656
      3 C3          2.8355    2.5311   -6.6921 C.ar      1 <0>        -0.1259
      4 C4          1.6206    2.1441   -6.1567 C.ar      1 <0>        -0.0953
      5 C5          1.5782    1.4715   -4.9513 C.ar      1 <0>        -0.1411
      6 C6          2.7582    1.1836   -4.2764 C.ar      1 <0>        -0.0806
      7 C7          3.9771    1.5791   -4.8148 C.ar      1 <0>        -0.1016
      8 S1          2.7090    0.3255   -2.7382 S.3       1 <0>        -0.1086
      9 C8          0.9410    0.0367   -2.4532 C.3       1 <0>        -0.0568
     10 C9          0.7558   -0.7000   -1.1516 C.ar      1 <0>        -0.1868
     11 C10         0.7523   -2.0896   -1.1325 C.ar      1 <0>         0.2121
     12 N1          0.5879   -2.7660   -0.0178 N.ar      1 <0>        -0.4866
     13 C11         0.4216   -2.1441    1.1500 C.ar      1 <0>         0.4163
     14 C12         0.4206   -0.7281    1.1993 C.ar      1 <0>        -0.2797
     15 C13         0.5951   -0.0010    0.0158 C.ar      1 <0>         0.0612
     16 C14         0.5999    1.5059    0.0247 C.3       1 <0>        -0.1555
     17 C15         0.2422   -0.0944    2.4535 C.ar      1 <0>         0.5252
     18 N2          0.0841   -0.8578    3.5257 N.ar      1 <0>        -0.6167
     19 C16         0.0913   -2.1844    3.4361 C.ar      1 <0>         0.6250
     20 N3          0.2532   -2.8240    2.2927 N.ar      1 <0>        -0.5904
     21 N4         -0.0784   -2.9256    4.5898 N.pl3     1 <0>        -0.8102
     22 N5          0.2328    1.2794    2.5563 N.pl3     1 <0>        -0.8450
     23 H1          5.5854    3.6700   -6.2532 H         1 <0>         0.0735
     24 H2          6.1094    1.9697   -6.3037 H         1 <0>         0.0686
     25 H3          5.2614    2.6813   -7.6975 H         1 <0>         0.0695
     26 H4          2.8656    3.0570   -7.6349 H         1 <0>         0.1250
     27 H5          0.7039    2.3686   -6.6817 H         1 <0>         0.1261
     28 H6          0.6290    1.1699   -4.5336 H         1 <0>         0.1221
     29 H7          4.8959    1.3609   -4.2908 H         1 <0>         0.1269
     30 H8          0.5340   -0.5600   -3.2695 H         1 <0>         0.1012
     31 H9          0.4195    0.9928   -2.4069 H         1 <0>         0.1014
     32 H10         0.8845   -2.6282   -2.0593 H         1 <0>         0.1687
     33 H11         1.5918    1.8645    0.2996 H         1 <0>         0.0924
     34 H12         0.3419    1.8759   -0.9676 H         1 <0>         0.0826
     35 H13        -0.1306    1.8673    0.7485 H         1 <0>         0.1008
     36 H14        -0.1994   -2.4769    5.4412 H         1 <0>         0.4163
     37 H15        -0.0766   -3.8947    4.5483 H         1 <0>         0.4190
     38 H16        -0.4080    1.7178    3.1376 H         1 <0>         0.4108
     39 H17         0.8670    1.8081    2.0473 H         1 <0>         0.4190
@<TRIPOS>BOND
     1    1    2 1
     2    1   23 1
     3    1   24 1
     4    1   25 1
     5    2    7 ar
     6    2    3 ar
     7    3    4 ar
     8    3   26 1
     9    4    5 ar
    10    4   27 1
    11    5    6 ar
    12    5   28 1
    13    6    7 ar
    14    6    8 1
    15    7   29 1
    16    8    9 1
    17    9   10 1
    18    9   30 1
    19    9   31 1
    20   10   15 ar
    21   10   11 ar
    22   11   12 ar
    23   11   32 1
    24   12   13 ar
    25   13   20 ar
    26   13   14 ar
    27   14   15 ar
    28   14   17 ar
    29   15   16 1
    30   16   33 1
    31   16   34 1
    32   16   35 1
    33   17   18 ar
    34   17   22 1
    35   18   19 ar
    36   19   20 ar
    37   19   21 1
    38   21   36 1
    39   21   37 1
    40   22   38 1
    41   22   39 1
@<TRIPOS>MOLECULE
ZINC03815000
   40    42     0     0     0
SMALL
USER_CHARGES

@<TRIPOS>ATOM
      1 C1          5.3335    2.6713   -6.6099 C.3       1 <0>        -0.1211
      2 C2          4.0121    2.2466   -6.0228 C.ar      1 <0>        -0.0609
      3 C3          2.8355    2.5311   -6.6921 C.ar      1 <0>        -0.1170
      4 C4          1.6206    2.1441   -6.1567 C.ar      1 <0>        -0.0940
      5 C5          1.5782    1.4715   -4.9513 C.ar      1 <0>        -0.1396
      6 C6          2.7582    1.1836   -4.2764 C.ar      1 <0>        -0.0877
      7 C7          3.9771    1.5791   -4.8148 C.ar      1 <0>        -0.0976
      8 S1          2.7090    0.3255   -2.7382 S.3       1 <0>        -0.0992
      9 C8          0.9410    0.0367   -2.4532 C.3       1 <0>        -0.0804
     10 C9          0.7558   -0.7000   -1.1516 C.ar      1 <0>        -0.1408
     11 C10         0.7523   -2.0896   -1.1325 C.ar      1 <0>         0.2376
     12 N1          0.5879   -2.7660   -0.0178 N.ar      1 <0>        -0.4976
     13 C11         0.4216   -2.1441    1.1500 C.ar      1 <0>         0.3976
     14 C12         0.4206   -0.7281    1.1993 C.ar      1 <0>        -0.2314
     15 C13         0.5951   -0.0010    0.0158 C.ar      1 <0>         0.0756
     16 C14         0.5999    1.5059    0.0247 C.3       1 <0>        -0.1683
     17 C15         0.2422   -0.0944    2.4535 C.ar      1 <0>         0.5812
     18 N2          0.0841   -0.8578    3.5257 N.ar      1 <0>        -0.5701
     19 C16         0.0913   -2.1844    3.4361 C.ar      1 <0>         0.7012
     20 N3         -0.0784   -2.9256    4.5898 N.pl3     1 <0>        -0.7776
     21 N4          0.2328    1.2794    2.5563 N.pl3     1 <0>        -0.8014
     22 H1          5.5854    3.6700   -6.2532 H         1 <0>         0.0767
     23 H2          6.1094    1.9697   -6.3037 H         1 <0>         0.0704
     24 H3          5.2614    2.6813   -7.6975 H         1 <0>         0.0729
     25 H4          2.8656    3.0570   -7.6349 H         1 <0>         0.1296
     26 H5          0.7039    2.3686   -6.6817 H         1 <0>         0.1296
     27 H6          0.6290    1.1699   -4.5336 H         1 <0>         0.1208
     28 H7          4.8959    1.3609   -4.2908 H         1 <0>         0.1285
     29 H8          0.5340   -0.5600   -3.2695 H         1 <0>         0.1140
     30 H9          0.4195    0.9928   -2.4069 H         1 <0>         0.1132
     31 H10         0.8845   -2.6282   -2.0593 H         1 <0>         0.1938
     32 H11         1.5918    1.8645    0.2996 H         1 <0>         0.1119
     33 H12         0.3419    1.8759   -0.9676 H         1 <0>         0.1032
     34 H13        -0.1306    1.8673    0.7485 H         1 <0>         0.1068
     35 H14        -0.1994   -2.4769    5.4412 H         1 <0>         0.4458
     36 H15        -0.0766   -3.8947    4.5483 H         1 <0>         0.4336
     37 H16        -0.4080    1.7178    3.1376 H         1 <0>         0.4312
     38 H17         0.8670    1.8081    2.0473 H         1 <0>         0.4371
     39 N5          0.2529   -2.8962    2.2920 N.ar      1 <0>        -0.5908
     40 H18         0.2557   -3.8947    2.2380 H         1 <0>         0.4634
@<TRIPOS>BOND
     1    1    2 1
     2    1   22 1
     3    1   23 1
     4    1   24 1
     5    2    7 ar
     6    2    3 ar
     7    3    4 ar
     8    3   25 1
     9    4    5 ar
    10    4   26 1
    11    5    6 ar
    12    5   27 1
    13    6    7 ar
    14    6    8 1
    15    7   28 1
    16    8    9 1
    17    9   10 1
    18    9   29 1
    19    9   30 1
    20   10   15 ar
    21   10   11 ar
    22   11   12 ar
    23   11   31 1
    24   12   13 ar
    25   13   14 ar
    26   13   39 ar
    27   14   15 ar
    28   14   17 ar
    29   15   16 1
    30   16   32 1
    31   16   33 1
    32   16   34 1
    33   17   18 ar
    34   17   21 1
    35   18   19 ar
    36   19   20 1
    37   19   39 ar
    38   20   35 1
    39   20   36 1
    40   21   37 1
    41   21   38 1
    42   39   40 1
@<TRIPOS>MOLECULE
ZINC03815001
   39    41     0     0     0
SMALL
USER_CHARGES

@<TRIPOS>ATOM
      1 C1          4.0551    3.2024    7.4691 C.3       1 <0>        -0.1163
      2 C2          3.2800    2.4838    6.3949 C.ar      1 <0>        -0.0895
      3 C3          1.9329    2.2254    6.5720 C.ar      1 <0>        -0.1015
      4 C4          1.2196    1.5668    5.5902 C.ar      1 <0>        -0.0950
      5 C5          1.8568    1.1638    4.4227 C.ar      1 <0>        -0.0918
      6 C6          3.2118    1.4205    4.2505 C.ar      1 <0>        -0.1296
      7 C7          3.9174    2.0846    5.2342 C.ar      1 <0>        -0.1013
      8 S1          0.9507    0.3231    3.1670 S.3       1 <0>        -0.1088
      9 C8          2.1819    0.0103    1.8721 C.3       1 <0>        -0.0559
     10 C9          1.5294   -0.7139    0.7229 C.ar      1 <0>        -0.1868
     11 C10         1.4974   -2.1032    0.7035 C.ar      1 <0>         0.2117
     12 N1          0.9366   -2.7689   -0.2811 N.ar      1 <0>        -0.4867
     13 C11         0.3715   -2.1360   -1.3098 C.ar      1 <0>         0.4162
     14 C12         0.3659   -0.7197   -1.3474 C.ar      1 <0>        -0.2796
     15 C13         0.9661   -0.0040   -0.3047 C.ar      1 <0>         0.0615
     16 C14         0.9866    1.5029   -0.3092 C.3       1 <0>        -0.1587
     17 C15        -0.2469   -0.0738   -2.4491 C.ar      1 <0>         0.5251
     18 N2         -0.7925   -0.8268   -3.3941 N.ar      1 <0>        -0.6165
     19 C16        -0.7699   -2.1541   -3.3183 C.ar      1 <0>         0.6249
     20 N3         -0.2032   -2.8048   -2.3192 N.ar      1 <0>        -0.5903
     21 N4         -1.3551   -2.8841   -4.3351 N.pl3     1 <0>        -0.8102
     22 N5         -0.2749    1.3007   -2.5366 N.pl3     1 <0>        -0.8446
     23 H1          4.4723    2.4744    8.1648 H         1 <0>         0.0720
     24 H2          4.8636    3.7739    7.0131 H         1 <0>         0.0670
     25 H3          3.3901    3.8787    8.0062 H         1 <0>         0.0677
     26 H4          1.4384    2.5389    7.4795 H         1 <0>         0.1279
     27 H5          0.1677    1.3654    5.7291 H         1 <0>         0.1277
     28 H6          3.7112    1.1048    3.3465 H         1 <0>         0.1227
     29 H7          4.9693    2.2884    5.0992 H         1 <0>         0.1254
     30 H8          2.9875   -0.6021    2.2771 H         1 <0>         0.1015
     31 H9          2.5881    0.9586    1.5203 H         1 <0>         0.0998
     32 H10         1.9451   -2.6505    1.5199 H         1 <0>         0.1687
     33 H11         1.8181    1.8531   -0.9209 H         1 <0>         0.0877
     34 H12         0.0496    1.8777   -0.7209 H         1 <0>         0.1035
     35 H13         1.1070    1.8677    0.7108 H         1 <0>         0.0870
     36 H14        -1.7705   -2.4272   -5.0831 H         1 <0>         0.4163
     37 H15        -1.3505   -3.8535   -4.3008 H         1 <0>         0.4190
     38 H16         0.5083    1.8182   -2.2924 H         1 <0>         0.4185
     39 H17        -1.0777    1.7510   -2.8425 H         1 <0>         0.4112
@<TRIPOS>BOND
     1    1    2 1
     2    1   23 1
     3    1   24 1
     4    1   25 1
     5    2    7 ar
     6    2    3 ar
     7    3    4 ar
     8    3   26 1
     9    4    5 ar
    10    4   27 1
    11    5    6 ar
    12    5    8 1
    13    6    7 ar
    14    6   28 1
    15    7   29 1
    16    8    9 1
    17    9   10 1
    18    9   30 1
    19    9   31 1
    20   10   15 ar
    21   10   11 ar
    22   11   12 ar
    23   11   32 1
    24   12   13 ar
    25   13   20 ar
    26   13   14 ar
    27   14   15 ar
    28   14   17 ar
    29   15   16 1
    30   16   33 1
    31   16   34 1
    32   16   35 1
    33   17   18 ar
    34   17   22 1
    35   18   19 ar
    36   19   20 ar
    37   19   21 1
    38   21   36 1
    39   21   37 1
    40   22   38 1
    41   22   39 1
@<TRIPOS>MOLECULE
ZINC03815001
   40    42     0     0     0
SMALL
USER_CHARGES

@<TRIPOS>ATOM
      1 C1          4.0551    3.2024    7.4691 C.3       1 <0>        -0.1213
      2 C2          3.2800    2.4838    6.3949 C.ar      1 <0>        -0.0773
      3 C3          1.9329    2.2254    6.5720 C.ar      1 <0>        -0.1000
      4 C4          1.2196    1.5668    5.5902 C.ar      1 <0>        -0.0895
      5 C5          1.8568    1.1638    4.4227 C.ar      1 <0>        -0.1003
      6 C6          3.2118    1.4205    4.2505 C.ar      1 <0>        -0.1269
      7 C7          3.9174    2.0846    5.2342 C.ar      1 <0>        -0.1014
      8 S1          0.9507    0.3231    3.1670 S.3       1 <0>        -0.0998
      9 C8          2.1819    0.0103    1.8721 C.3       1 <0>        -0.0800
     10 C9          1.5294   -0.7139    0.7229 C.ar      1 <0>        -0.1405
     11 C10         1.4974   -2.1032    0.7035 C.ar      1 <0>         0.2371
     12 N1          0.9366   -2.7689   -0.2811 N.ar      1 <0>        -0.4975
     13 C11         0.3715   -2.1360   -1.3098 C.ar      1 <0>         0.3975
     14 C12         0.3659   -0.7197   -1.3474 C.ar      1 <0>        -0.2312
     15 C13         0.9661   -0.0040   -0.3047 C.ar      1 <0>         0.0759
     16 C14         0.9866    1.5029   -0.3092 C.3       1 <0>        -0.1715
     17 C15        -0.2469   -0.0738   -2.4491 C.ar      1 <0>         0.5811
     18 N2         -0.7925   -0.8268   -3.3941 N.ar      1 <0>        -0.5700
     19 C16        -0.7699   -2.1541   -3.3183 C.ar      1 <0>         0.7011
     20 N3         -1.3551   -2.8841   -4.3351 N.pl3     1 <0>        -0.7776
     21 N4         -0.2749    1.3007   -2.5366 N.pl3     1 <0>        -0.8011
     22 H1          4.4723    2.4744    8.1648 H         1 <0>         0.0760
     23 H2          4.8636    3.7739    7.0131 H         1 <0>         0.0700
     24 H3          3.3901    3.8787    8.0062 H         1 <0>         0.0711
     25 H4          1.4384    2.5389    7.4795 H         1 <0>         0.1322
     26 H5          0.1677    1.3654    5.7291 H         1 <0>         0.1292
     27 H6          3.7112    1.1048    3.3465 H         1 <0>         0.1215
     28 H7          4.9693    2.2884    5.0992 H         1 <0>         0.1289
     29 H8          2.9875   -0.6021    2.2771 H         1 <0>         0.1143
     30 H9          2.5881    0.9586    1.5203 H         1 <0>         0.1121
     31 H10         1.9451   -2.6505    1.5199 H         1 <0>         0.1937
     32 H11         1.8181    1.8531   -0.9209 H         1 <0>         0.1074
     33 H12         0.0496    1.8777   -0.7209 H         1 <0>         0.1095
     34 H13         1.1070    1.8677    0.7108 H         1 <0>         0.1071
     35 H14        -1.7705   -2.4272   -5.0831 H         1 <0>         0.4458
     36 H15        -1.3505   -3.8535   -4.3008 H         1 <0>         0.4336
     37 H16         0.5083    1.8182   -2.2924 H         1 <0>         0.4366
     38 H17        -1.0777    1.7510   -2.8425 H         1 <0>         0.4316
     39 N5         -0.2033   -2.8770   -2.3192 N.ar      1 <0>        -0.5907
     40 H18        -0.1827   -3.8760   -2.2800 H         1 <0>         0.4634
@<TRIPOS>BOND
     1    1    2 1
     2    1   22 1
     3    1   23 1
     4    1   24 1
     5    2    7 ar
     6    2    3 ar
     7    3    4 ar
     8    3   25 1
     9    4    5 ar
    10    4   26 1
    11    5    6 ar
    12    5    8 1
    13    6    7 ar
    14    6   27 1
    15    7   28 1
    16    8    9 1
    17    9   10 1
    18    9   29 1
    19    9   30 1
    20   10   15 ar
    21   10   11 ar
    22   11   12 ar
    23   11   31 1
    24   12   13 ar
    25   13   14 ar
    26   13   39 ar
    27   14   15 ar
    28   14   17 ar
    29   15   16 1
    30   16   32 1
    31   16   33 1
    32   16   34 1
    33   17   18 ar
    34   17   21 1
    35   18   19 ar
    36   19   20 1
    37   19   39 ar
    38   20   35 1
    39   20   36 1
    40   21   37 1
    41   21   38 1
    42   39   40 1
@<TRIPOS>MOLECULE
ZINC03815002
   40    42     0     0     0
SMALL
USER_CHARGES

@<TRIPOS>ATOM
      1 C1         -0.4707    8.9825    5.9513 C.3       1 <0>        -0.1588
      2 C2         -1.9492    9.2634    5.8730 C.ar      1 <0>         0.0620
      3 C3         -2.6303    9.1337    4.6908 C.ar      1 <0>        -0.1873
      4 C4         -3.9921    9.4046    4.6435 C.ar      1 <0>         0.2116
      5 N1         -4.6615    9.7758    5.7121 N.ar      1 <0>        -0.4866
      6 C5         -4.0562    9.9200    6.8912 C.ar      1 <0>         0.4164
      7 C6         -2.6672    9.6648    7.0052 C.ar      1 <0>        -0.2795
      8 C7         -2.0506    9.8259    8.2707 C.ar      1 <0>         0.5253
      9 N2         -2.8041   10.2089    9.2916 N.ar      1 <0>        -0.6167
     10 C8         -4.1055   10.4383    9.1420 C.ar      1 <0>         0.6252
     11 N3         -4.7282   10.3032    7.9862 N.ar      1 <0>        -0.5905
     12 N4         -4.8375   10.8358   10.2445 N.pl3     1 <0>        -0.8102
     13 N5         -0.7032    9.5911    8.4355 N.pl3     1 <0>        -0.8445
     14 C9         -1.9022    8.7041    3.4432 C.3       1 <0>        -0.0580
     15 S1         -1.9413    6.8952    3.3129 S.3       1 <0>        -0.0950
     16 C10        -1.0614    6.5560    1.8246 C.ar      1 <0>        -0.0485
     17 C11        -0.5372    7.6009    1.0720 C.ar      1 <0>        -0.1724
     18 C12         0.1516    7.3346   -0.0949 C.ar      1 <0>        -0.0586
     19 C13         0.3216    6.0296   -0.5179 C.ar      1 <0>        -0.2138
     20 C14        -0.1989    4.9822    0.2293 C.ar      1 <0>         0.1475
     21 C15        -0.8954    5.2449    1.3983 C.ar      1 <0>        -0.1346
     22 O1         -0.0306    3.6999   -0.1882 O.3       1 <0>        -0.3151
     23 C16         0.6924    3.5034   -1.4051 C.3       1 <0>         0.0264
     24 H1          0.0816    9.9192    5.8755 H         1 <0>         0.0880
     25 H2         -0.2421    8.5018    6.9025 H         1 <0>         0.1034
     26 H3         -0.1822    8.3234    5.1325 H         1 <0>         0.0872
     27 H4         -4.5158    9.3032    3.7044 H         1 <0>         0.1690
     28 H5         -4.4008   10.9419   11.1041 H         1 <0>         0.4163
     29 H6         -5.7881   11.0087   10.1588 H         1 <0>         0.4190
     30 H7         -0.0729    9.8895    7.7612 H         1 <0>         0.4185
     31 H8         -0.3848    9.1275    9.2257 H         1 <0>         0.4112
     32 H9         -0.8673    9.0426    3.4917 H         1 <0>         0.1013
     33 H10        -2.3871    9.1418    2.5706 H         1 <0>         0.1033
     34 H11        -0.6689    8.6214    1.4001 H         1 <0>         0.1251
     35 H12         0.5578    8.1475   -0.6784 H         1 <0>         0.1293
     36 H13         0.8602    5.8247   -1.4313 H         1 <0>         0.1310
     37 H14        -1.3053    4.4313    1.9784 H         1 <0>         0.1359
     38 H15         0.7542    2.4372   -1.6229 H         1 <0>         0.1026
     39 H16         1.6976    3.9117   -1.3004 H         1 <0>         0.0571
     40 H17         0.1769    4.0115   -2.2201 H         1 <0>         0.0574
@<TRIPOS>BOND
     1    1    2 1
     2    1   24 1
     3    1   25 1
     4    1   26 1
     5    2    7 ar
     6    2    3 ar
     7    3    4 ar
     8    3   14 1
     9    4    5 ar
    10    4   27 1
    11    5    6 ar
    12    6   11 ar
    13    6    7 ar
    14    7    8 ar
    15    8    9 ar
    16    8   13 1
    17    9   10 ar
    18   10   11 ar
    19   10   12 1
    20   12   28 1
    21   12   29 1
    22   13   30 1
    23   13   31 1
    24   14   15 1
    25   14   32 1
    26   14   33 1
    27   15   16 1
    28   16   21 ar
    29   16   17 ar
    30   17   18 ar
    31   17   34 1
    32   18   19 ar
    33   18   35 1
    34   19   20 ar
    35   19   36 1
    36   20   21 ar
    37   20   22 1
    38   21   37 1
    39   22   23 1
    40   23   38 1
    41   23   39 1
    42   23   40 1
@<TRIPOS>MOLECULE
ZINC03815002
   41    43     0     0     0
SMALL
USER_CHARGES

@<TRIPOS>ATOM
      1 C1         -0.4707    8.9825    5.9513 C.3       1 <0>        -0.1715
      2 C2         -1.9492    9.2634    5.8730 C.ar      1 <0>         0.0765
      3 C3         -2.6303    9.1337    4.6908 C.ar      1 <0>        -0.1410
      4 C4         -3.9921    9.4046    4.6435 C.ar      1 <0>         0.2368
      5 N1         -4.6615    9.7758    5.7121 N.ar      1 <0>        -0.4968
      6 C5         -4.0562    9.9200    6.8912 C.ar      1 <0>         0.4047
      7 C6         -2.6672    9.6648    7.0052 C.ar      1 <0>        -0.2305
      8 C7         -2.0506    9.8259    8.2707 C.ar      1 <0>         0.5813
      9 N2         -2.8041   10.2089    9.2916 N.ar      1 <0>        -0.5714
     10 C8         -4.1055   10.4383    9.1420 C.ar      1 <0>         0.6939
     11 N3         -4.8375   10.8358   10.2445 N.pl3     1 <0>        -0.7781
     12 N4         -0.7032    9.5911    8.4355 N.pl3     1 <0>        -0.8009
     13 C9         -1.9022    8.7041    3.4432 C.3       1 <0>        -0.0820
     14 S1         -1.9413    6.8952    3.3129 S.3       1 <0>        -0.0864
     15 C10        -1.0614    6.5560    1.8246 C.ar      1 <0>        -0.0550
     16 C11        -0.5372    7.6009    1.0720 C.ar      1 <0>        -0.1720
     17 C12         0.1516    7.3346   -0.0949 C.ar      1 <0>        -0.0567
     18 C13         0.3216    6.0296   -0.5179 C.ar      1 <0>        -0.2060
     19 C14        -0.1989    4.9822    0.2293 C.ar      1 <0>         0.1519
     20 C15        -0.8954    5.2449    1.3983 C.ar      1 <0>        -0.1313
     21 O1         -0.0306    3.6999   -0.1882 O.3       1 <0>        -0.3132
     22 C16         0.6924    3.5034   -1.4051 C.3       1 <0>         0.0246
     23 H1          0.0816    9.9192    5.8755 H         1 <0>         0.1077
     24 H2         -0.2421    8.5018    6.9025 H         1 <0>         0.1096
     25 H3         -0.1822    8.3234    5.1325 H         1 <0>         0.1075
     26 H4         -4.5158    9.3032    3.7044 H         1 <0>         0.1941
     27 H5         -4.4008   10.9419   11.1041 H         1 <0>         0.4460
     28 H6         -5.7881   11.0087   10.1588 H         1 <0>         0.4334
     29 H7         -0.0729    9.8895    7.7612 H         1 <0>         0.4366
     30 H8         -0.3848    9.1275    9.2257 H         1 <0>         0.4315
     31 H9         -0.8673    9.0426    3.4917 H         1 <0>         0.1137
     32 H10        -2.3871    9.1418    2.5706 H         1 <0>         0.1161
     33 H11        -0.6689    8.6214    1.4001 H         1 <0>         0.1238
     34 H12         0.5578    8.1475   -0.6784 H         1 <0>         0.1326
     35 H13         0.8602    5.8247   -1.4313 H         1 <0>         0.1352
     36 H14        -1.3053    4.4313    1.9784 H         1 <0>         0.1373
     37 H15         0.7542    2.4372   -1.6229 H         1 <0>         0.1062
     38 H16         1.6976    3.9117   -1.3004 H         1 <0>         0.0593
     39 H17         0.1769    4.0115   -2.2201 H         1 <0>         0.0596
     40 N5         -4.7990   10.3166    7.9822 N.ar      1 <0>        -0.5889
     41 H18        -5.7798   10.5107    7.9633 H         1 <0>         0.4616
@<TRIPOS>BOND
     1    1    2 1
     2    1   23 1
     3    1   24 1
     4    1   25 1
     5    2    7 ar
     6    2    3 ar
     7    3    4 ar
     8    3   13 1
     9    4    5 ar
    10    4   26 1
    11    5    6 ar
    12    6    7 ar
    13    6   40 ar
    14    7    8 ar
    15    8    9 ar
    16    8   12 1
    17    9   10 ar
    18   10   11 1
    19   10   40 ar
    20   11   27 1
    21   11   28 1
    22   12   29 1
    23   12   30 1
    24   13   14 1
    25   13   31 1
    26   13   32 1
    27   14   15 1
    28   15   20 ar
    29   15   16 ar
    30   16   17 ar
    31   16   33 1
    32   17   18 ar
    33   17   34 1
    34   18   19 ar
    35   18   35 1
    36   19   20 ar
    37   19   21 1
    38   20   36 1
    39   21   22 1
    40   22   37 1
    41   22   38 1
    42   22   39 1
    43   40   41 1
@<TRIPOS>MOLECULE
ZINC03815003
   40    42     0     0     0
SMALL
USER_CHARGES

@<TRIPOS>ATOM
      1 C1          0.9878    1.5025   -0.3097 C.3       1 <0>        -0.1587
      2 C2          0.9672   -0.0044   -0.3053 C.ar      1 <0>         0.0615
      3 C3          1.5310   -0.7147    0.7222 C.ar      1 <0>        -0.1864
      4 C4          1.4984   -2.1035    0.7029 C.ar      1 <0>         0.2114
      5 N1          0.9365   -2.7691   -0.2816 N.ar      1 <0>        -0.4868
      6 C5          0.3711   -2.1360   -1.3096 C.ar      1 <0>         0.4160
      7 C6          0.3665   -0.7196   -1.3474 C.ar      1 <0>        -0.2792
      8 C7         -0.2470   -0.0735   -2.4491 C.ar      1 <0>         0.5251
      9 N2         -0.7934   -0.8262   -3.3934 N.ar      1 <0>        -0.6166
     10 C8         -0.7713   -2.1537   -3.3176 C.ar      1 <0>         0.6249
     11 N3         -0.2051   -2.8047   -2.3187 N.ar      1 <0>        -0.5904
     12 N4         -1.3580   -2.8835   -4.3337 N.pl3     1 <0>        -0.8103
     13 N5         -0.2745    1.3010   -2.5368 N.pl3     1 <0>        -0.8446
     14 C9          2.1847    0.0093    1.8709 C.3       1 <0>        -0.0563
     15 S1          0.9545    0.3226    3.1667 S.3       1 <0>        -0.1069
     16 C10         1.8619    1.1630    4.4217 C.ar      1 <0>        -0.1235
     17 C11         3.2163    1.4183    4.2474 C.ar      1 <0>        -0.0924
     18 C12         3.9254    2.0812    5.2296 C.ar      1 <0>        -0.1890
     19 C13         3.2882    2.4828    6.3945 C.ar      1 <0>         0.1246
     20 C14         1.9371    2.2237    6.5718 C.ar      1 <0>        -0.1319
     21 C15         1.2248    1.5656    5.5887 C.ar      1 <0>        -0.0581
     22 O1          3.9886    3.1314    7.3632 O.3       1 <0>        -0.3159
     23 C16         5.3762    3.3651    7.1142 C.3       1 <0>         0.0259
     24 H1          1.8190    1.8527   -0.9217 H         1 <0>         0.0873
     25 H2          0.0506    1.8775   -0.7209 H         1 <0>         0.1035
     26 H3          1.1087    1.8671    0.7104 H         1 <0>         0.0873
     27 H4          1.9465   -2.6510    1.5189 H         1 <0>         0.1687
     28 H5         -1.7740   -2.4264   -5.0813 H         1 <0>         0.4163
     29 H6         -1.3538   -3.8529   -4.2994 H         1 <0>         0.4190
     30 H7          0.5090    1.8183   -2.2927 H         1 <0>         0.4184
     31 H8         -1.0772    1.7516   -2.8425 H         1 <0>         0.4112
     32 H9          2.9903   -0.6035    2.2753 H         1 <0>         0.1009
     33 H10         2.5911    0.9574    1.5188 H         1 <0>         0.0991
     34 H11         3.7135    1.1021    3.3423 H         1 <0>         0.1257
     35 H12         4.9773    2.2837    5.0924 H         1 <0>         0.1318
     36 H13         1.4420    2.5365    7.4793 H         1 <0>         0.1375
     37 H14         0.1728    1.3643    5.7269 H         1 <0>         0.1357
     38 H15         5.8146    3.8889    7.9637 H         1 <0>         0.1023
     39 H16         5.8856    2.4118    6.9730 H         1 <0>         0.0564
     40 H17         5.4869    3.9727    6.2161 H         1 <0>         0.0561
@<TRIPOS>BOND
     1    1    2 1
     2    1   24 1
     3    1   25 1
     4    1   26 1
     5    2    7 ar
     6    2    3 ar
     7    3    4 ar
     8    3   14 1
     9    4    5 ar
    10    4   27 1
    11    5    6 ar
    12    6   11 ar
    13    6    7 ar
    14    7    8 ar
    15    8    9 ar
    16    8   13 1
    17    9   10 ar
    18   10   11 ar
    19   10   12 1
    20   12   28 1
    21   12   29 1
    22   13   30 1
    23   13   31 1
    24   14   15 1
    25   14   32 1
    26   14   33 1
    27   15   16 1
    28   16   21 ar
    29   16   17 ar
    30   17   18 ar
    31   17   34 1
    32   18   19 ar
    33   18   35 1
    34   19   20 ar
    35   19   22 1
    36   20   21 ar
    37   20   36 1
    38   21   37 1
    39   22   23 1
    40   23   38 1
    41   23   39 1
    42   23   40 1
@<TRIPOS>MOLECULE
ZINC03815003
   41    43     0     0     0
SMALL
USER_CHARGES

@<TRIPOS>ATOM
      1 C1          0.9878    1.5025   -0.3097 C.3       1 <0>        -0.1714
      2 C2          0.9672   -0.0044   -0.3053 C.ar      1 <0>         0.0760
      3 C3          1.5310   -0.7147    0.7222 C.ar      1 <0>        -0.1401
      4 C4          1.4984   -2.1035    0.7029 C.ar      1 <0>         0.2365
      5 N1          0.9365   -2.7691   -0.2816 N.ar      1 <0>        -0.4969
      6 C5          0.3711   -2.1360   -1.3096 C.ar      1 <0>         0.4043
      7 C6          0.3665   -0.7196   -1.3474 C.ar      1 <0>        -0.2303
      8 C7         -0.2470   -0.0735   -2.4491 C.ar      1 <0>         0.5812
      9 N2         -0.7934   -0.8262   -3.3934 N.ar      1 <0>        -0.5714
     10 C8         -0.7713   -2.1537   -3.3176 C.ar      1 <0>         0.6938
     11 N3         -1.3580   -2.8835   -4.3337 N.pl3     1 <0>        -0.7781
     12 N4         -0.2745    1.3010   -2.5368 N.pl3     1 <0>        -0.8011
     13 C9          2.1847    0.0093    1.8709 C.3       1 <0>        -0.0805
     14 S1          0.9545    0.3226    3.1667 S.3       1 <0>        -0.0973
     15 C10         1.8619    1.1630    4.4217 C.ar      1 <0>        -0.1332
     16 C11         3.2163    1.4183    4.2474 C.ar      1 <0>        -0.0889
     17 C12         3.9254    2.0812    5.2296 C.ar      1 <0>        -0.1904
     18 C13         3.2882    2.4828    6.3945 C.ar      1 <0>         0.1362
     19 C14         1.9371    2.2237    6.5718 C.ar      1 <0>        -0.1312
     20 C15         1.2248    1.5656    5.5887 C.ar      1 <0>        -0.0524
     21 O1          3.9886    3.1314    7.3632 O.3       1 <0>        -0.3124
     22 C16         5.3762    3.3651    7.1142 C.3       1 <0>         0.0244
     23 H1          1.8190    1.8527   -0.9217 H         1 <0>         0.1072
     24 H2          0.0506    1.8775   -0.7209 H         1 <0>         0.1096
     25 H3          1.1087    1.8671    0.7104 H         1 <0>         0.1076
     26 H4          1.9465   -2.6510    1.5189 H         1 <0>         0.1937
     27 H5         -1.7740   -2.4264   -5.0813 H         1 <0>         0.4460
     28 H6         -1.3538   -3.8529   -4.2994 H         1 <0>         0.4334
     29 H7          0.5090    1.8183   -2.2927 H         1 <0>         0.4365
     30 H8         -1.0772    1.7516   -2.8425 H         1 <0>         0.4315
     31 H9          2.9903   -0.6035    2.2753 H         1 <0>         0.1137
     32 H10         2.5911    0.9574    1.5188 H         1 <0>         0.1115
     33 H11         3.7135    1.1021    3.3423 H         1 <0>         0.1243
     34 H12         4.9773    2.2837    5.0924 H         1 <0>         0.1350
     35 H13         1.4420    2.5365    7.4793 H         1 <0>         0.1415
     36 H14         0.1728    1.3643    5.7269 H         1 <0>         0.1370
     37 H15         5.8146    3.8889    7.9637 H         1 <0>         0.1061
     38 H16         5.8856    2.4118    6.9730 H         1 <0>         0.0580
     39 H17         5.4869    3.9727    6.2161 H         1 <0>         0.0577
     40 N5         -0.2053   -2.8768   -2.3186 N.ar      1 <0>        -0.5889
     41 H18        -0.2267   -3.8761   -2.3507 H         1 <0>         0.4616
@<TRIPOS>BOND
     1    1    2 1
     2    1   23 1
     3    1   24 1
     4    1   25 1
     5    2    7 ar
     6    2    3 ar
     7    3    4 ar
     8    3   13 1
     9    4    5 ar
    10    4   26 1
    11    5    6 ar
    12    6    7 ar
    13    6   40 ar
    14    7    8 ar
    15    8    9 ar
    16    8   12 1
    17    9   10 ar
    18   10   11 1
    19   10   40 ar
    20   11   27 1
    21   11   28 1
    22   12   29 1
    23   12   30 1
    24   13   14 1
    25   13   31 1
    26   13   32 1
    27   14   15 1
    28   15   20 ar
    29   15   16 ar
    30   16   17 ar
    31   16   33 1
    32   17   18 ar
    33   17   34 1
    34   18   19 ar
    35   18   21 1
    36   19   20 ar
    37   19   35 1
    38   20   36 1
    39   21   22 1
    40   22   37 1
    41   22   38 1
    42   22   39 1
    43   40   41 1
@<TRIPOS>MOLECULE
ZINC03815004
   44    46     0     0     0
SMALL
USER_CHARGES

@<TRIPOS>ATOM
      1 C1          0.6002    1.5059    0.0247 C.3       1 <0>        -0.1557
      2 C2          0.5954   -0.0010    0.0159 C.ar      1 <0>         0.0615
      3 C3          0.7562   -0.7002   -1.1519 C.ar      1 <0>        -0.1870
      4 C4          0.7510   -2.0894   -1.1330 C.ar      1 <0>         0.2118
      5 N1          0.5873   -2.7658   -0.0179 N.ar      1 <0>        -0.4867
      6 C5          0.4217   -2.1439    1.1497 C.ar      1 <0>         0.4164
      7 C6          0.4208   -0.7279    1.1990 C.ar      1 <0>        -0.2796
      8 C7          0.2422   -0.0940    2.4535 C.ar      1 <0>         0.5253
      9 N2          0.0840   -0.8573    3.5254 N.ar      1 <0>        -0.6166
     10 C8          0.0912   -2.1842    3.4358 C.ar      1 <0>         0.6252
     11 N3          0.2532   -2.8238    2.2928 N.ar      1 <0>        -0.5905
     12 N4         -0.0787   -2.9254    4.5895 N.pl3     1 <0>        -0.8102
     13 N5          0.2328    1.2797    2.5563 N.pl3     1 <0>        -0.8449
     14 C9          0.9415    0.0365   -2.4534 C.3       1 <0>        -0.0572
     15 S1          2.7095    0.3253   -2.7384 S.3       1 <0>        -0.1030
     16 C10         2.7588    1.1833   -4.2766 C.ar      1 <0>        -0.0824
     17 C11         1.5786    1.4653   -4.9529 C.ar      1 <0>        -0.1296
     18 C12         1.6155    2.1428   -6.1567 C.ar      1 <0>        -0.1528
     19 C13         2.8302    2.5331   -6.6969 C.ar      1 <0>         0.0966
     20 C14         4.0147    2.2473   -6.0250 C.ar      1 <0>         0.1202
     21 C15         3.9780    1.5729   -4.8158 C.ar      1 <0>        -0.1543
     22 O1          5.2072    2.6301   -6.5549 O.3       1 <0>        -0.3027
     23 C16         6.3825    2.3039   -5.8104 C.3       1 <0>         0.0238
     24 O2          2.8649    3.1957   -7.8852 O.3       1 <0>        -0.3049
     25 C17         1.6112    3.4557   -8.5198 C.3       1 <0>         0.0251
     26 H1          1.5921    1.8645    0.2998 H         1 <0>         0.0925
     27 H2          0.3423    1.8759   -0.9676 H         1 <0>         0.0829
     28 H3         -0.1304    1.8673    0.7485 H         1 <0>         0.1007
     29 H4          0.8826   -2.6280   -2.0598 H         1 <0>         0.1688
     30 H5         -0.1998   -2.4766    5.4409 H         1 <0>         0.4163
     31 H6         -0.0769   -3.8945    4.5480 H         1 <0>         0.4190
     32 H7         -0.4080    1.7182    3.1377 H         1 <0>         0.4109
     33 H8          0.8670    1.8085    2.0474 H         1 <0>         0.4190
     34 H9          0.5346   -0.5603   -3.2698 H         1 <0>         0.1019
     35 H10         0.4200    0.9925   -2.4073 H         1 <0>         0.1020
     36 H11         0.6310    1.1580   -4.5356 H         1 <0>         0.1282
     37 H12         0.6966    2.3648   -6.6791 H         1 <0>         0.1394
     38 H13         4.8963    1.3499   -4.2931 H         1 <0>         0.1409
     39 H14         6.4486    1.2224   -5.6914 H         1 <0>         0.0570
     40 H15         7.2620    2.6652   -6.3433 H         1 <0>         0.1034
     41 H16         6.3334    2.7752   -4.8288 H         1 <0>         0.0565
     42 H17         1.1054    2.5123   -8.7252 H         1 <0>         0.0556
     43 H18         0.9908    4.0651   -7.8627 H         1 <0>         0.0553
     44 H19         1.7812    3.9881   -9.4556 H         1 <0>         0.1023
@<TRIPOS>BOND
     1    1    2 1
     2    1   26 1
     3    1   27 1
     4    1   28 1
     5    2    7 ar
     6    2    3 ar
     7    3    4 ar
     8    3   14 1
     9    4    5 ar
    10    4   29 1
    11    5    6 ar
    12    6   11 ar
    13    6    7 ar
    14    7    8 ar
    15    8    9 ar
    16    8   13 1
    17    9   10 ar
    18   10   11 ar
    19   10   12 1
    20   12   30 1
    21   12   31 1
    22   13   32 1
    23   13   33 1
    24   14   15 1
    25   14   34 1
    26   14   35 1
    27   15   16 1
    28   16   21 ar
    29   16   17 ar
    30   17   18 ar
    31   17   36 1
    32   18   19 ar
    33   18   37 1
    34   19   20 ar
    35   19   24 1
    36   20   21 ar
    37   20   22 1
    38   21   38 1
    39   22   23 1
    40   23   39 1
    41   23   40 1
    42   23   41 1
    43   24   25 1
    44   25   42 1
    45   25   43 1
    46   25   44 1
@<TRIPOS>MOLECULE
ZINC03815004
   45    47     0     0     0
SMALL
USER_CHARGES

@<TRIPOS>ATOM
      1 C1          0.6002    1.5059    0.0247 C.3       1 <0>        -0.1684
      2 C2          0.5954   -0.0010    0.0159 C.ar      1 <0>         0.0760
      3 C3          0.7562   -0.7002   -1.1519 C.ar      1 <0>        -0.1408
      4 C4          0.7510   -2.0894   -1.1330 C.ar      1 <0>         0.2371
      5 N1          0.5873   -2.7658   -0.0179 N.ar      1 <0>        -0.4970
      6 C5          0.4217   -2.1439    1.1497 C.ar      1 <0>         0.4046
      7 C6          0.4208   -0.7279    1.1990 C.ar      1 <0>        -0.2306
      8 C7          0.2422   -0.0940    2.4535 C.ar      1 <0>         0.5814
      9 N2          0.0840   -0.8573    3.5254 N.ar      1 <0>        -0.5714
     10 C8          0.0912   -2.1842    3.4358 C.ar      1 <0>         0.6938
     11 N3         -0.0787   -2.9254    4.5895 N.pl3     1 <0>        -0.7781
     12 N4          0.2328    1.2797    2.5563 N.pl3     1 <0>        -0.8013
     13 C9          0.9415    0.0365   -2.4534 C.3       1 <0>        -0.0808
     14 S1          2.7095    0.3253   -2.7384 S.3       1 <0>        -0.0936
     15 C10         2.7588    1.1833   -4.2766 C.ar      1 <0>        -0.0910
     16 C11         1.5786    1.4653   -4.9529 C.ar      1 <0>        -0.1269
     17 C12         1.6155    2.1428   -6.1567 C.ar      1 <0>        -0.1546
     18 C13         2.8302    2.5331   -6.6969 C.ar      1 <0>         0.1072
     19 C14         4.0147    2.2473   -6.0250 C.ar      1 <0>         0.1229
     20 C15         3.9780    1.5729   -4.8158 C.ar      1 <0>        -0.1513
     21 O1          5.2072    2.6301   -6.5549 O.3       1 <0>        -0.2994
     22 C16         6.3825    2.3039   -5.8104 C.3       1 <0>         0.0231
     23 O2          2.8649    3.1957   -7.8852 O.3       1 <0>        -0.3016
     24 C17         1.6112    3.4557   -8.5198 C.3       1 <0>         0.0237
     25 H1          1.5921    1.8645    0.2998 H         1 <0>         0.1120
     26 H2          0.3423    1.8759   -0.9676 H         1 <0>         0.1036
     27 H3         -0.1304    1.8673    0.7485 H         1 <0>         0.1068
     28 H4          0.8826   -2.6280   -2.0598 H         1 <0>         0.1939
     29 H5         -0.1998   -2.4766    5.4409 H         1 <0>         0.4460
     30 H6         -0.0769   -3.8945    4.5480 H         1 <0>         0.4334
     31 H7         -0.4080    1.7182    3.1377 H         1 <0>         0.4312
     32 H8          0.8670    1.8085    2.0474 H         1 <0>         0.4370
     33 H9          0.5346   -0.5603   -3.2698 H         1 <0>         0.1147
     34 H10         0.4200    0.9925   -2.4073 H         1 <0>         0.1138
     35 H11         0.6310    1.1580   -4.5356 H         1 <0>         0.1266
     36 H12         0.6966    2.3648   -6.6791 H         1 <0>         0.1424
     37 H13         4.8963    1.3499   -4.2931 H         1 <0>         0.1420
     38 H14         6.4486    1.2224   -5.6914 H         1 <0>         0.0574
     39 H15         7.2620    2.6652   -6.3433 H         1 <0>         0.1068
     40 H16         6.3334    2.7752   -4.8288 H         1 <0>         0.0569
     41 H17         1.1054    2.5123   -8.7252 H         1 <0>         0.0572
     42 H18         0.9908    4.0651   -7.8627 H         1 <0>         0.0569
     43 H19         1.7812    3.9881   -9.4556 H         1 <0>         0.1060
     44 N5          0.2529   -2.8960    2.2921 N.ar      1 <0>        -0.5889
     45 H20         0.2440   -3.8956    2.3198 H         1 <0>         0.4616
@<TRIPOS>BOND
     1    1    2 1
     2    1   25 1
     3    1   26 1
     4    1   27 1
     5    2    7 ar
     6    2    3 ar
     7    3    4 ar
     8    3   13 1
     9    4    5 ar
    10    4   28 1
    11    5    6 ar
    12    6    7 ar
    13    6   44 ar
    14    7    8 ar
    15    8    9 ar
    16    8   12 1
    17    9   10 ar
    18   10   11 1
    19   10   44 ar
    20   11   29 1
    21   11   30 1
    22   12   31 1
    23   12   32 1
    24   13   14 1
    25   13   33 1
    26   13   34 1
    27   14   15 1
    28   15   20 ar
    29   15   16 ar
    30   16   17 ar
    31   16   35 1
    32   17   18 ar
    33   17   36 1
    34   18   19 ar
    35   18   23 1
    36   19   20 ar
    37   19   21 1
    38   20   37 1
    39   21   22 1
    40   22   38 1
    41   22   39 1
    42   22   40 1
    43   23   24 1
    44   24   41 1
    45   24   42 1
    46   24   43 1
    47   44   45 1
@<TRIPOS>MOLECULE
ZINC03815005
   36    38     0     0     0
SMALL
USER_CHARGES

@<TRIPOS>ATOM
      1 C1          0.6002    1.5059    0.0247 C.3       1 <0>        -0.1563
      2 C2          0.5954   -0.0010    0.0159 C.ar      1 <0>         0.0625
      3 C3          0.7562   -0.7002   -1.1519 C.ar      1 <0>        -0.1883
      4 C4          0.7510   -2.0894   -1.1330 C.ar      1 <0>         0.2122
      5 N1          0.5873   -2.7658   -0.0179 N.ar      1 <0>        -0.4862
      6 C5          0.4217   -2.1439    1.1497 C.ar      1 <0>         0.4171
      7 C6          0.4208   -0.7279    1.1990 C.ar      1 <0>        -0.2798
      8 C7          0.2422   -0.0940    2.4535 C.ar      1 <0>         0.5257
      9 N2          0.0840   -0.8573    3.5254 N.ar      1 <0>        -0.6165
     10 C8          0.0912   -2.1842    3.4358 C.ar      1 <0>         0.6256
     11 N3          0.2532   -2.8238    2.2928 N.ar      1 <0>        -0.5905
     12 N4         -0.0787   -2.9254    4.5895 N.pl3     1 <0>        -0.8098
     13 N5          0.2328    1.2797    2.5563 N.pl3     1 <0>        -0.8448
     14 C9          0.9415    0.0365   -2.4534 C.3       1 <0>        -0.0606
     15 S1          2.7095    0.3253   -2.7384 S.3       1 <0>        -0.0929
     16 C10         2.7588    1.1833   -4.2766 C.ar      1 <0>        -0.0749
     17 C11         3.9782    1.5739   -4.8176 C.ar      1 <0>        -0.0964
     18 C12         4.0138    2.2456   -6.0233 C.ar      1 <0>        -0.0854
     19 C13         2.8380    2.5305   -6.6933 C.ar      1 <0>        -0.1165
     20 C14         1.6217    2.1430   -6.1584 C.ar      1 <0>        -0.0146
     21 C15         1.5793    1.4660   -4.9542 C.ar      1 <0>        -0.1283
     22 Cl1         0.1486    2.5024   -7.0037 Cl        1 <0>        -0.0637
     23 H1          1.5921    1.8645    0.2998 H         1 <0>         0.0929
     24 H2          0.3423    1.8759   -0.9676 H         1 <0>         0.0827
     25 H3         -0.1304    1.8673    0.7485 H         1 <0>         0.1014
     26 H4          0.8826   -2.6280   -2.0598 H         1 <0>         0.1690
     27 H5         -0.1998   -2.4766    5.4409 H         1 <0>         0.4165
     28 H6         -0.0769   -3.8945    4.5480 H         1 <0>         0.4192
     29 H7         -0.4080    1.7182    3.1377 H         1 <0>         0.4111
     30 H8          0.8670    1.8085    2.0474 H         1 <0>         0.4190
     31 H9          0.5346   -0.5603   -3.2698 H         1 <0>         0.1031
     32 H10         0.4200    0.9925   -2.4073 H         1 <0>         0.1030
     33 H11         4.8971    1.3517   -4.2954 H         1 <0>         0.1351
     34 H12         4.9612    2.5488   -6.4439 H         1 <0>         0.1393
     35 H13         2.8689    3.0561   -7.6363 H         1 <0>         0.1371
     36 H14         0.6304    1.1604   -4.5387 H         1 <0>         0.1335
@<TRIPOS>BOND
     1    1    2 1
     2    1   23 1
     3    1   24 1
     4    1   25 1
     5    2    7 ar
     6    2    3 ar
     7    3    4 ar
     8    3   14 1
     9    4    5 ar
    10    4   26 1
    11    5    6 ar
    12    6   11 ar
    13    6    7 ar
    14    7    8 ar
    15    8    9 ar
    16    8   13 1
    17    9   10 ar
    18   10   11 ar
    19   10   12 1
    20   12   27 1
    21   12   28 1
    22   13   29 1
    23   13   30 1
    24   14   15 1
    25   14   31 1
    26   14   32 1
    27   15   16 1
    28   16   21 ar
    29   16   17 ar
    30   17   18 ar
    31   17   33 1
    32   18   19 ar
    33   18   34 1
    34   19   20 ar
    35   19   35 1
    36   20   21 ar
    37   20   22 1
    38   21   36 1
@<TRIPOS>MOLECULE
ZINC03815005
   37    39     0     0     0
SMALL
USER_CHARGES

@<TRIPOS>ATOM
      1 C1          0.6002    1.5059    0.0247 C.3       1 <0>        -0.1690
      2 C2          0.5954   -0.0010    0.0159 C.ar      1 <0>         0.0767
      3 C3          0.7562   -0.7002   -1.1519 C.ar      1 <0>        -0.1422
      4 C4          0.7510   -2.0894   -1.1330 C.ar      1 <0>         0.2376
      5 N1          0.5873   -2.7658   -0.0179 N.ar      1 <0>        -0.4966
      6 C5          0.4217   -2.1439    1.1497 C.ar      1 <0>         0.4055
      7 C6          0.4208   -0.7279    1.1990 C.ar      1 <0>        -0.2306
      8 C7          0.2422   -0.0940    2.4535 C.ar      1 <0>         0.5814
      9 N2          0.0840   -0.8573    3.5254 N.ar      1 <0>        -0.5711
     10 C8          0.0912   -2.1842    3.4358 C.ar      1 <0>         0.6939
     11 N3         -0.0787   -2.9254    4.5895 N.pl3     1 <0>        -0.7777
     12 N4          0.2328    1.2797    2.5563 N.pl3     1 <0>        -0.8012
     13 C9          0.9415    0.0365   -2.4534 C.3       1 <0>        -0.0843
     14 S1          2.7095    0.3253   -2.7384 S.3       1 <0>        -0.0837
     15 C10         2.7588    1.1833   -4.2766 C.ar      1 <0>        -0.0823
     16 C11         3.9782    1.5739   -4.8176 C.ar      1 <0>        -0.0916
     17 C12         4.0138    2.2456   -6.0233 C.ar      1 <0>        -0.0825
     18 C13         2.8380    2.5305   -6.6933 C.ar      1 <0>        -0.1071
     19 C14         1.6217    2.1430   -6.1584 C.ar      1 <0>        -0.0158
     20 C15         1.5793    1.4660   -4.9542 C.ar      1 <0>        -0.1265
     21 Cl1         0.1486    2.5024   -7.0037 Cl        1 <0>        -0.0561
     22 H1          1.5921    1.8645    0.2998 H         1 <0>         0.1124
     23 H2          0.3423    1.8759   -0.9676 H         1 <0>         0.1033
     24 H3         -0.1304    1.8673    0.7485 H         1 <0>         0.1075
     25 H4          0.8826   -2.6280   -2.0598 H         1 <0>         0.1940
     26 H5         -0.1998   -2.4766    5.4409 H         1 <0>         0.4461
     27 H6         -0.0769   -3.8945    4.5480 H         1 <0>         0.4335
     28 H7         -0.4080    1.7182    3.1377 H         1 <0>         0.4314
     29 H8          0.8670    1.8085    2.0474 H         1 <0>         0.4370
     30 H9          0.5346   -0.5603   -3.2698 H         1 <0>         0.1158
     31 H10         0.4200    0.9925   -2.4073 H         1 <0>         0.1148
     32 H11         4.8971    1.3517   -4.2954 H         1 <0>         0.1367
     33 H12         4.9612    2.5488   -6.4439 H         1 <0>         0.1436
     34 H13         2.8689    3.0561   -7.6363 H         1 <0>         0.1415
     35 H14         0.6304    1.1604   -4.5387 H         1 <0>         0.1322
     36 N5          0.2529   -2.8960    2.2921 N.ar      1 <0>        -0.5889
     37 H15         0.2440   -3.8956    2.3198 H         1 <0>         0.4618
@<TRIPOS>BOND
     1    1    2 1
     2    1   22 1
     3    1   23 1
     4    1   24 1
     5    2    7 ar
     6    2    3 ar
     7    3    4 ar
     8    3   13 1
     9    4    5 ar
    10    4   25 1
    11    5    6 ar
    12    6    7 ar
    13    6   36 ar
    14    7    8 ar
    15    8    9 ar
    16    8   12 1
    17    9   10 ar
    18   10   11 1
    19   10   36 ar
    20   11   26 1
    21   11   27 1
    22   12   28 1
    23   12   29 1
    24   13   14 1
    25   13   30 1
    26   13   31 1
    27   14   15 1
    28   15   20 ar
    29   15   16 ar
    30   16   17 ar
    31   16   32 1
    32   17   18 ar
    33   17   33 1
    34   18   19 ar
    35   18   34 1
    36   19   20 ar
    37   19   21 1
    38   20   35 1
    39   36   37 1
@<TRIPOS>MOLECULE
ZINC03815006
   36    38     0     0     0
SMALL
USER_CHARGES

@<TRIPOS>ATOM
      1 C1          4.2328   -4.3815   -2.6638 C.3       1 <0>        -0.1588
      2 C2          4.2815   -5.1106   -1.3458 C.ar      1 <0>         0.0627
      3 C3          4.4319   -4.4278   -0.1670 C.ar      1 <0>        -0.1887
      4 C4          4.4801   -5.1238    1.0344 C.ar      1 <0>         0.2117
      5 N1          4.3737   -6.4331    1.0806 N.ar      1 <0>        -0.4863
      6 C5          4.2258   -7.1540   -0.0310 C.ar      1 <0>         0.4170
      7 C6          4.1751   -6.5049   -1.2894 C.ar      1 <0>        -0.2798
      8 C7          4.0168   -7.2964   -2.4539 C.ar      1 <0>         0.5255
      9 N2          3.9233   -8.6108   -2.3113 N.ar      1 <0>        -0.6164
     10 C8          3.9756   -9.1809   -1.1109 C.ar      1 <0>         0.6256
     11 N3          4.1218   -8.4902    0.0041 N.ar      1 <0>        -0.5905
     12 N4          3.8728  -10.5564   -1.0276 N.pl3     1 <0>        -0.8098
     13 N5          3.9620   -6.7151   -3.7016 N.pl3     1 <0>        -0.8445
     14 C9          4.5508   -2.9255   -0.1746 C.3       1 <0>        -0.0587
     15 S1          2.8993   -2.1875   -0.0393 S.3       1 <0>        -0.0957
     16 C10         3.2046   -0.4523   -0.0617 C.ar      1 <0>        -0.0836
     17 C11         2.1449    0.4423    0.0257 C.ar      1 <0>        -0.0877
     18 C12         2.3873    1.8015    0.0075 C.ar      1 <0>        -0.0895
     19 C13         3.6842    2.2732   -0.0978 C.ar      1 <0>        -0.0413
     20 C14         4.7417    1.3847   -0.1851 C.ar      1 <0>        -0.0890
     21 C15         4.5056    0.0243   -0.1673 C.ar      1 <0>        -0.1232
     22 Cl1         3.9850    3.9828   -0.1204 Cl        1 <0>        -0.0653
     23 H1          5.2199   -4.3993   -3.1256 H         1 <0>         0.0883
     24 H2          3.5146   -4.8696   -3.3226 H         1 <0>         0.1037
     25 H3          3.9285   -3.3483   -2.4965 H         1 <0>         0.0867
     26 H4          4.6038   -4.5738    1.9557 H         1 <0>         0.1689
     27 H5          3.7651  -11.0844   -1.8341 H         1 <0>         0.4165
     28 H6          3.9083  -10.9938   -0.1626 H         1 <0>         0.4192
     29 H7          4.5594   -5.9834   -3.9224 H         1 <0>         0.4185
     30 H8          3.3261   -7.0374   -4.3593 H         1 <0>         0.4114
     31 H9          5.0179   -2.6027   -1.1051 H         1 <0>         0.1016
     32 H10         5.1622   -2.6052    0.6690 H         1 <0>         0.1036
     33 H11         1.1327    0.0748    0.1083 H         1 <0>         0.1380
     34 H12         1.5637    2.4973    0.0709 H         1 <0>         0.1398
     35 H13         5.7527    1.7558   -0.2668 H         1 <0>         0.1374
     36 H14         5.3313   -0.6685   -0.2351 H         1 <0>         0.1325
@<TRIPOS>BOND
     1    1    2 1
     2    1   23 1
     3    1   24 1
     4    1   25 1
     5    2    7 ar
     6    2    3 ar
     7    3    4 ar
     8    3   14 1
     9    4    5 ar
    10    4   26 1
    11    5    6 ar
    12    6   11 ar
    13    6    7 ar
    14    7    8 ar
    15    8    9 ar
    16    8   13 1
    17    9   10 ar
    18   10   11 ar
    19   10   12 1
    20   12   27 1
    21   12   28 1
    22   13   29 1
    23   13   30 1
    24   14   15 1
    25   14   31 1
    26   14   32 1
    27   15   16 1
    28   16   21 ar
    29   16   17 ar
    30   17   18 ar
    31   17   33 1
    32   18   19 ar
    33   18   34 1
    34   19   20 ar
    35   19   22 1
    36   20   21 ar
    37   20   35 1
    38   21   36 1
@<TRIPOS>MOLECULE
ZINC03815006
   37    39     0     0     0
SMALL
USER_CHARGES

@<TRIPOS>ATOM
      1 C1          4.2328   -4.3815   -2.6638 C.3       1 <0>        -0.1715
      2 C2          4.2815   -5.1106   -1.3458 C.ar      1 <0>         0.0770
      3 C3          4.4319   -4.4278   -0.1670 C.ar      1 <0>        -0.1423
      4 C4          4.4801   -5.1238    1.0344 C.ar      1 <0>         0.2371
      5 N1          4.3737   -6.4331    1.0806 N.ar      1 <0>        -0.4966
      6 C5          4.2258   -7.1540   -0.0310 C.ar      1 <0>         0.4055
      7 C6          4.1751   -6.5049   -1.2894 C.ar      1 <0>        -0.2306
      8 C7          4.0168   -7.2964   -2.4539 C.ar      1 <0>         0.5812
      9 N2          3.9233   -8.6108   -2.3113 N.ar      1 <0>        -0.5710
     10 C8          3.9756   -9.1809   -1.1109 C.ar      1 <0>         0.6939
     11 N3          3.8728  -10.5564   -1.0276 N.pl3     1 <0>        -0.7776
     12 N4          3.9620   -6.7151   -3.7016 N.pl3     1 <0>        -0.8008
     13 C9          4.5508   -2.9255   -0.1746 C.3       1 <0>        -0.0826
     14 S1          2.8993   -2.1875   -0.0393 S.3       1 <0>        -0.0873
     15 C10         3.2046   -0.4523   -0.0617 C.ar      1 <0>        -0.0918
     16 C11         2.1449    0.4423    0.0257 C.ar      1 <0>        -0.0821
     17 C12         2.3873    1.8015    0.0075 C.ar      1 <0>        -0.0880
     18 C13         3.6842    2.2732   -0.0978 C.ar      1 <0>        -0.0337
     19 C14         4.7417    1.3847   -0.1851 C.ar      1 <0>        -0.0891
     20 C15         4.5056    0.0243   -0.1673 C.ar      1 <0>        -0.1204
     21 Cl1         3.9850    3.9828   -0.1204 Cl        1 <0>        -0.0544
     22 H1          5.2199   -4.3993   -3.1256 H         1 <0>         0.1081
     23 H2          3.5146   -4.8696   -3.3226 H         1 <0>         0.1098
     24 H3          3.9285   -3.3483   -2.4965 H         1 <0>         0.1069
     25 H4          4.6038   -4.5738    1.9557 H         1 <0>         0.1940
     26 H5          3.7651  -11.0844   -1.8341 H         1 <0>         0.4461
     27 H6          3.9083  -10.9938   -0.1626 H         1 <0>         0.4335
     28 H7          4.5594   -5.9834   -3.9224 H         1 <0>         0.4366
     29 H8          3.3261   -7.0374   -4.3593 H         1 <0>         0.4317
     30 H9          5.0179   -2.6027   -1.1051 H         1 <0>         0.1139
     31 H10         5.1622   -2.6052    0.6690 H         1 <0>         0.1163
     32 H11         1.1327    0.0748    0.1083 H         1 <0>         0.1395
     33 H12         1.5637    2.4973    0.0709 H         1 <0>         0.1440
     34 H13         5.7527    1.7558   -0.2668 H         1 <0>         0.1408
     35 H14         5.3313   -0.6685   -0.2351 H         1 <0>         0.1313
     36 N5          4.1242   -8.5249    0.0674 N.ar      1 <0>        -0.5890
     37 H15         4.1531   -9.0381    0.9252 H         1 <0>         0.4618
@<TRIPOS>BOND
     1    1    2 1
     2    1   22 1
     3    1   23 1
     4    1   24 1
     5    2    7 ar
     6    2    3 ar
     7    3    4 ar
     8    3   13 1
     9    4    5 ar
    10    4   25 1
    11    5    6 ar
    12    6    7 ar
    13    6   36 ar
    14    7    8 ar
    15    8    9 ar
    16    8   12 1
    17    9   10 ar
    18   10   11 1
    19   10   36 ar
    20   11   26 1
    21   11   27 1
    22   12   28 1
    23   12   29 1
    24   13   14 1
    25   13   30 1
    26   13   31 1
    27   14   15 1
    28   15   20 ar
    29   15   16 ar
    30   16   17 ar
    31   16   32 1
    32   17   18 ar
    33   17   33 1
    34   18   19 ar
    35   18   21 1
    36   19   20 ar
    37   19   34 1
    38   20   35 1
    39   36   37 1
@<TRIPOS>MOLECULE
ZINC03815008
   44    46     0     0     0
SMALL
USER_CHARGES

@<TRIPOS>ATOM
      1 C1          3.2315    3.1773   -2.4315 C.3       1 <0>        -0.1163
      2 C2          2.9838    2.4865   -3.7477 C.ar      1 <0>        -0.1010
      3 C3          3.1898    3.1653   -4.9346 C.ar      1 <0>        -0.1311
      4 C4          2.9632    2.5348   -6.1435 C.ar      1 <0>        -0.1001
      5 C5          2.5291    1.2217   -6.1724 C.ar      1 <0>        -0.1919
      6 C6          2.3255    0.5333   -4.9884 C.ar      1 <0>         0.1159
      7 C7          2.5487    1.1698   -3.7690 C.ar      1 <0>         0.0815
      8 N1          2.3399    0.4804   -2.5690 N.pl3     1 <0>        -0.6200
      9 C8          0.9443    0.0367   -2.4527 C.3       1 <0>         0.1068
     10 C9          0.7582   -0.7000   -1.1512 C.ar      1 <0>        -0.1874
     11 C10         0.7546   -2.0896   -1.1322 C.ar      1 <0>         0.2145
     12 N2          0.5895   -2.7660   -0.0176 N.ar      1 <0>        -0.4894
     13 C11         0.4224   -2.1441    1.1501 C.ar      1 <0>         0.4119
     14 C12         0.4214   -0.7281    1.1994 C.ar      1 <0>        -0.2771
     15 C13         0.5968   -0.0010    0.0161 C.ar      1 <0>         0.0411
     16 C14         0.6016    1.5059    0.0250 C.3       1 <0>        -0.1583
     17 C15         0.2422   -0.0944    2.4535 C.ar      1 <0>         0.5217
     18 N3          0.0833   -0.8578    3.5256 N.ar      1 <0>        -0.6168
     19 C16         0.0905   -2.1844    3.4359 C.ar      1 <0>         0.6220
     20 N4          0.2532   -2.8240    2.2927 N.ar      1 <0>        -0.5901
     21 N5         -0.0800   -2.9256    4.5895 N.pl3     1 <0>        -0.8120
     22 N6          0.2328    1.2794    2.5563 N.pl3     1 <0>        -0.8465
     23 O1          1.9041   -0.7596   -5.0154 O.3       1 <0>        -0.3061
     24 C17         1.6959   -1.3474   -6.3012 C.3       1 <0>         0.0241
     25 H1          4.2670    3.0217   -2.1287 H         1 <0>         0.0763
     26 H2          3.0413    4.2451   -2.5402 H         1 <0>         0.0750
     27 H3          2.5654    2.7649   -1.6737 H         1 <0>         0.0599
     28 H4          3.5283    4.1907   -4.9169 H         1 <0>         0.1241
     29 H5          3.1250    3.0690   -7.0681 H         1 <0>         0.1247
     30 H6          2.3526    0.7322   -7.1187 H         1 <0>         0.1297
     31 H7          2.6071    1.0448   -1.7764 H         1 <0>         0.3517
     32 H8          0.7036   -0.6267   -3.2834 H         1 <0>         0.1046
     33 H9          0.2842    0.9038   -2.4770 H         1 <0>         0.0498
     34 H10         0.8874   -2.6282   -2.0588 H         1 <0>         0.1684
     35 H11         1.5930    1.8644    0.3019 H         1 <0>         0.0854
     36 H12         0.3457    1.8759   -0.9679 H         1 <0>         0.0808
     37 H13        -0.1303    1.8673    0.7473 H         1 <0>         0.1028
     38 H14        -0.2016   -2.4769    5.4409 H         1 <0>         0.4156
     39 H15        -0.0782   -3.8947    4.5480 H         1 <0>         0.4184
     40 H16        -0.4080    1.7178    3.1376 H         1 <0>         0.4101
     41 H17         0.8670    1.8081    2.0473 H         1 <0>         0.4173
     42 H18         1.3620   -2.3778   -6.1799 H         1 <0>         0.1012
     43 H19         0.9374   -0.7807   -6.8412 H         1 <0>         0.0538
     44 H20         2.6297   -1.3319   -6.8633 H         1 <0>         0.0551
@<TRIPOS>BOND
     1    1    2 1
     2    1   25 1
     3    1   26 1
     4    1   27 1
     5    2    7 ar
     6    2    3 ar
     7    3    4 ar
     8    3   28 1
     9    4    5 ar
    10    4   29 1
    11    5    6 ar
    12    5   30 1
    13    6    7 ar
    14    6   23 1
    15    7    8 1
    16    8    9 1
    17    8   31 1
    18    9   10 1
    19    9   32 1
    20    9   33 1
    21   10   15 ar
    22   10   11 ar
    23   11   12 ar
    24   11   34 1
    25   12   13 ar
    26   13   20 ar
    27   13   14 ar
    28   14   15 ar
    29   14   17 ar
    30   15   16 1
    31   16   35 1
    32   16   36 1
    33   16   37 1
    34   17   18 ar
    35   17   22 1
    36   18   19 ar
    37   19   20 ar
    38   19   21 1
    39   21   38 1
    40   21   39 1
    41   22   40 1
    42   22   41 1
    43   23   24 1
    44   24   42 1
    45   24   43 1
    46   24   44 1
@<TRIPOS>MOLECULE
ZINC03815008
   45    47     0     0     0
SMALL
USER_CHARGES

@<TRIPOS>ATOM
      1 C1          3.2315    3.1773   -2.4315 C.3       1 <0>        -0.1161
      2 C2          2.9838    2.4865   -3.7477 C.ar      1 <0>        -0.0950
      3 C3          3.1898    3.1653   -4.9346 C.ar      1 <0>        -0.1305
      4 C4          2.9632    2.5348   -6.1435 C.ar      1 <0>        -0.0893
      5 C5          2.5291    1.2217   -6.1724 C.ar      1 <0>        -0.1905
      6 C6          2.3255    0.5333   -4.9884 C.ar      1 <0>         0.1199
      7 C7          2.5487    1.1698   -3.7690 C.ar      1 <0>         0.0682
      8 N1          2.3399    0.4804   -2.5690 N.pl3     1 <0>        -0.6182
      9 C8          0.9443    0.0367   -2.4527 C.3       1 <0>         0.0915
     10 C9          0.7582   -0.7000   -1.1512 C.ar      1 <0>        -0.1456
     11 C10         0.7546   -2.0896   -1.1322 C.ar      1 <0>         0.2419
     12 N2          0.5895   -2.7660   -0.0176 N.ar      1 <0>        -0.5000
     13 C11         0.4224   -2.1441    1.1501 C.ar      1 <0>         0.3934
     14 C12         0.4214   -0.7281    1.1994 C.ar      1 <0>        -0.2306
     15 C13         0.5968   -0.0010    0.0161 C.ar      1 <0>         0.0593
     16 C14         0.6016    1.5059    0.0250 C.3       1 <0>        -0.1725
     17 C15         0.2422   -0.0944    2.4535 C.ar      1 <0>         0.5798
     18 N3          0.0833   -0.8578    3.5256 N.ar      1 <0>        -0.5708
     19 C16         0.0905   -2.1844    3.4359 C.ar      1 <0>         0.7003
     20 N4         -0.0800   -2.9256    4.5895 N.pl3     1 <0>        -0.7789
     21 N5          0.2328    1.2794    2.5563 N.pl3     1 <0>        -0.8034
     22 O1          1.9041   -0.7596   -5.0154 O.3       1 <0>        -0.3119
     23 C17         1.6959   -1.3474   -6.3012 C.3       1 <0>         0.0226
     24 H1          4.2670    3.0217   -2.1287 H         1 <0>         0.0788
     25 H2          3.0413    4.2451   -2.5402 H         1 <0>         0.0786
     26 H3          2.5654    2.7649   -1.6737 H         1 <0>         0.0550
     27 H4          3.5283    4.1907   -4.9169 H         1 <0>         0.1281
     28 H5          3.1250    3.0690   -7.0681 H         1 <0>         0.1293
     29 H6          2.3526    0.7322   -7.1187 H         1 <0>         0.1331
     30 H7          2.6071    1.0448   -1.7764 H         1 <0>         0.3506
     31 H8          0.7036   -0.6267   -3.2834 H         1 <0>         0.1158
     32 H9          0.2842    0.9038   -2.4770 H         1 <0>         0.0625
     33 H10         0.8874   -2.6282   -2.0588 H         1 <0>         0.1936
     34 H11         1.5930    1.8644    0.3019 H         1 <0>         0.1052
     35 H12         0.3457    1.8759   -0.9679 H         1 <0>         0.1018
     36 H13        -0.1303    1.8673    0.7473 H         1 <0>         0.1093
     37 H14        -0.2016   -2.4769    5.4409 H         1 <0>         0.4453
     38 H15        -0.0782   -3.8947    4.5480 H         1 <0>         0.4333
     39 H16        -0.4080    1.7178    3.1376 H         1 <0>         0.4307
     40 H17         0.8670    1.8081    2.0473 H         1 <0>         0.4356
     41 H18         1.3620   -2.3778   -6.1799 H         1 <0>         0.1024
     42 H19         0.9374   -0.7807   -6.8412 H         1 <0>         0.0567
     43 H20         2.6297   -1.3319   -6.8633 H         1 <0>         0.0586
     44 N6          0.2529   -2.8962    2.2920 N.ar      1 <0>        -0.5904
     45 H21         0.2558   -3.8947    2.2380 H         1 <0>         0.4629
@<TRIPOS>BOND
     1    1    2 1
     2    1   24 1
     3    1   25 1
     4    1   26 1
     5    2    7 ar
     6    2    3 ar
     7    3    4 ar
     8    3   27 1
     9    4    5 ar
    10    4   28 1
    11    5    6 ar
    12    5   29 1
    13    6    7 ar
    14    6   22 1
    15    7    8 1
    16    8    9 1
    17    8   30 1
    18    9   10 1
    19    9   31 1
    20    9   32 1
    21   10   15 ar
    22   10   11 ar
    23   11   12 ar
    24   11   33 1
    25   12   13 ar
    26   13   14 ar
    27   13   44 ar
    28   14   15 ar
    29   14   17 ar
    30   15   16 1
    31   16   34 1
    32   16   35 1
    33   16   36 1
    34   17   18 ar
    35   17   21 1
    36   18   19 ar
    37   19   20 1
    38   19   44 ar
    39   20   37 1
    40   20   38 1
    41   21   39 1
    42   21   40 1
    43   22   23 1
    44   23   41 1
    45   23   42 1
    46   23   43 1
    47   44   45 1
@<TRIPOS>MOLECULE
ZINC03815010
   44    46     0     0     0
SMALL
USER_CHARGES

@<TRIPOS>ATOM
      1 C1          0.6018    1.5059    0.0250 C.3       1 <0>        -0.1554
      2 C2          0.5970   -0.0011    0.0161 C.ar      1 <0>         0.0616
      3 C3          0.7585   -0.7002   -1.1515 C.ar      1 <0>        -0.2198
      4 C4          0.7532   -2.0894   -1.1326 C.ar      1 <0>         0.2108
      5 N1          0.5888   -2.7658   -0.0176 N.ar      1 <0>        -0.4891
      6 C5          0.4225   -2.1439    1.1498 C.ar      1 <0>         0.4176
      7 C6          0.4215   -0.7279    1.1991 C.ar      1 <0>        -0.2829
      8 C7          0.2422   -0.0940    2.4535 C.ar      1 <0>         0.5250
      9 N2          0.0832   -0.8573    3.5253 N.ar      1 <0>        -0.6169
     10 C8          0.0905   -2.1842    3.4357 C.ar      1 <0>         0.6260
     11 N3          0.2532   -2.8238    2.2928 N.ar      1 <0>        -0.5915
     12 N4         -0.0802   -2.9254    4.5893 N.pl3     1 <0>        -0.8097
     13 N5          0.2328    1.2797    2.5563 N.pl3     1 <0>        -0.8448
     14 C9          0.9447    0.0365   -2.4530 C.3       1 <0>         0.1749
     15 N6          2.3364    0.4790   -2.5689 N.pl3     1 <0>        -0.7351
     16 C10         2.7521    1.1878   -3.6982 C.ar      1 <0>         0.2552
     17 C11         4.0721    1.6081   -3.8092 C.ar      1 <0>        -0.1819
     18 C12         4.4828    2.3095   -4.9259 C.ar      1 <0>        -0.0929
     19 C13         3.5829    2.5953   -5.9353 C.ar      1 <0>        -0.2212
     20 C14         2.2637    2.1778   -5.8303 C.ar      1 <0>         0.1775
     21 C15         1.8488    1.4687   -4.7139 C.ar      1 <0>        -0.2038
     22 O1          1.3802    2.4597   -6.8237 O.3       1 <0>        -0.3108
     23 C16         1.8782    3.1892   -7.9470 C.3       1 <0>         0.0237
     24 C17         5.9146    2.7645   -5.0436 C.3       1 <0>         0.5075
     25 F1          6.6688    1.7715   -5.6778 F         1 <0>        -0.1743
     26 F2          5.9690    3.9430   -5.7955 F         1 <0>        -0.1762
     27 F3          6.4351    3.0014   -3.7669 F         1 <0>        -0.1756
     28 H1          1.5932    1.8644    0.3020 H         1 <0>         0.0876
     29 H2          0.3459    1.8759   -0.9678 H         1 <0>         0.0861
     30 H3         -0.1301    1.8674    0.7473 H         1 <0>         0.1001
     31 H4          0.8854   -2.6280   -2.0594 H         1 <0>         0.1682
     32 H5         -0.2018   -2.4766    5.4406 H         1 <0>         0.4166
     33 H6         -0.0784   -3.8945    4.5478 H         1 <0>         0.4193
     34 H7         -0.4080    1.7182    3.1377 H         1 <0>         0.4111
     35 H8          0.8670    1.8085    2.0474 H         1 <0>         0.4185
     36 H9          0.7040   -0.6270   -3.2836 H         1 <0>         0.0776
     37 H10         0.2845    0.9035   -2.4774 H         1 <0>         0.0771
     38 H11         2.9693    0.2796   -1.8613 H         1 <0>         0.4049
     39 H12         4.7771    1.3863   -3.0217 H         1 <0>         0.1348
     40 H13         3.9070    3.1445   -6.8070 H         1 <0>         0.1377
     41 H14         0.8235    1.1391   -4.6325 H         1 <0>         0.1393
     42 H15         1.0726    3.3466   -8.6642 H         1 <0>         0.1044
     43 H16         2.2611    4.1536   -7.6132 H         1 <0>         0.0595
     44 H17         2.6808    2.6238   -8.4206 H         1 <0>         0.0592
@<TRIPOS>BOND
     1    1    2 1
     2    1   28 1
     3    1   29 1
     4    1   30 1
     5    2    7 ar
     6    2    3 ar
     7    3    4 ar
     8    3   14 1
     9    4    5 ar
    10    4   31 1
    11    5    6 ar
    12    6   11 ar
    13    6    7 ar
    14    7    8 ar
    15    8    9 ar
    16    8   13 1
    17    9   10 ar
    18   10   11 ar
    19   10   12 1
    20   12   32 1
    21   12   33 1
    22   13   34 1
    23   13   35 1
    24   14   15 1
    25   14   36 1
    26   14   37 1
    27   15   16 1
    28   15   38 1
    29   16   21 ar
    30   16   17 ar
    31   17   18 ar
    32   17   39 1
    33   18   19 ar
    34   18   24 1
    35   19   20 ar
    36   19   40 1
    37   20   21 ar
    38   20   22 1
    39   21   41 1
    40   22   23 1
    41   23   42 1
    42   23   43 1
    43   23   44 1
    44   24   25 1
    45   24   26 1
    46   24   27 1
@<TRIPOS>MOLECULE
ZINC03815010
   45    47     0     0     0
SMALL
USER_CHARGES

@<TRIPOS>ATOM
      1 C1          0.6018    1.5059    0.0250 C.3       1 <0>        -0.1686
      2 C2          0.5970   -0.0011    0.0161 C.ar      1 <0>         0.0785
      3 C3          0.7585   -0.7002   -1.1515 C.ar      1 <0>        -0.1766
      4 C4          0.7532   -2.0894   -1.1326 C.ar      1 <0>         0.2383
      5 N1          0.5888   -2.7658   -0.0176 N.ar      1 <0>        -0.5000
      6 C5          0.4225   -2.1439    1.1498 C.ar      1 <0>         0.4081
      7 C6          0.4215   -0.7279    1.1991 C.ar      1 <0>        -0.2345
      8 C7          0.2422   -0.0940    2.4535 C.ar      1 <0>         0.5807
      9 N2          0.0832   -0.8573    3.5253 N.ar      1 <0>        -0.5713
     10 C8          0.0905   -2.1842    3.4357 C.ar      1 <0>         0.6942
     11 N3         -0.0802   -2.9254    4.5893 N.pl3     1 <0>        -0.7771
     12 N4          0.2328    1.2797    2.5563 N.pl3     1 <0>        -0.8008
     13 C9          0.9447    0.0365   -2.4530 C.3       1 <0>         0.1653
     14 N5          2.3364    0.4790   -2.5689 N.pl3     1 <0>        -0.7427
     15 C10         2.7521    1.1878   -3.6982 C.ar      1 <0>         0.2464
     16 C11         4.0721    1.6081   -3.8092 C.ar      1 <0>        -0.1780
     17 C12         4.4828    2.3095   -4.9259 C.ar      1 <0>        -0.0907
     18 C13         3.5829    2.5953   -5.9353 C.ar      1 <0>        -0.2115
     19 C14         2.2637    2.1778   -5.8303 C.ar      1 <0>         0.1793
     20 C15         1.8488    1.4687   -4.7139 C.ar      1 <0>        -0.2009
     21 O1          1.3802    2.4597   -6.8237 O.3       1 <0>        -0.3095
     22 C16         1.8782    3.1892   -7.9470 C.3       1 <0>         0.0217
     23 C17         5.9146    2.7645   -5.0436 C.3       1 <0>         0.5067
     24 F1          6.6688    1.7715   -5.6778 F         1 <0>        -0.1725
     25 F2          5.9690    3.9430   -5.7955 F         1 <0>        -0.1734
     26 F3          6.4351    3.0014   -3.7669 F         1 <0>        -0.1755
     27 H1          1.5932    1.8644    0.3020 H         1 <0>         0.1076
     28 H2          0.3459    1.8759   -0.9678 H         1 <0>         0.1073
     29 H3         -0.1301    1.8674    0.7473 H         1 <0>         0.1065
     30 H4          0.8854   -2.6280   -2.0594 H         1 <0>         0.1936
     31 H5         -0.2018   -2.4766    5.4406 H         1 <0>         0.4463
     32 H6         -0.0784   -3.8945    4.5478 H         1 <0>         0.4337
     33 H7         -0.4080    1.7182    3.1377 H         1 <0>         0.4316
     34 H8          0.8670    1.8085    2.0474 H         1 <0>         0.4367
     35 H9          0.7040   -0.6270   -3.2836 H         1 <0>         0.0886
     36 H10         0.2845    0.9035   -2.4774 H         1 <0>         0.0885
     37 H11         2.9693    0.2796   -1.8613 H         1 <0>         0.4042
     38 H12         4.7771    1.3863   -3.0217 H         1 <0>         0.1357
     39 H13         3.9070    3.1445   -6.8070 H         1 <0>         0.1417
     40 H14         0.8235    1.1391   -4.6325 H         1 <0>         0.1391
     41 H15         1.0726    3.3466   -8.6642 H         1 <0>         0.1079
     42 H16         2.2611    4.1536   -7.6132 H         1 <0>         0.0618
     43 H17         2.6808    2.6238   -8.4206 H         1 <0>         0.0616
     44 N6          0.2529   -2.8960    2.2921 N.ar      1 <0>        -0.5899
     45 H18         0.2439   -3.8956    2.3198 H         1 <0>         0.4619
@<TRIPOS>BOND
     1    1    2 1
     2    1   27 1
     3    1   28 1
     4    1   29 1
     5    2    7 ar
     6    2    3 ar
     7    3    4 ar
     8    3   13 1
     9    4    5 ar
    10    4   30 1
    11    5    6 ar
    12    6    7 ar
    13    6   44 ar
    14    7    8 ar
    15    8    9 ar
    16    8   12 1
    17    9   10 ar
    18   10   11 1
    19   10   44 ar
    20   11   31 1
    21   11   32 1
    22   12   33 1
    23   12   34 1
    24   13   14 1
    25   13   35 1
    26   13   36 1
    27   14   15 1
    28   14   37 1
    29   15   20 ar
    30   15   16 ar
    31   16   17 ar
    32   16   38 1
    33   17   18 ar
    34   17   23 1
    35   18   19 ar
    36   18   39 1
    37   19   20 ar
    38   19   21 1
    39   20   40 1
    40   21   22 1
    41   22   41 1
    42   22   42 1
    43   22   43 1
    44   23   24 1
    45   23   25 1
    46   23   26 1
    47   44   45 1
@<TRIPOS>MOLECULE
ZINC03815011
   44    47     0     0     0
SMALL
USER_CHARGES

@<TRIPOS>ATOM
      1 C1          0.4684    7.2345   -1.9820 C.3       1 <0>        -0.1561
      2 C2         -0.7915    8.0520   -2.1066 C.ar      1 <0>         0.0395
      3 C3         -1.9772    7.4695   -2.4713 C.ar      1 <0>        -0.1872
      4 C4         -3.1235    8.2462   -2.5851 C.ar      1 <0>         0.1970
      5 N1         -3.1117    9.5376   -2.3405 N.ar      1 <0>        -0.4883
      6 C5         -1.9900   10.1628   -1.9819 C.ar      1 <0>         0.4065
      7 C6         -0.7852    9.4284   -1.8537 C.ar      1 <0>        -0.2742
      8 C7          0.3914   10.1189   -1.4708 C.ar      1 <0>         0.5208
      9 N2          0.3096   11.4232   -1.2498 N.ar      1 <0>        -0.6150
     10 C8         -0.8419   12.0754   -1.3814 C.ar      1 <0>         0.6203
     11 N3         -1.9655   11.4803   -1.7353 N.ar      1 <0>        -0.5895
     12 N4         -0.8628   13.4353   -1.1374 N.pl3     1 <0>        -0.8124
     13 N5          1.5889    9.4522   -1.3323 N.pl3     1 <0>        -0.8480
     14 C9         -2.0362    5.9905   -2.7543 C.3       1 <0>        -0.0652
     15 C10        -2.3177    5.2334   -1.4549 C.3       1 <0>        -0.0789
     16 C11        -2.5262    3.7724   -1.7598 C.ar      1 <0>        -0.0705
     17 C12        -3.7793    3.2938   -1.9916 C.ar      1 <0>        -0.1126
     18 C13        -3.9917    1.9461   -2.2742 C.ar      1 <0>        -0.1121
     19 C14        -2.9521    1.0689   -2.3276 C.ar      1 <0>        -0.1100
     20 C15        -1.6435    1.5270   -2.0995 C.ar      1 <0>        -0.0509
     21 C16        -1.4282    2.8969   -1.8060 C.ar      1 <0>        -0.0455
     22 C17        -0.1199    3.3540   -1.5718 C.ar      1 <0>        -0.1115
     23 C18         0.9192    2.4768   -1.6243 C.ar      1 <0>        -0.1155
     24 C19         0.7069    1.1287   -1.9078 C.ar      1 <0>        -0.1176
     25 C20        -0.5457    0.6503   -2.1403 C.ar      1 <0>        -0.1050
     26 H1          1.0421    7.3082   -2.9059 H         1 <0>         0.0858
     27 H2          1.0659    7.6120   -1.1522 H         1 <0>         0.1005
     28 H3          0.2084    6.1921   -1.7979 H         1 <0>         0.0820
     29 H4         -4.0503    7.7754   -2.8780 H         1 <0>         0.1657
     30 H5         -0.0488   13.8938   -0.8763 H         1 <0>         0.4156
     31 H6         -1.6914   13.9315   -1.2272 H         1 <0>         0.4183
     32 H7          1.8569    8.7943   -1.9928 H         1 <0>         0.4178
     33 H8          2.1640    9.6406   -0.5743 H         1 <0>         0.4101
     34 H9         -1.0828    5.6613   -3.1674 H         1 <0>         0.0780
     35 H10        -2.8318    5.7893   -3.4717 H         1 <0>         0.0806
     36 H11        -3.2144    5.6381   -0.9855 H         1 <0>         0.0789
     37 H12        -1.4709    5.3461   -0.7780 H         1 <0>         0.0754
     38 H13        -4.6216    3.9688   -1.9555 H         1 <0>         0.1243
     39 H14        -4.9961    1.5921   -2.4539 H         1 <0>         0.1238
     40 H15        -3.1317    0.0271   -2.5485 H         1 <0>         0.1262
     41 H16         0.0598    4.3958   -1.3510 H         1 <0>         0.1267
     42 H17         1.9236    2.8306   -1.4440 H         1 <0>         0.1225
     43 H18         1.5492    0.4537   -1.9437 H         1 <0>         0.1228
     44 H19        -0.6950   -0.3966   -2.3594 H         1 <0>         0.1266
@<TRIPOS>BOND
     1    1    2 1
     2    1   26 1
     3    1   27 1
     4    1   28 1
     5    2    7 ar
     6    2    3 ar
     7    3    4 ar
     8    3   14 1
     9    4    5 ar
    10    4   29 1
    11    5    6 ar
    12    6   11 ar
    13    6    7 ar
    14    7    8 ar
    15    8    9 ar
    16    8   13 1
    17    9   10 ar
    18   10   11 ar
    19   10   12 1
    20   12   30 1
    21   12   31 1
    22   13   32 1
    23   13   33 1
    24   14   15 1
    25   14   34 1
    26   14   35 1
    27   15   16 1
    28   15   36 1
    29   15   37 1
    30   16   21 ar
    31   16   17 ar
    32   17   18 ar
    33   17   38 1
    34   18   19 ar
    35   18   39 1
    36   19   20 ar
    37   19   40 1
    38   20   25 ar
    39   20   21 ar
    40   21   22 ar
    41   22   23 ar
    42   22   41 1
    43   23   24 ar
    44   23   42 1
    45   24   25 ar
    46   24   43 1
    47   25   44 1
@<TRIPOS>MOLECULE
ZINC03815011
   45    48     0     0     0
SMALL
USER_CHARGES

@<TRIPOS>ATOM
      1 C1          0.4684    7.2345   -1.9820 C.3       1 <0>        -0.1703
      2 C2         -0.7915    8.0520   -2.1066 C.ar      1 <0>         0.0589
      3 C3         -1.9772    7.4695   -2.4713 C.ar      1 <0>        -0.1442
      4 C4         -3.1235    8.2462   -2.5851 C.ar      1 <0>         0.2222
      5 N1         -3.1117    9.5376   -2.3405 N.ar      1 <0>        -0.4982
      6 C5         -1.9900   10.1628   -1.9819 C.ar      1 <0>         0.3942
      7 C6         -0.7852    9.4284   -1.8537 C.ar      1 <0>        -0.2274
      8 C7          0.3914   10.1189   -1.4708 C.ar      1 <0>         0.5804
      9 N2          0.3096   11.4232   -1.2498 N.ar      1 <0>        -0.5710
     10 C8         -0.8419   12.0754   -1.3814 C.ar      1 <0>         0.6920
     11 N3         -0.8628   13.4353   -1.1374 N.pl3     1 <0>        -0.7794
     12 N4          1.5889    9.4522   -1.3323 N.pl3     1 <0>        -0.8056
     13 C9         -2.0362    5.9905   -2.7543 C.3       1 <0>        -0.0812
     14 C10        -2.3177    5.2334   -1.4549 C.3       1 <0>        -0.0759
     15 C11        -2.5262    3.7724   -1.7598 C.ar      1 <0>        -0.0849
     16 C12        -3.7793    3.2938   -1.9916 C.ar      1 <0>        -0.1043
     17 C13        -3.9917    1.9461   -2.2742 C.ar      1 <0>        -0.1165
     18 C14        -2.9521    1.0689   -2.3276 C.ar      1 <0>        -0.0992
     19 C15        -1.6435    1.5270   -2.0995 C.ar      1 <0>        -0.0521
     20 C16        -1.4282    2.8969   -1.8060 C.ar      1 <0>        -0.0431
     21 C17        -0.1199    3.3540   -1.5718 C.ar      1 <0>        -0.1210
     22 C18         0.9192    2.4768   -1.6243 C.ar      1 <0>        -0.1079
     23 C19         0.7069    1.1287   -1.9078 C.ar      1 <0>        -0.1184
     24 C20        -0.5457    0.6503   -2.1403 C.ar      1 <0>        -0.0982
     25 H1          1.0421    7.3082   -2.9059 H         1 <0>         0.1065
     26 H2          1.0659    7.6120   -1.1522 H         1 <0>         0.1067
     27 H3          0.2084    6.1921   -1.7979 H         1 <0>         0.1027
     28 H4         -4.0503    7.7754   -2.8780 H         1 <0>         0.1909
     29 H5         -0.0488   13.8938   -0.8763 H         1 <0>         0.4456
     30 H6         -1.6914   13.9315   -1.2272 H         1 <0>         0.4330
     31 H7          1.8569    8.7943   -1.9928 H         1 <0>         0.4363
     32 H8          2.1640    9.6406   -0.5743 H         1 <0>         0.4307
     33 H9         -1.0828    5.6613   -3.1674 H         1 <0>         0.0919
     34 H10        -2.8318    5.7893   -3.4717 H         1 <0>         0.0949
     35 H11        -3.2144    5.6381   -0.9855 H         1 <0>         0.0801
     36 H12        -1.4709    5.3461   -0.7780 H         1 <0>         0.0777
     37 H13        -4.6216    3.9688   -1.9555 H         1 <0>         0.1236
     38 H14        -4.9961    1.5921   -2.4539 H         1 <0>         0.1267
     39 H15        -3.1317    0.0271   -2.5485 H         1 <0>         0.1299
     40 H16         0.0598    4.3958   -1.3510 H         1 <0>         0.1216
     41 H17         1.9236    2.8306   -1.4440 H         1 <0>         0.1235
     42 H18         1.5492    0.4537   -1.9437 H         1 <0>         0.1260
     43 H19        -0.6950   -0.3966   -2.3594 H         1 <0>         0.1300
     44 N5         -2.0260   11.5192   -1.7414 N.ar      1 <0>        -0.5881
     45 H20        -2.8442   12.0893   -1.8153 H         1 <0>         0.4606
@<TRIPOS>BOND
     1    1    2 1
     2    1   25 1
     3    1   26 1
     4    1   27 1
     5    2    7 ar
     6    2    3 ar
     7    3    4 ar
     8    3   13 1
     9    4    5 ar
    10    4   28 1
    11    5    6 ar
    12    6    7 ar
    13    6   44 ar
    14    7    8 ar
    15    8    9 ar
    16    8   12 1
    17    9   10 ar
    18   10   11 1
    19   10   44 ar
    20   11   29 1
    21   11   30 1
    22   12   31 1
    23   12   32 1
    24   13   14 1
    25   13   33 1
    26   13   34 1
    27   14   15 1
    28   14   35 1
    29   14   36 1
    30   15   20 ar
    31   15   16 ar
    32   16   17 ar
    33   16   37 1
    34   17   18 ar
    35   17   38 1
    36   18   19 ar
    37   18   39 1
    38   19   24 ar
    39   19   20 ar
    40   20   21 ar
    41   21   22 ar
    42   21   40 1
    43   22   23 ar
    44   22   41 1
    45   23   24 ar
    46   23   42 1
    47   24   43 1
    48   44   45 1
@<TRIPOS>MOLECULE
ZINC03815012
   46    48     0     0     0
SMALL
USER_CHARGES

@<TRIPOS>ATOM
      1 C1          0.6011    1.5059    0.0249 C.3       1 <0>        -0.1518
      2 C2          0.5963   -0.0010    0.0160 C.ar      1 <0>         0.0405
      3 C3          0.7575   -0.7002   -1.1517 C.ar      1 <0>        -0.1861
      4 C4          0.7522   -2.0894   -1.1328 C.ar      1 <0>         0.1965
      5 N1          0.5881   -2.7658   -0.0177 N.ar      1 <0>        -0.4899
      6 C5          0.4222   -2.1439    1.1498 C.ar      1 <0>         0.4064
      7 C6          0.4212   -0.7279    1.1990 C.ar      1 <0>        -0.2757
      8 C7          0.2422   -0.0940    2.4535 C.ar      1 <0>         0.5211
      9 N2          0.0836   -0.8573    3.5254 N.ar      1 <0>        -0.6180
     10 C8          0.0908   -2.1842    3.4357 C.ar      1 <0>         0.6204
     11 N3          0.2532   -2.8238    2.2928 N.ar      1 <0>        -0.5911
     12 N4         -0.0796   -2.9254    4.5894 N.pl3     1 <0>        -0.8133
     13 N5          0.2328    1.2797    2.5563 N.pl3     1 <0>        -0.8461
     14 C9          0.9433    0.0365   -2.4532 C.3       1 <0>        -0.0634
     15 C10         2.4211    0.3897   -2.6328 C.3       1 <0>        -0.0664
     16 C11         2.6069    1.1264   -3.9343 C.ar      1 <0>        -0.0728
     17 C12         2.9794    0.4362   -5.0716 C.ar      1 <0>        -0.1107
     18 C13         3.1462    1.1134   -6.2702 C.ar      1 <0>         0.0960
     19 C14         2.9487    2.4854   -6.3250 C.ar      1 <0>        -0.1726
     20 C15         2.5810    3.1761   -5.1870 C.ar      1 <0>        -0.1658
     21 C16         2.4095    2.4979   -3.9891 C.ar      1 <0>         0.0942
     22 O1          2.0483    3.1781   -2.8684 O.3       1 <0>        -0.3126
     23 C17         1.8619    4.5890   -2.9976 C.3       1 <0>         0.0259
     24 O2          3.5078    0.4332   -7.3908 O.3       1 <0>        -0.3172
     25 C18         3.6666    1.1952   -8.5893 C.3       1 <0>         0.0275
     26 H1          1.5927    1.8645    0.3010 H         1 <0>         0.0847
     27 H2          0.3443    1.8759   -0.9677 H         1 <0>         0.0891
     28 H3         -0.1302    1.8673    0.7478 H         1 <0>         0.0945
     29 H4          0.8842   -2.6280   -2.0595 H         1 <0>         0.1657
     30 H5         -0.2010   -2.4766    5.4407 H         1 <0>         0.4151
     31 H6         -0.0778   -3.8945    4.5479 H         1 <0>         0.4179
     32 H7         -0.4080    1.7182    3.1377 H         1 <0>         0.4092
     33 H8          0.8670    1.8085    2.0474 H         1 <0>         0.4183
     34 H9          0.6181   -0.5967   -3.2787 H         1 <0>         0.0772
     35 H10         0.3500    0.9508   -2.4411 H         1 <0>         0.0808
     36 H11         2.7462    1.0229   -1.8073 H         1 <0>         0.0795
     37 H12         3.0143   -0.5246   -2.6449 H         1 <0>         0.0759
     38 H13         3.1371   -0.6314   -5.0280 H         1 <0>         0.1391
     39 H14         3.0829    3.0134   -7.2575 H         1 <0>         0.1299
     40 H15         2.4272    4.2442   -5.2296 H         1 <0>         0.1305
     41 H16         1.5765    5.0077   -2.0325 H         1 <0>         0.0999
     42 H17         2.7916    5.0491   -3.3326 H         1 <0>         0.0536
     43 H18         1.0757    4.7865   -3.7262 H         1 <0>         0.0541
     44 H19         2.7248    1.6856   -8.8355 H         1 <0>         0.0546
     45 H20         4.4405    1.9483   -8.4412 H         1 <0>         0.0543
     46 H21         3.9555    0.5328   -9.4053 H         1 <0>         0.1009
@<TRIPOS>BOND
     1    1    2 1
     2    1   26 1
     3    1   27 1
     4    1   28 1
     5    2    7 ar
     6    2    3 ar
     7    3    4 ar
     8    3   14 1
     9    4    5 ar
    10    4   29 1
    11    5    6 ar
    12    6   11 ar
    13    6    7 ar
    14    7    8 ar
    15    8    9 ar
    16    8   13 1
    17    9   10 ar
    18   10   11 ar
    19   10   12 1
    20   12   30 1
    21   12   31 1
    22   13   32 1
    23   13   33 1
    24   14   15 1
    25   14   34 1
    26   14   35 1
    27   15   16 1
    28   15   36 1
    29   15   37 1
    30   16   21 ar
    31   16   17 ar
    32   17   18 ar
    33   17   38 1
    34   18   19 ar
    35   18   24 1
    36   19   20 ar
    37   19   39 1
    38   20   21 ar
    39   20   40 1
    40   21   22 1
    41   22   23 1
    42   23   41 1
    43   23   42 1
    44   23   43 1
    45   24   25 1
    46   25   44 1
    47   25   45 1
    48   25   46 1
@<TRIPOS>MOLECULE
ZINC03815012
   47    49     0     0     0
SMALL
USER_CHARGES

@<TRIPOS>ATOM
      1 C1          0.6011    1.5059    0.0249 C.3       1 <0>        -0.1661
      2 C2          0.5963   -0.0010    0.0160 C.ar      1 <0>         0.0597
      3 C3          0.7575   -0.7002   -1.1517 C.ar      1 <0>        -0.1429
      4 C4          0.7522   -2.0894   -1.1328 C.ar      1 <0>         0.2212
      5 N1          0.5881   -2.7658   -0.0177 N.ar      1 <0>        -0.4992
      6 C5          0.4222   -2.1439    1.1498 C.ar      1 <0>         0.3932
      7 C6          0.4212   -0.7279    1.1990 C.ar      1 <0>        -0.2284
      8 C7          0.2422   -0.0940    2.4535 C.ar      1 <0>         0.5794
      9 N2          0.0836   -0.8573    3.5254 N.ar      1 <0>        -0.5736
     10 C8          0.0908   -2.1842    3.4357 C.ar      1 <0>         0.6924
     11 N3         -0.0796   -2.9254    4.5894 N.pl3     1 <0>        -0.7808
     12 N4          0.2328    1.2797    2.5563 N.pl3     1 <0>        -0.8024
     13 C9          0.9433    0.0365   -2.4532 C.3       1 <0>        -0.0791
     14 C10         2.4211    0.3897   -2.6328 C.3       1 <0>        -0.0637
     15 C11         2.6069    1.1264   -3.9343 C.ar      1 <0>        -0.0832
     16 C12         2.9794    0.4362   -5.0716 C.ar      1 <0>        -0.1110
     17 C13         3.1462    1.1134   -6.2702 C.ar      1 <0>         0.1001
     18 C14         2.9487    2.4854   -6.3250 C.ar      1 <0>        -0.1667
     19 C15         2.5810    3.1761   -5.1870 C.ar      1 <0>        -0.1621
     20 C16         2.4095    2.4979   -3.9891 C.ar      1 <0>         0.0936
     21 O1          2.0483    3.1781   -2.8684 O.3       1 <0>        -0.3187
     22 C17         1.8619    4.5890   -2.9976 C.3       1 <0>         0.0244
     23 O2          3.5078    0.4332   -7.3908 O.3       1 <0>        -0.3164
     24 C18         3.6666    1.1952   -8.5893 C.3       1 <0>         0.0258
     25 H1          1.5927    1.8645    0.3010 H         1 <0>         0.1052
     26 H2          0.3443    1.8759   -0.9677 H         1 <0>         0.1100
     27 H3         -0.1302    1.8673    0.7478 H         1 <0>         0.1013
     28 H4          0.8842   -2.6280   -2.0595 H         1 <0>         0.1909
     29 H5         -0.2010   -2.4766    5.4407 H         1 <0>         0.4451
     30 H6         -0.0778   -3.8945    4.5479 H         1 <0>         0.4326
     31 H7         -0.4080    1.7182    3.1377 H         1 <0>         0.4299
     32 H8          0.8670    1.8085    2.0474 H         1 <0>         0.4366
     33 H9          0.6181   -0.5967   -3.2787 H         1 <0>         0.0915
     34 H10         0.3500    0.9508   -2.4411 H         1 <0>         0.0943
     35 H11         2.7462    1.0229   -1.8073 H         1 <0>         0.0811
     36 H12         3.0143   -0.5246   -2.6449 H         1 <0>         0.0781
     37 H13         3.1371   -0.6314   -5.0280 H         1 <0>         0.1389
     38 H14         3.0829    3.0134   -7.2575 H         1 <0>         0.1334
     39 H15         2.4272    4.2442   -5.2296 H         1 <0>         0.1331
     40 H16         1.5765    5.0077   -2.0325 H         1 <0>         0.1008
     41 H17         2.7916    5.0491   -3.3326 H         1 <0>         0.0566
     42 H18         1.0757    4.7865   -3.7262 H         1 <0>         0.0565
     43 H19         2.7248    1.6856   -8.8355 H         1 <0>         0.0565
     44 H20         4.4405    1.9483   -8.4412 H         1 <0>         0.0566
     45 H21         3.9555    0.5328   -9.4053 H         1 <0>         0.1040
     46 N5          0.2529   -2.8960    2.2921 N.ar      1 <0>        -0.5888
     47 H22         0.2439   -3.8956    2.3198 H         1 <0>         0.4601
@<TRIPOS>BOND
     1    1    2 1
     2    1   25 1
     3    1   26 1
     4    1   27 1
     5    2    7 ar
     6    2    3 ar
     7    3    4 ar
     8    3   13 1
     9    4    5 ar
    10    4   28 1
    11    5    6 ar
    12    6    7 ar
    13    6   46 ar
    14    7    8 ar
    15    8    9 ar
    16    8   12 1
    17    9   10 ar
    18   10   11 1
    19   10   46 ar
    20   11   29 1
    21   11   30 1
    22   12   31 1
    23   12   32 1
    24   13   14 1
    25   13   33 1
    26   13   34 1
    27   14   15 1
    28   14   35 1
    29   14   36 1
    30   15   20 ar
    31   15   16 ar
    32   16   17 ar
    33   16   37 1
    34   17   18 ar
    35   17   23 1
    36   18   19 ar
    37   18   38 1
    38   19   20 ar
    39   19   39 1
    40   20   21 1
    41   21   22 1
    42   22   40 1
    43   22   41 1
    44   22   42 1
    45   23   24 1
    46   24   43 1
    47   24   44 1
    48   24   45 1
    49   46   47 1
@<TRIPOS>MOLECULE
ZINC03815013
   43    45     0     0     0
SMALL
USER_CHARGES

@<TRIPOS>ATOM
      1 C1          1.2800    2.4850   -6.9293 C.3       1 <0>        -0.1165
      2 C2          2.2609    2.1743   -5.8283 C.ar      1 <0>        -0.0436
      3 C3          3.5753    2.5913   -5.9362 C.ar      1 <0>        -0.1750
      4 C4          4.4784    2.3087   -4.9282 C.ar      1 <0>        -0.0698
      5 C5          4.0707    1.6083   -3.8097 C.ar      1 <0>        -0.1674
      6 C6          2.7516    1.1881   -3.6981 C.ar      1 <0>         0.2198
      7 C7          1.8478    1.4695   -4.7151 C.ar      1 <0>        -0.1954
      8 N1          2.3360    0.4792   -2.5687 N.pl3     1 <0>        -0.7444
      9 C8          0.9442    0.0367   -2.4527 C.3       1 <0>         0.1783
     10 C9          0.7581   -0.7000   -1.1513 C.ar      1 <0>        -0.2167
     11 C10         0.7545   -2.0896   -1.1322 C.ar      1 <0>         0.2100
     12 N2          0.5894   -2.7660   -0.0176 N.ar      1 <0>        -0.4893
     13 C11         0.4223   -2.1441    1.1501 C.ar      1 <0>         0.4162
     14 C12         0.4214   -0.7281    1.1994 C.ar      1 <0>        -0.2824
     15 C13         0.5967   -0.0010    0.0160 C.ar      1 <0>         0.0593
     16 C14         0.6016    1.5059    0.0249 C.3       1 <0>        -0.1539
     17 C15         0.2422   -0.0944    2.4535 C.ar      1 <0>         0.5244
     18 N3          0.0833   -0.8578    3.5256 N.ar      1 <0>        -0.6170
     19 C16         0.0906   -2.1844    3.4359 C.ar      1 <0>         0.6251
     20 N4          0.2532   -2.8240    2.2927 N.ar      1 <0>        -0.5912
     21 N5         -0.0800   -2.9256    4.5895 N.pl3     1 <0>        -0.8102
     22 N6          0.2328    1.2794    2.5563 N.pl3     1 <0>        -0.8449
     23 C17         5.0560    1.2999   -2.7120 C.3       1 <0>        -0.1047
     24 H1          1.2856    1.6762   -7.6599 H         1 <0>         0.0707
     25 H2          0.2801    2.5863   -6.5071 H         1 <0>         0.0645
     26 H3          1.5646    3.4173   -7.4171 H         1 <0>         0.0663
     27 H4          3.8969    3.1385   -6.8100 H         1 <0>         0.1169
     28 H5          5.5040    2.6358   -5.0156 H         1 <0>         0.1194
     29 H6          0.8224    1.1404   -4.6334 H         1 <0>         0.1198
     30 H7          2.9688    0.2798   -1.8612 H         1 <0>         0.3989
     31 H8          0.7034   -0.6267   -3.2834 H         1 <0>         0.0720
     32 H9          0.2841    0.9038   -2.4770 H         1 <0>         0.0717
     33 H10         0.8873   -2.6282   -2.0588 H         1 <0>         0.1675
     34 H11         1.5930    1.8644    0.3018 H         1 <0>         0.0863
     35 H12         0.3455    1.8759   -0.9678 H         1 <0>         0.0859
     36 H13        -0.1303    1.8673    0.7473 H         1 <0>         0.0994
     37 H14        -0.2015   -2.4769    5.4409 H         1 <0>         0.4164
     38 H15        -0.0781   -3.8947    4.5480 H         1 <0>         0.4190
     39 H16        -0.4080    1.7178    3.1376 H         1 <0>         0.4109
     40 H17         0.8670    1.8081    2.0473 H         1 <0>         0.4184
     41 H18         5.5357    0.3420   -2.9128 H         1 <0>         0.0646
     42 H19         5.8124    2.0837   -2.6720 H         1 <0>         0.0658
     43 H20         4.5326    1.2511   -1.7571 H         1 <0>         0.0549
@<TRIPOS>BOND
     1    1    2 1
     2    1   24 1
     3    1   25 1
     4    1   26 1
     5    2    7 ar
     6    2    3 ar
     7    3    4 ar
     8    3   27 1
     9    4    5 ar
    10    4   28 1
    11    5    6 ar
    12    5   23 1
    13    6    7 ar
    14    6    8 1
    15    7   29 1
    16    8    9 1
    17    8   30 1
    18    9   10 1
    19    9   31 1
    20    9   32 1
    21   10   15 ar
    22   10   11 ar
    23   11   12 ar
    24   11   33 1
    25   12   13 ar
    26   13   20 ar
    27   13   14 ar
    28   14   15 ar
    29   14   17 ar
    30   15   16 1
    31   16   34 1
    32   16   35 1
    33   16   36 1
    34   17   18 ar
    35   17   22 1
    36   18   19 ar
    37   19   20 ar
    38   19   21 1
    39   21   37 1
    40   21   38 1
    41   22   39 1
    42   22   40 1
    43   23   41 1
    44   23   42 1
    45   23   43 1
@<TRIPOS>MOLECULE
ZINC03815013
   44    46     0     0     0
SMALL
USER_CHARGES

@<TRIPOS>ATOM
      1 C1          1.2800    2.4850   -6.9293 C.3       1 <0>        -0.1196
      2 C2          2.2609    2.1743   -5.8283 C.ar      1 <0>        -0.0418
      3 C3          3.5753    2.5913   -5.9362 C.ar      1 <0>        -0.1643
      4 C4          4.4784    2.3087   -4.9282 C.ar      1 <0>        -0.0693
      5 C5          4.0707    1.6083   -3.8097 C.ar      1 <0>        -0.1615
      6 C6          2.7516    1.1881   -3.6981 C.ar      1 <0>         0.2097
      7 C7          1.8478    1.4695   -4.7151 C.ar      1 <0>        -0.1919
      8 N1          2.3360    0.4792   -2.5687 N.pl3     1 <0>        -0.7506
      9 C8          0.9442    0.0367   -2.4527 C.3       1 <0>         0.1683
     10 C9          0.7581   -0.7000   -1.1513 C.ar      1 <0>        -0.1737
     11 C10         0.7545   -2.0896   -1.1322 C.ar      1 <0>         0.2375
     12 N2          0.5894   -2.7660   -0.0176 N.ar      1 <0>        -0.5006
     13 C11         0.4223   -2.1441    1.1501 C.ar      1 <0>         0.3992
     14 C12         0.4214   -0.7281    1.1994 C.ar      1 <0>        -0.2349
     15 C13         0.5967   -0.0010    0.0160 C.ar      1 <0>         0.0765
     16 C14         0.6016    1.5059    0.0249 C.3       1 <0>        -0.1673
     17 C15         0.2422   -0.0944    2.4535 C.ar      1 <0>         0.5804
     18 N3          0.0833   -0.8578    3.5256 N.ar      1 <0>        -0.5703
     19 C16         0.0906   -2.1844    3.4359 C.ar      1 <0>         0.7013
     20 N4         -0.0800   -2.9256    4.5895 N.pl3     1 <0>        -0.7772
     21 N5          0.2328    1.2794    2.5563 N.pl3     1 <0>        -0.8011
     22 C17         5.0560    1.2999   -2.7120 C.3       1 <0>        -0.1048
     23 H1          1.2856    1.6762   -7.6599 H         1 <0>         0.0734
     24 H2          0.2801    2.5863   -6.5071 H         1 <0>         0.0654
     25 H3          1.5646    3.4173   -7.4171 H         1 <0>         0.0696
     26 H4          3.8969    3.1385   -6.8100 H         1 <0>         0.1215
     27 H5          5.5040    2.6358   -5.0156 H         1 <0>         0.1234
     28 H6          0.8224    1.1404   -4.6334 H         1 <0>         0.1196
     29 H7          2.9688    0.2798   -1.8612 H         1 <0>         0.3983
     30 H8          0.7034   -0.6267   -3.2834 H         1 <0>         0.0831
     31 H9          0.2841    0.9038   -2.4770 H         1 <0>         0.0833
     32 H10         0.8873   -2.6282   -2.0588 H         1 <0>         0.1930
     33 H11         1.5930    1.8644    0.3018 H         1 <0>         0.1063
     34 H12         0.3455    1.8759   -0.9678 H         1 <0>         0.1070
     35 H13        -0.1303    1.8673    0.7473 H         1 <0>         0.1057
     36 H14        -0.2015   -2.4769    5.4409 H         1 <0>         0.4460
     37 H15        -0.0781   -3.8947    4.5480 H         1 <0>         0.4337
     38 H16        -0.4080    1.7178    3.1376 H         1 <0>         0.4314
     39 H17         0.8670    1.8081    2.0473 H         1 <0>         0.4366
     40 H18         5.5357    0.3420   -2.9128 H         1 <0>         0.0658
     41 H19         5.8124    2.0837   -2.6720 H         1 <0>         0.0692
     42 H20         4.5326    1.2511   -1.7571 H         1 <0>         0.0517
     43 N6          0.2529   -2.8962    2.2920 N.ar      1 <0>        -0.5915
     44 H21         0.2558   -3.8947    2.2380 H         1 <0>         0.4634
@<TRIPOS>BOND
     1    1    2 1
     2    1   23 1
     3    1   24 1
     4    1   25 1
     5    2    7 ar
     6    2    3 ar
     7    3    4 ar
     8    3   26 1
     9    4    5 ar
    10    4   27 1
    11    5    6 ar
    12    5   22 1
    13    6    7 ar
    14    6    8 1
    15    7   28 1
    16    8    9 1
    17    8   29 1
    18    9   10 1
    19    9   30 1
    20    9   31 1
    21   10   15 ar
    22   10   11 ar
    23   11   12 ar
    24   11   32 1
    25   12   13 ar
    26   13   14 ar
    27   13   43 ar
    28   14   15 ar
    29   14   17 ar
    30   15   16 1
    31   16   33 1
    32   16   34 1
    33   16   35 1
    34   17   18 ar
    35   17   21 1
    36   18   19 ar
    37   19   20 1
    38   19   43 ar
    39   20   36 1
    40   20   37 1
    41   21   38 1
    42   21   39 1
    43   22   40 1
    44   22   41 1
    45   22   42 1
    46   43   44 1
@<TRIPOS>MOLECULE
ZINC03815014
   44    46     0     0     0
SMALL
USER_CHARGES

@<TRIPOS>ATOM
      1 C1          5.0522    1.3099   -2.7063 C.3       1 <0>        -0.1066
      2 C2          4.0699    1.6139   -3.8080 C.ar      1 <0>        -0.1205
      3 C3          4.4814    2.3099   -4.9279 C.ar      1 <0>        -0.1047
      4 C4          3.5763    2.5947   -5.9393 C.ar      1 <0>         0.0744
      5 C5          2.2583    2.1760   -5.8298 C.ar      1 <0>        -0.1635
      6 C6          1.8466    1.4751   -4.7135 C.ar      1 <0>        -0.1549
      7 C7          2.7524    1.1894   -3.7003 C.ar      1 <0>         0.1835
      8 N1          2.3360    0.4792   -2.5687 N.pl3     1 <0>        -0.7461
      9 C8          0.9442    0.0367   -2.4527 C.3       1 <0>         0.1794
     10 C9          0.7581   -0.7000   -1.1513 C.ar      1 <0>        -0.2160
     11 C10         0.7545   -2.0896   -1.1322 C.ar      1 <0>         0.2098
     12 N2          0.5894   -2.7660   -0.0176 N.ar      1 <0>        -0.4895
     13 C11         0.4223   -2.1441    1.1501 C.ar      1 <0>         0.4160
     14 C12         0.4214   -0.7281    1.1994 C.ar      1 <0>        -0.2824
     15 C13         0.5967   -0.0010    0.0160 C.ar      1 <0>         0.0592
     16 C14         0.6016    1.5059    0.0249 C.3       1 <0>        -0.1537
     17 C15         0.2422   -0.0944    2.4535 C.ar      1 <0>         0.5243
     18 N3          0.0833   -0.8578    3.5256 N.ar      1 <0>        -0.6170
     19 C16         0.0906   -2.1844    3.4359 C.ar      1 <0>         0.6250
     20 N4          0.2532   -2.8240    2.2927 N.ar      1 <0>        -0.5913
     21 N5         -0.0800   -2.9256    4.5895 N.pl3     1 <0>        -0.8103
     22 N6          0.2328    1.2794    2.5563 N.pl3     1 <0>        -0.8450
     23 O1          3.9809    3.2854   -7.0388 O.3       1 <0>        -0.3221
     24 C17         2.9958    3.5441   -8.0412 C.3       1 <0>         0.0295
     25 H1          5.5356    0.3532   -2.9044 H         1 <0>         0.0692
     26 H2          5.8059    2.0961   -2.6644 H         1 <0>         0.0693
     27 H3          4.5254    1.2604   -1.7533 H         1 <0>         0.0592
     28 H4          5.5073    2.6366   -5.0138 H         1 <0>         0.1290
     29 H5          1.5540    2.3986   -6.6177 H         1 <0>         0.1259
     30 H6          0.8203    1.1495   -4.6283 H         1 <0>         0.1238
     31 H7          2.9688    0.2798   -1.8612 H         1 <0>         0.3986
     32 H8          0.7034   -0.6267   -3.2834 H         1 <0>         0.0707
     33 H9          0.2841    0.9038   -2.4770 H         1 <0>         0.0704
     34 H10         0.8866   -2.6282   -2.0590 H         1 <0>         0.1675
     35 H11         1.5930    1.8644    0.3018 H         1 <0>         0.0865
     36 H12         0.3455    1.8759   -0.9678 H         1 <0>         0.0860
     37 H13        -0.1303    1.8673    0.7473 H         1 <0>         0.0990
     38 H14        -0.2015   -2.4769    5.4409 H         1 <0>         0.4164
     39 H15        -0.0781   -3.8947    4.5480 H         1 <0>         0.4190
     40 H16        -0.4080    1.7178    3.1376 H         1 <0>         0.4108
     41 H17         0.8670    1.8081    2.0473 H         1 <0>         0.4185
     42 H18         2.1837    4.1296   -7.6100 H         1 <0>         0.0525
     43 H19         3.4494    4.1008   -8.8612 H         1 <0>         0.0975
     44 H20         2.6029    2.5994   -8.4169 H         1 <0>         0.0528
@<TRIPOS>BOND
     1    1    2 1
     2    1   25 1
     3    1   26 1
     4    1   27 1
     5    2    7 ar
     6    2    3 ar
     7    3    4 ar
     8    3   28 1
     9    4    5 ar
    10    4   23 1
    11    5    6 ar
    12    5   29 1
    13    6    7 ar
    14    6   30 1
    15    7    8 1
    16    8    9 1
    17    8   31 1
    18    9   10 1
    19    9   32 1
    20    9   33 1
    21   10   15 ar
    22   10   11 ar
    23   11   12 ar
    24   11   34 1
    25   12   13 ar
    26   13   20 ar
    27   13   14 ar
    28   14   15 ar
    29   14   17 ar
    30   15   16 1
    31   16   35 1
    32   16   36 1
    33   16   37 1
    34   17   18 ar
    35   17   22 1
    36   18   19 ar
    37   19   20 ar
    38   19   21 1
    39   21   38 1
    40   21   39 1
    41   22   40 1
    42   22   41 1
    43   23   24 1
    44   24   42 1
    45   24   43 1
    46   24   44 1
@<TRIPOS>MOLECULE
ZINC03815014
   45    47     0     0     0
SMALL
USER_CHARGES

@<TRIPOS>ATOM
      1 C1          5.0522    1.3099   -2.7063 C.3       1 <0>        -0.1069
      2 C2          4.0699    1.6139   -3.8080 C.ar      1 <0>        -0.1129
      3 C3          4.4814    2.3099   -4.9279 C.ar      1 <0>        -0.1068
      4 C4          3.5763    2.5947   -5.9393 C.ar      1 <0>         0.0882
      5 C5          2.2583    2.1760   -5.8298 C.ar      1 <0>        -0.1663
      6 C6          1.8466    1.4751   -4.7135 C.ar      1 <0>        -0.1492
      7 C7          2.7524    1.1894   -3.7003 C.ar      1 <0>         0.1706
      8 N1          2.3360    0.4792   -2.5687 N.pl3     1 <0>        -0.7520
      9 C8          0.9442    0.0367   -2.4527 C.3       1 <0>         0.1695
     10 C9          0.7581   -0.7000   -1.1513 C.ar      1 <0>        -0.1730
     11 C10         0.7545   -2.0896   -1.1322 C.ar      1 <0>         0.2373
     12 N2          0.5894   -2.7660   -0.0176 N.ar      1 <0>        -0.5008
     13 C11         0.4223   -2.1441    1.1501 C.ar      1 <0>         0.3990
     14 C12         0.4214   -0.7281    1.1994 C.ar      1 <0>        -0.2349
     15 C13         0.5967   -0.0010    0.0160 C.ar      1 <0>         0.0764
     16 C14         0.6016    1.5059    0.0249 C.3       1 <0>        -0.1672
     17 C15         0.2422   -0.0944    2.4535 C.ar      1 <0>         0.5804
     18 N3          0.0833   -0.8578    3.5256 N.ar      1 <0>        -0.5704
     19 C16         0.0906   -2.1844    3.4359 C.ar      1 <0>         0.7013
     20 N4         -0.0800   -2.9256    4.5895 N.pl3     1 <0>        -0.7773
     21 N5          0.2328    1.2794    2.5563 N.pl3     1 <0>        -0.8011
     22 O1          3.9809    3.2854   -7.0388 O.3       1 <0>        -0.3191
     23 C17         2.9958    3.5441   -8.0412 C.3       1 <0>         0.0278
     24 H1          5.5356    0.3532   -2.9044 H         1 <0>         0.0704
     25 H2          5.8059    2.0961   -2.6644 H         1 <0>         0.0727
     26 H3          4.5254    1.2604   -1.7533 H         1 <0>         0.0560
     27 H4          5.5073    2.6366   -5.0138 H         1 <0>         0.1326
     28 H5          1.5540    2.3986   -6.6177 H         1 <0>         0.1293
     29 H6          0.8203    1.1495   -4.6283 H         1 <0>         0.1232
     30 H7          2.9688    0.2798   -1.8612 H         1 <0>         0.3979
     31 H8          0.7034   -0.6267   -3.2834 H         1 <0>         0.0818
     32 H9          0.2841    0.9038   -2.4770 H         1 <0>         0.0820
     33 H10         0.8866   -2.6282   -2.0590 H         1 <0>         0.1929
     34 H11         1.5930    1.8644    0.3018 H         1 <0>         0.1064
     35 H12         0.3455    1.8759   -0.9678 H         1 <0>         0.1071
     36 H13        -0.1303    1.8673    0.7473 H         1 <0>         0.1053
     37 H14        -0.2015   -2.4769    5.4409 H         1 <0>         0.4459
     38 H15        -0.0781   -3.8947    4.5480 H         1 <0>         0.4337
     39 H16        -0.4080    1.7178    3.1376 H         1 <0>         0.4313
     40 H17         0.8670    1.8081    2.0473 H         1 <0>         0.4366
     41 H18         2.1837    4.1296   -7.6100 H         1 <0>         0.0543
     42 H19         3.4494    4.1008   -8.8612 H         1 <0>         0.1014
     43 H20         2.6029    2.5994   -8.4169 H         1 <0>         0.0546
     44 N6          0.2529   -2.8962    2.2920 N.ar      1 <0>        -0.5915
     45 H21         0.2558   -3.8947    2.2380 H         1 <0>         0.4634
@<TRIPOS>BOND
     1    1    2 1
     2    1   24 1
     3    1   25 1
     4    1   26 1
     5    2    7 ar
     6    2    3 ar
     7    3    4 ar
     8    3   27 1
     9    4    5 ar
    10    4   22 1
    11    5    6 ar
    12    5   28 1
    13    6    7 ar
    14    6   29 1
    15    7    8 1
    16    8    9 1
    17    8   30 1
    18    9   10 1
    19    9   31 1
    20    9   32 1
    21   10   15 ar
    22   10   11 ar
    23   11   12 ar
    24   11   33 1
    25   12   13 ar
    26   13   14 ar
    27   13   44 ar
    28   14   15 ar
    29   14   17 ar
    30   15   16 1
    31   16   34 1
    32   16   35 1
    33   16   36 1
    34   17   18 ar
    35   17   21 1
    36   18   19 ar
    37   19   20 1
    38   19   44 ar
    39   20   37 1
    40   20   38 1
    41   21   39 1
    42   21   40 1
    43   22   23 1
    44   23   41 1
    45   23   42 1
    46   23   43 1
    47   44   45 1
@<TRIPOS>MOLECULE
ZINC03815015
   44    46     0     0     0
SMALL
USER_CHARGES

@<TRIPOS>ATOM
      1 C1          1.2803    2.4860   -6.9306 C.3       1 <0>        -0.1124
      2 C2          2.2628    2.1767   -5.8305 C.ar      1 <0>        -0.0715
      3 C3          3.5759    2.5952   -5.9409 C.ar      1 <0>        -0.1406
      4 C4          4.4820    2.3139   -4.9349 C.ar      1 <0>        -0.1580
      5 C5          4.0755    1.6112   -3.8127 C.ar      1 <0>         0.0479
      6 C6          2.7524    1.1896   -3.7005 C.ar      1 <0>         0.1992
      7 C7          1.8502    1.4708   -4.7161 C.ar      1 <0>        -0.1688
      8 N1          2.3360    0.4792   -2.5687 N.pl3     1 <0>        -0.7404
      9 C8          0.9442    0.0367   -2.4527 C.3       1 <0>         0.1798
     10 C9          0.7581   -0.7000   -1.1513 C.ar      1 <0>        -0.2152
     11 C10         0.7545   -2.0896   -1.1322 C.ar      1 <0>         0.2104
     12 N2          0.5894   -2.7660   -0.0176 N.ar      1 <0>        -0.4899
     13 C11         0.4223   -2.1441    1.1501 C.ar      1 <0>         0.4160
     14 C12         0.4214   -0.7281    1.1994 C.ar      1 <0>        -0.2822
     15 C13         0.5967   -0.0010    0.0160 C.ar      1 <0>         0.0603
     16 C14         0.6016    1.5059    0.0249 C.3       1 <0>        -0.1534
     17 C15         0.2422   -0.0944    2.4535 C.ar      1 <0>         0.5245
     18 N3          0.0833   -0.8578    3.5256 N.ar      1 <0>        -0.6175
     19 C16         0.0906   -2.1844    3.4359 C.ar      1 <0>         0.6247
     20 N4          0.2532   -2.8240    2.2927 N.ar      1 <0>        -0.5913
     21 N5         -0.0800   -2.9256    4.5895 N.pl3     1 <0>        -0.8107
     22 N6          0.2328    1.2794    2.5563 N.pl3     1 <0>        -0.8450
     23 O1          4.9659    1.3331   -2.8229 O.3       1 <0>        -0.3239
     24 C17         6.3052    1.7966   -3.0060 C.3       1 <0>         0.0322
     25 H1          1.2860    1.6769   -7.6609 H         1 <0>         0.0694
     26 H2          0.2809    2.5865   -6.5074 H         1 <0>         0.0644
     27 H3          1.5635    3.4184   -7.4191 H         1 <0>         0.0652
     28 H4          3.8949    3.1429   -6.8153 H         1 <0>         0.1201
     29 H5          5.5071    2.6419   -5.0244 H         1 <0>         0.1260
     30 H6          0.8249    1.1415   -4.6343 H         1 <0>         0.1274
     31 H7          2.9688    0.2798   -1.8612 H         1 <0>         0.4045
     32 H8          0.7034   -0.6267   -3.2834 H         1 <0>         0.0712
     33 H9          0.2841    0.9038   -2.4770 H         1 <0>         0.0712
     34 H10         0.8873   -2.6282   -2.0588 H         1 <0>         0.1675
     35 H11         1.5930    1.8644    0.3018 H         1 <0>         0.0870
     36 H12         0.3455    1.8759   -0.9678 H         1 <0>         0.0857
     37 H13        -0.1303    1.8673    0.7473 H         1 <0>         0.0987
     38 H14        -0.2015   -2.4769    5.4409 H         1 <0>         0.4162
     39 H15        -0.0781   -3.8947    4.5480 H         1 <0>         0.4188
     40 H16        -0.4080    1.7178    3.1376 H         1 <0>         0.4106
     41 H17         0.8670    1.8081    2.0473 H         1 <0>         0.4186
     42 H18         6.7232    1.3522   -3.9093 H         1 <0>         0.0535
     43 H19         6.3040    2.8823   -3.1023 H         1 <0>         0.0530
     44 H20         6.9101    1.5087   -2.1461 H         1 <0>         0.0969
@<TRIPOS>BOND
     1    1    2 1
     2    1   25 1
     3    1   26 1
     4    1   27 1
     5    2    7 ar
     6    2    3 ar
     7    3    4 ar
     8    3   28 1
     9    4    5 ar
    10    4   29 1
    11    5    6 ar
    12    5   23 1
    13    6    7 ar
    14    6    8 1
    15    7   30 1
    16    8    9 1
    17    8   31 1
    18    9   10 1
    19    9   32 1
    20    9   33 1
    21   10   15 ar
    22   10   11 ar
    23   11   12 ar
    24   11   34 1
    25   12   13 ar
    26   13   20 ar
    27   13   14 ar
    28   14   15 ar
    29   14   17 ar
    30   15   16 1
    31   16   35 1
    32   16   36 1
    33   16   37 1
    34   17   18 ar
    35   17   22 1
    36   18   19 ar
    37   19   20 ar
    38   19   21 1
    39   21   38 1
    40   21   39 1
    41   22   40 1
    42   22   41 1
    43   23   24 1
    44   24   42 1
    45   24   43 1
    46   24   44 1
@<TRIPOS>MOLECULE
ZINC03815015
   45    47     0     0     0
SMALL
USER_CHARGES

@<TRIPOS>ATOM
      1 C1          1.2803    2.4860   -6.9306 C.3       1 <0>        -0.1154
      2 C2          2.2628    2.1767   -5.8305 C.ar      1 <0>        -0.0709
      3 C3          3.5759    2.5952   -5.9409 C.ar      1 <0>        -0.1292
      4 C4          4.4820    2.3139   -4.9349 C.ar      1 <0>        -0.1573
      5 C5          4.0755    1.6112   -3.8127 C.ar      1 <0>         0.0542
      6 C6          2.7524    1.1896   -3.7005 C.ar      1 <0>         0.1877
      7 C7          1.8502    1.4708   -4.7161 C.ar      1 <0>        -0.1635
      8 N1          2.3360    0.4792   -2.5687 N.pl3     1 <0>        -0.7468
      9 C8          0.9442    0.0367   -2.4527 C.3       1 <0>         0.1700
     10 C9          0.7581   -0.7000   -1.1513 C.ar      1 <0>        -0.1722
     11 C10         0.7545   -2.0896   -1.1322 C.ar      1 <0>         0.2378
     12 N2          0.5894   -2.7660   -0.0176 N.ar      1 <0>        -0.5011
     13 C11         0.4223   -2.1441    1.1501 C.ar      1 <0>         0.3989
     14 C12         0.4214   -0.7281    1.1994 C.ar      1 <0>        -0.2350
     15 C13         0.5967   -0.0010    0.0160 C.ar      1 <0>         0.0776
     16 C14         0.6016    1.5059    0.0249 C.3       1 <0>        -0.1668
     17 C15         0.2422   -0.0944    2.4535 C.ar      1 <0>         0.5806
     18 N3          0.0833   -0.8578    3.5256 N.ar      1 <0>        -0.5707
     19 C16         0.0906   -2.1844    3.4359 C.ar      1 <0>         0.7012
     20 N4         -0.0800   -2.9256    4.5895 N.pl3     1 <0>        -0.7778
     21 N5          0.2328    1.2794    2.5563 N.pl3     1 <0>        -0.8012
     22 O1          4.9659    1.3331   -2.8229 O.3       1 <0>        -0.3273
     23 C17         6.3052    1.7966   -3.0060 C.3       1 <0>         0.0305
     24 H1          1.2860    1.6769   -7.6609 H         1 <0>         0.0719
     25 H2          0.2809    2.5865   -6.5074 H         1 <0>         0.0653
     26 H3          1.5635    3.4184   -7.4191 H         1 <0>         0.0685
     27 H4          3.8949    3.1429   -6.8153 H         1 <0>         0.1246
     28 H5          5.5071    2.6419   -5.0244 H         1 <0>         0.1297
     29 H6          0.8249    1.1415   -4.6343 H         1 <0>         0.1272
     30 H7          2.9688    0.2798   -1.8612 H         1 <0>         0.4038
     31 H8          0.7034   -0.6267   -3.2834 H         1 <0>         0.0822
     32 H9          0.2841    0.9038   -2.4770 H         1 <0>         0.0826
     33 H10         0.8873   -2.6282   -2.0588 H         1 <0>         0.1929
     34 H11         1.5930    1.8644    0.3018 H         1 <0>         0.1069
     35 H12         0.3455    1.8759   -0.9678 H         1 <0>         0.1068
     36 H13        -0.1303    1.8673    0.7473 H         1 <0>         0.1050
     37 H14        -0.2015   -2.4769    5.4409 H         1 <0>         0.4458
     38 H15        -0.0781   -3.8947    4.5480 H         1 <0>         0.4335
     39 H16        -0.4080    1.7178    3.1376 H         1 <0>         0.4311
     40 H17         0.8670    1.8081    2.0473 H         1 <0>         0.4368
     41 H18         6.7232    1.3522   -3.9093 H         1 <0>         0.0562
     42 H19         6.3040    2.8823   -3.1023 H         1 <0>         0.0558
     43 H20         6.9101    1.5087   -2.1461 H         1 <0>         0.0985
     44 N6          0.2529   -2.8962    2.2920 N.ar      1 <0>        -0.5914
     45 H21         0.2558   -3.8947    2.2380 H         1 <0>         0.4632
@<TRIPOS>BOND
     1    1    2 1
     2    1   24 1
     3    1   25 1
     4    1   26 1
     5    2    7 ar
     6    2    3 ar
     7    3    4 ar
     8    3   27 1
     9    4    5 ar
    10    4   28 1
    11    5    6 ar
    12    5   22 1
    13    6    7 ar
    14    6    8 1
    15    7   29 1
    16    8    9 1
    17    8   30 1
    18    9   10 1
    19    9   31 1
    20    9   32 1
    21   10   15 ar
    22   10   11 ar
    23   11   12 ar
    24   11   33 1
    25   12   13 ar
    26   13   14 ar
    27   13   44 ar
    28   14   15 ar
    29   14   17 ar
    30   15   16 1
    31   16   34 1
    32   16   35 1
    33   16   36 1
    34   17   18 ar
    35   17   21 1
    36   18   19 ar
    37   19   20 1
    38   19   44 ar
    39   20   37 1
    40   20   38 1
    41   21   39 1
    42   21   40 1
    43   22   23 1
    44   23   41 1
    45   23   42 1
    46   23   43 1
    47   44   45 1
@<TRIPOS>MOLECULE
ZINC03815016
   48    50     0     0     0
SMALL
USER_CHARGES

@<TRIPOS>ATOM
      1 C1         -0.0832   -0.0034    0.6168 C.3       1 <0>        -0.1559
      2 C2         -0.1002    1.5034    0.6000 C.ar      1 <0>         0.0527
      3 C3         -1.2579    2.1985    0.8340 C.ar      1 <0>        -0.2141
      4 C4         -1.2465    3.5877    0.8159 C.ar      1 <0>         0.2058
      5 N1         -0.1486    4.2678    0.5711 N.ar      1 <0>        -0.4883
      6 C5          1.0082    3.6498    0.3318 C.ar      1 <0>         0.4124
      7 C6          1.0646    2.2341    0.3393 C.ar      1 <0>        -0.2787
      8 C7          2.3073    1.6044    0.0812 C.ar      1 <0>         0.5221
      9 N2          3.3621    2.3712   -0.1559 N.ar      1 <0>        -0.6171
     10 C8          3.2663    3.6977   -0.1537 C.ar      1 <0>         0.6226
     11 N3          2.1337    4.3335    0.0802 N.ar      1 <0>        -0.5906
     12 N4          4.4020    4.4427   -0.4078 N.pl3     1 <0>        -0.8116
     13 N5          2.4164    0.2312    0.0763 N.pl3     1 <0>        -0.8460
     14 C9         -2.5400    1.4576    1.1135 C.3       1 <0>         0.1743
     15 N6         -2.5597    1.0266    2.5135 N.pl3     1 <0>        -0.6247
     16 C10        -2.0107   -0.2797    2.8856 C.3       1 <0>         0.0897
     17 C11        -3.1030    1.8626    3.4953 C.ar      1 <0>         0.2217
     18 C12        -3.6182    3.1032    3.1434 C.ar      1 <0>        -0.1942
     19 C13        -4.1599    3.9278    4.1112 C.ar      1 <0>        -0.1215
     20 C14        -4.1805    3.5230    5.4359 C.ar      1 <0>         0.0444
     21 C15        -3.6598    2.2830    5.7927 C.ar      1 <0>         0.1458
     22 C16        -3.1217    1.4542    4.8220 C.ar      1 <0>        -0.2489
     23 O1         -3.6797    1.8850    7.0928 O.3       1 <0>        -0.3042
     24 C17        -3.1285    0.5997    7.3863 C.3       1 <0>         0.0272
     25 O2         -4.7096    4.3384    6.3885 O.3       1 <0>        -0.3111
     26 C18        -5.2262    5.5969    5.9511 C.3       1 <0>         0.0280
     27 H1          0.2620   -0.3521    1.5902 H         1 <0>         0.0865
     28 H2         -1.0891   -0.3802    0.4317 H         1 <0>         0.0831
     29 H3          0.5898   -0.3679   -0.1593 H         1 <0>         0.0986
     30 H4         -2.1652    4.1232    1.0049 H         1 <0>         0.1627
     31 H5          5.2454    3.9968   -0.5827 H         1 <0>         0.4158
     32 H6          4.3557    5.4116   -0.4113 H         1 <0>         0.4186
     33 H7          2.9557   -0.2101   -0.5984 H         1 <0>         0.4102
     34 H8          1.9539   -0.2945    0.7476 H         1 <0>         0.4173
     35 H9         -3.3884    2.1151    0.9237 H         1 <0>         0.0895
     36 H10        -2.6043    0.5848    0.4637 H         1 <0>         0.0888
     37 H11        -0.9521   -0.1746    3.1230 H         1 <0>         0.0460
     38 H12        -2.5422   -0.6623    3.7570 H         1 <0>         0.0668
     39 H13        -2.1294   -0.9740    2.0538 H         1 <0>         0.0699
     40 H14        -3.5990    3.4223    2.1118 H         1 <0>         0.1261
     41 H15        -4.5639    4.8906    3.8350 H         1 <0>         0.1355
     42 H16        -2.7167    0.4915    5.0970 H         1 <0>         0.1350
     43 H17        -3.6779   -0.1652    6.8374 H         1 <0>         0.0538
     44 H18        -2.0800    0.5775    7.0892 H         1 <0>         0.0532
     45 H19        -3.2071    0.4062    8.4561 H         1 <0>         0.1003
     46 H20        -4.4291    6.1736    5.4818 H         1 <0>         0.0525
     47 H21        -6.0269    5.4304    5.2305 H         1 <0>         0.0522
     48 H22        -5.6167    6.1468    6.8074 H         1 <0>         0.0976
@<TRIPOS>BOND
     1    1    2 1
     2    1   27 1
     3    1   28 1
     4    1   29 1
     5    2    7 ar
     6    2    3 ar
     7    3    4 ar
     8    3   14 1
     9    4    5 ar
    10    4   30 1
    11    5    6 ar
    12    6   11 ar
    13    6    7 ar
    14    7    8 ar
    15    8    9 ar
    16    8   13 1
    17    9   10 ar
    18   10   11 ar
    19   10   12 1
    20   12   31 1
    21   12   32 1
    22   13   33 1
    23   13   34 1
    24   14   15 1
    25   14   35 1
    26   14   36 1
    27   15   16 1
    28   15   17 1
    29   16   37 1
    30   16   38 1
    31   16   39 1
    32   17   22 ar
    33   17   18 ar
    34   18   19 ar
    35   18   40 1
    36   19   20 ar
    37   19   41 1
    38   20   21 ar
    39   20   25 1
    40   21   22 ar
    41   21   23 1
    42   22   42 1
    43   23   24 1
    44   24   43 1
    45   24   44 1
    46   24   45 1
    47   25   26 1
    48   26   46 1
    49   26   47 1
    50   26   48 1
@<TRIPOS>MOLECULE
ZINC03815016
   49    51     0     0     0
SMALL
USER_CHARGES

@<TRIPOS>ATOM
      1 C1         -0.0832   -0.0034    0.6168 C.3       1 <0>        -0.1701
      2 C2         -0.1002    1.5034    0.6000 C.ar      1 <0>         0.0712
      3 C3         -1.2579    2.1985    0.8340 C.ar      1 <0>        -0.1729
      4 C4         -1.2465    3.5877    0.8159 C.ar      1 <0>         0.2313
      5 N1         -0.1486    4.2678    0.5711 N.ar      1 <0>        -0.4984
      6 C5          1.0082    3.6498    0.3318 C.ar      1 <0>         0.4007
      7 C6          1.0646    2.2341    0.3393 C.ar      1 <0>        -0.2315
      8 C7          2.3073    1.6044    0.0812 C.ar      1 <0>         0.5800
      9 N2          3.3621    2.3712   -0.1559 N.ar      1 <0>        -0.5723
     10 C8          3.2663    3.6977   -0.1537 C.ar      1 <0>         0.6932
     11 N3          4.4020    4.4427   -0.4078 N.pl3     1 <0>        -0.7789
     12 N4          2.4164    0.2312    0.0763 N.pl3     1 <0>        -0.8028
     13 C9         -2.5400    1.4576    1.1135 C.3       1 <0>         0.1643
     14 N5         -2.5597    1.0266    2.5135 N.pl3     1 <0>        -0.6276
     15 C10        -2.0107   -0.2797    2.8856 C.3       1 <0>         0.0857
     16 C11        -3.1030    1.8626    3.4953 C.ar      1 <0>         0.2100
     17 C12        -3.6182    3.1032    3.1434 C.ar      1 <0>        -0.1979
     18 C13        -4.1599    3.9278    4.1112 C.ar      1 <0>        -0.1248
     19 C14        -4.1805    3.5230    5.4359 C.ar      1 <0>         0.0552
     20 C15        -3.6598    2.2830    5.7927 C.ar      1 <0>         0.1493
     21 C16        -3.1217    1.4542    4.8220 C.ar      1 <0>        -0.2433
     22 O1         -3.6797    1.8850    7.0928 O.3       1 <0>        -0.3007
     23 C17        -3.1285    0.5997    7.3863 C.3       1 <0>         0.0260
     24 O2         -4.7096    4.3384    6.3885 O.3       1 <0>        -0.3078
     25 C18        -5.2262    5.5969    5.9511 C.3       1 <0>         0.0270
     26 H1          0.2620   -0.3521    1.5902 H         1 <0>         0.1059
     27 H2         -1.0891   -0.3802    0.4317 H         1 <0>         0.1043
     28 H3          0.5898   -0.3679   -0.1593 H         1 <0>         0.1054
     29 H4         -2.1652    4.1232    1.0049 H         1 <0>         0.1877
     30 H5          5.2454    3.9968   -0.5827 H         1 <0>         0.4457
     31 H6          4.3557    5.4116   -0.4113 H         1 <0>         0.4332
     32 H7          2.9557   -0.2101   -0.5984 H         1 <0>         0.4308
     33 H8          1.9539   -0.2945    0.7476 H         1 <0>         0.4355
     34 H9         -3.3884    2.1151    0.9237 H         1 <0>         0.1012
     35 H10        -2.6043    0.5848    0.4637 H         1 <0>         0.1012
     36 H11        -0.9521   -0.1746    3.1230 H         1 <0>         0.0456
     37 H12        -2.5422   -0.6623    3.7570 H         1 <0>         0.0740
     38 H13        -2.1294   -0.9740    2.0538 H         1 <0>         0.0730
     39 H14        -3.5990    3.4223    2.1118 H         1 <0>         0.1220
     40 H15        -4.5639    4.8906    3.8350 H         1 <0>         0.1378
     41 H16        -2.7167    0.4915    5.0970 H         1 <0>         0.1375
     42 H17        -3.6779   -0.1652    6.8374 H         1 <0>         0.0560
     43 H18        -2.0800    0.5775    7.0892 H         1 <0>         0.0532
     44 H19        -3.2071    0.4062    8.4561 H         1 <0>         0.1044
     45 H20        -4.4291    6.1736    5.4818 H         1 <0>         0.0523
     46 H21        -6.0269    5.4304    5.2305 H         1 <0>         0.0545
     47 H22        -5.6167    6.1468    6.8074 H         1 <0>         0.1018
     48 N6          2.1326    4.4056    0.0794 N.ar      1 <0>        -0.5889
     49 H23         2.1545    5.4052    0.0601 H         1 <0>         0.4609
@<TRIPOS>BOND
     1    1    2 1
     2    1   26 1
     3    1   27 1
     4    1   28 1
     5    2    7 ar
     6    2    3 ar
     7    3    4 ar
     8    3   13 1
     9    4    5 ar
    10    4   29 1
    11    5    6 ar
    12    6    7 ar
    13    6   48 ar
    14    7    8 ar
    15    8    9 ar
    16    8   12 1
    17    9   10 ar
    18   10   11 1
    19   10   48 ar
    20   11   30 1
    21   11   31 1
    22   12   32 1
    23   12   33 1
    24   13   14 1
    25   13   34 1
    26   13   35 1
    27   14   15 1
    28   14   16 1
    29   15   36 1
    30   15   37 1
    31   15   38 1
    32   16   21 ar
    33   16   17 ar
    34   17   18 ar
    35   17   39 1
    36   18   19 ar
    37   18   40 1
    38   19   20 ar
    39   19   24 1
    40   20   21 ar
    41   20   22 1
    42   21   41 1
    43   22   23 1
    44   23   42 1
    45   23   43 1
    46   23   44 1
    47   24   25 1
    48   25   45 1
    49   25   46 1
    50   25   47 1
    51   48   49 1
@<TRIPOS>MOLECULE
ZINC03815017
   47    49     0     0     0
SMALL
USER_CHARGES

@<TRIPOS>ATOM
      1 C1          0.2529   -3.0342   -2.4217 C.3       1 <0>        -0.1549
      2 C2         -0.1227   -2.3154   -1.1516 C.ar      1 <0>         0.0691
      3 C3         -0.6691   -1.0590   -1.1872 C.ar      1 <0>        -0.1918
      4 C4         -1.0095   -0.4187   -0.0021 C.ar      1 <0>         0.1989
      5 N1         -0.8158   -0.9822    1.1695 N.ar      1 <0>        -0.4912
      6 C5         -0.2843   -2.2007    1.2708 C.ar      1 <0>         0.4113
      7 C6          0.0815   -2.9086    0.0993 C.ar      1 <0>        -0.2796
      8 C7          0.6446   -4.2015    0.2373 C.ar      1 <0>         0.5239
      9 N2          0.8033   -4.6897    1.4593 N.ar      1 <0>        -0.6186
     10 C8          0.4464   -3.9918    2.5337 C.ar      1 <0>         0.6223
     11 N3         -0.0815   -2.7845    2.4606 N.ar      1 <0>        -0.5920
     12 N4          0.6370   -4.5552    3.7810 N.pl3     1 <0>        -0.8126
     13 N5          1.0177   -4.9318   -0.8695 N.pl3     1 <0>        -0.8449
     14 C9         -0.9031   -0.3747   -2.5093 C.3       1 <0>         0.1074
     15 N6          0.3769    0.1090   -3.0436 N.pl3     1 <0>        -0.4855
     16 C10         0.8640    1.2643   -2.2782 C.3       1 <0>         0.0269
     17 C11         0.2676    0.4188   -4.4042 C.ar      1 <0>         0.0519
     18 C12        -0.6357    1.3828   -4.8276 C.ar      1 <0>        -0.0591
     19 C13        -0.7384    1.6904   -6.1712 C.ar      1 <0>        -0.2126
     20 C14         0.0502    1.0323   -7.0967 C.ar      1 <0>        -0.0300
     21 C15         0.9491    0.0665   -6.6825 C.ar      1 <0>        -0.2074
     22 C16         1.0615   -0.2441   -5.3375 C.ar      1 <0>         0.1850
     23 O1          1.9446   -1.1945   -4.9288 O.3       1 <0>        -0.2870
     24 C17         2.7255   -1.8327   -5.9412 C.3       1 <0>         0.0180
     25 C18        -1.7164    2.7415   -6.6292 C.3       1 <0>         0.5112
     26 F1         -1.6436    2.8718   -8.0202 F         1 <0>        -0.1771
     27 F2         -3.0127    2.3633   -6.2634 F         1 <0>        -0.1768
     28 F3         -1.4008    3.9652   -6.0290 F         1 <0>        -0.1767
     29 H1         -0.5504   -3.7141   -2.7056 H         1 <0>         0.0770
     30 H2          0.4114   -2.3066   -3.2177 H         1 <0>         0.1009
     31 H3          1.1693   -3.6019   -2.2605 H         1 <0>         0.0967
     32 H4         -1.4429    0.5696   -0.0446 H         1 <0>         0.1618
     33 H5          1.0237   -5.4414    3.8589 H         1 <0>         0.4154
     34 H6          0.3841   -4.0646    4.5786 H         1 <0>         0.4180
     35 H7          1.8484   -5.4326   -0.8626 H         1 <0>         0.4094
     36 H8          0.4498   -4.9452   -1.6558 H         1 <0>         0.4183
     37 H9         -1.3458   -1.0816   -3.2110 H         1 <0>         0.0880
     38 H10        -1.5794    0.4683   -2.3674 H         1 <0>         0.0549
     39 H11         1.0974    0.9533   -1.2599 H         1 <0>         0.0761
     40 H12         1.7620    1.6614   -2.7516 H         1 <0>         0.0717
     41 H13         0.0942    2.0356   -2.2551 H         1 <0>         0.0356
     42 H14        -1.2559    1.8954   -4.1072 H         1 <0>         0.1386
     43 H15        -0.0362    1.2729   -8.1460 H         1 <0>         0.1431
     44 H16         1.5634   -0.4459   -7.4081 H         1 <0>         0.1445
     45 H17         3.3212   -1.0855   -6.4655 H         1 <0>         0.0585
     46 H18         3.3868   -2.5669   -5.4810 H         1 <0>         0.1049
     47 H19         2.0643   -2.3324   -6.6491 H         1 <0>         0.0589
@<TRIPOS>BOND
     1    1    2 1
     2    1   29 1
     3    1   30 1
     4    1   31 1
     5    2    7 ar
     6    2    3 ar
     7    3    4 ar
     8    3   14 1
     9    4    5 ar
    10    4   32 1
    11    5    6 ar
    12    6   11 ar
    13    6    7 ar
    14    7    8 ar
    15    8    9 ar
    16    8   13 1
    17    9   10 ar
    18   10   11 ar
    19   10   12 1
    20   12   33 1
    21   12   34 1
    22   13   35 1
    23   13   36 1
    24   14   15 1
    25   14   37 1
    26   14   38 1
    27   15   16 1
    28   15   17 1
    29   16   39 1
    30   16   40 1
    31   16   41 1
    32   17   22 ar
    33   17   18 ar
    34   18   19 ar
    35   18   42 1
    36   19   20 ar
    37   19   25 1
    38   20   21 ar
    39   20   43 1
    40   21   22 ar
    41   21   44 1
    42   22   23 1
    43   23   24 1
    44   24   45 1
    45   24   46 1
    46   24   47 1
    47   25   26 1
    48   25   27 1
    49   25   28 1
@<TRIPOS>MOLECULE
ZINC03815017
   48    50     0     0     0
SMALL
USER_CHARGES

@<TRIPOS>ATOM
      1 C1          0.2529   -3.0342   -2.4217 C.3       1 <0>        -0.1687
      2 C2         -0.1227   -2.3154   -1.1516 C.ar      1 <0>         0.0873
      3 C3         -0.6691   -1.0590   -1.1872 C.ar      1 <0>        -0.1476
      4 C4         -1.0095   -0.4187   -0.0021 C.ar      1 <0>         0.2230
      5 N1         -0.8158   -0.9822    1.1695 N.ar      1 <0>        -0.5006
      6 C5         -0.2843   -2.2007    1.2708 C.ar      1 <0>         0.3995
      7 C6          0.0815   -2.9086    0.0993 C.ar      1 <0>        -0.2326
      8 C7          0.6446   -4.2015    0.2373 C.ar      1 <0>         0.5811
      9 N2          0.8033   -4.6897    1.4593 N.ar      1 <0>        -0.5734
     10 C8          0.4464   -3.9918    2.5337 C.ar      1 <0>         0.6931
     11 N3          0.6370   -4.5552    3.7810 N.pl3     1 <0>        -0.7802
     12 N4          1.0177   -4.9318   -0.8695 N.pl3     1 <0>        -0.8012
     13 C9         -0.9031   -0.3747   -2.5093 C.3       1 <0>         0.0907
     14 N5          0.3769    0.1090   -3.0436 N.pl3     1 <0>        -0.4836
     15 C10         0.8640    1.2643   -2.2782 C.3       1 <0>         0.0216
     16 C11         0.2676    0.4188   -4.4042 C.ar      1 <0>         0.0397
     17 C12        -0.6357    1.3828   -4.8276 C.ar      1 <0>        -0.0567
     18 C13        -0.7384    1.6904   -6.1712 C.ar      1 <0>        -0.2084
     19 C14         0.0502    1.0323   -7.0967 C.ar      1 <0>        -0.0232
     20 C15         0.9491    0.0665   -6.6825 C.ar      1 <0>        -0.2041
     21 C16         1.0615   -0.2441   -5.3375 C.ar      1 <0>         0.1866
     22 O1          1.9446   -1.1945   -4.9288 O.3       1 <0>        -0.2932
     23 C17         2.7255   -1.8327   -5.9412 C.3       1 <0>         0.0164
     24 C18        -1.7164    2.7415   -6.6292 C.3       1 <0>         0.5103
     25 F1         -1.6436    2.8718   -8.0202 F         1 <0>        -0.1740
     26 F2         -3.0127    2.3633   -6.2634 F         1 <0>        -0.1764
     27 F3         -1.4008    3.9652   -6.0290 F         1 <0>        -0.1754
     28 H1         -0.5504   -3.7141   -2.7056 H         1 <0>         0.0984
     29 H2          0.4114   -2.3066   -3.2177 H         1 <0>         0.1204
     30 H3          1.1693   -3.6019   -2.2605 H         1 <0>         0.1034
     31 H4         -1.4429    0.5696   -0.0446 H         1 <0>         0.1874
     32 H5          1.0237   -5.4414    3.8589 H         1 <0>         0.4453
     33 H6          0.3841   -4.0646    4.5786 H         1 <0>         0.4327
     34 H7          1.8484   -5.4326   -0.8626 H         1 <0>         0.4302
     35 H8          0.4498   -4.9452   -1.6558 H         1 <0>         0.4365
     36 H9         -1.3458   -1.0816   -3.2110 H         1 <0>         0.1021
     37 H10        -1.5794    0.4683   -2.3674 H         1 <0>         0.0678
     38 H11         1.0974    0.9533   -1.2599 H         1 <0>         0.0710
     39 H12         1.7620    1.6614   -2.7516 H         1 <0>         0.0797
     40 H13         0.0942    2.0356   -2.2551 H         1 <0>         0.0412
     41 H14        -1.2559    1.8954   -4.1072 H         1 <0>         0.1391
     42 H15        -0.0362    1.2729   -8.1460 H         1 <0>         0.1471
     43 H16         1.5634   -0.4459   -7.4081 H         1 <0>         0.1477
     44 H17         3.3212   -1.0855   -6.4655 H         1 <0>         0.0618
     45 H18         3.3868   -2.5669   -5.4810 H         1 <0>         0.1060
     46 H19         2.0643   -2.3324   -6.6491 H         1 <0>         0.0614
     47 N6         -0.0995   -2.7498    2.5213 N.ar      1 <0>        -0.5896
     48 H20        -0.3368   -2.2994    3.3819 H         1 <0>         0.4603
@<TRIPOS>BOND
     1    1    2 1
     2    1   28 1
     3    1   29 1
     4    1   30 1
     5    2    7 ar
     6    2    3 ar
     7    3    4 ar
     8    3   13 1
     9    4    5 ar
    10    4   31 1
    11    5    6 ar
    12    6    7 ar
    13    6   47 ar
    14    7    8 ar
    15    8    9 ar
    16    8   12 1
    17    9   10 ar
    18   10   11 1
    19   10   47 ar
    20   11   32 1
    21   11   33 1
    22   12   34 1
    23   12   35 1
    24   13   14 1
    25   13   36 1
    26   13   37 1
    27   14   15 1
    28   14   16 1
    29   15   38 1
    30   15   39 1
    31   15   40 1
    32   16   21 ar
    33   16   17 ar
    34   17   18 ar
    35   17   41 1
    36   18   19 ar
    37   18   24 1
    38   19   20 ar
    39   19   42 1
    40   20   21 ar
    41   20   43 1
    42   21   22 1
    43   22   23 1
    44   23   44 1
    45   23   45 1
    46   23   46 1
    47   24   25 1
    48   24   26 1
    49   24   27 1
    50   47   48 1
@<TRIPOS>MOLECULE
ZINC03815018
   46    49     0     0     0
SMALL
USER_CHARGES

@<TRIPOS>ATOM
      1 C1         -0.5865    7.4494    1.0377 C.3       1 <0>        -0.1447
      2 C2         -1.8409    8.2290    0.7378 C.ar      1 <0>         0.0658
      3 C3         -2.9372    7.6174    0.1881 C.ar      1 <0>        -0.1912
      4 C4         -4.0795    8.3596   -0.0846 C.ar      1 <0>         0.1988
      5 N1         -4.1495    9.6451    0.1809 N.ar      1 <0>        -0.4905
      6 C5         -3.1170   10.2974    0.7156 C.ar      1 <0>         0.4110
      7 C6         -1.9205    9.5990    1.0121 C.ar      1 <0>        -0.2789
      8 C7         -0.8397   10.3180    1.5803 C.ar      1 <0>         0.5237
      9 N2         -0.9990   11.6139    1.8085 N.ar      1 <0>        -0.6171
     10 C8         -2.1395   12.2319    1.5153 C.ar      1 <0>         0.6222
     11 N3         -3.1756   11.6094    0.9854 N.ar      1 <0>        -0.5915
     12 N4         -2.2441   13.5847    1.7764 N.pl3     1 <0>        -0.8123
     13 N5          0.3457    9.6867    1.8870 N.pl3     1 <0>        -0.8464
     14 C9         -2.9015    6.1438   -0.1257 C.3       1 <0>         0.1094
     15 N6         -2.0751    5.9171   -1.3189 N.pl3     1 <0>        -0.5002
     16 C10        -2.7559    6.3957   -2.5294 C.3       1 <0>         0.0271
     17 C11        -1.7295    4.5728   -1.4388 C.ar      1 <0>         0.1036
     18 C12        -2.7098    3.6104   -1.5572 C.ar      1 <0>        -0.1479
     19 C13        -2.3752    2.2651   -1.6766 C.ar      1 <0>        -0.1062
     20 C14        -1.0746    1.8617   -1.6804 C.ar      1 <0>        -0.1081
     21 C15        -0.0450    2.8113   -1.5683 C.ar      1 <0>        -0.0460
     22 C16        -0.3728    4.1836   -1.4397 C.ar      1 <0>        -0.0335
     23 C17         0.6567    5.1302   -1.3212 C.ar      1 <0>        -0.0874
     24 C18         1.9546    4.7185   -1.3254 C.ar      1 <0>        -0.1252
     25 C19         2.2781    3.3685   -1.4463 C.ar      1 <0>        -0.1114
     26 C20         1.3061    2.4230   -1.5632 C.ar      1 <0>        -0.1117
     27 H1          0.1210    7.5698    0.2172 H         1 <0>         0.0872
     28 H2         -0.1398    7.8206    1.9601 H         1 <0>         0.0934
     29 H3         -0.8334    6.3940    1.1526 H         1 <0>         0.0821
     30 H4         -4.9347    7.8662   -0.5223 H         1 <0>         0.1619
     31 H5         -1.4952   14.0629    2.1653 H         1 <0>         0.4156
     32 H6         -3.0665   14.0562    1.5707 H         1 <0>         0.4181
     33 H7          0.7268    9.0436    1.2689 H         1 <0>         0.4185
     34 H8          0.7992    9.8853    2.7211 H         1 <0>         0.4099
     35 H9         -3.9145    5.7875   -0.3123 H         1 <0>         0.0545
     36 H10        -2.4758    5.6026    0.7193 H         1 <0>         0.0889
     37 H11        -3.6588    5.8080   -2.6949 H         1 <0>         0.0358
     38 H12        -3.0231    7.4451   -2.4052 H         1 <0>         0.0739
     39 H13        -2.0909    6.2891   -3.3864 H         1 <0>         0.0718
     40 H14        -3.7491    3.9041   -1.5569 H         1 <0>         0.1212
     41 H15        -3.1600    1.5287   -1.7682 H         1 <0>         0.1233
     42 H16        -0.8345    0.8129   -1.7744 H         1 <0>         0.1270
     43 H17         0.4206    6.1798   -1.2267 H         1 <0>         0.1351
     44 H18         2.7448    5.4489   -1.2340 H         1 <0>         0.1217
     45 H19         3.3154    3.0680   -1.4476 H         1 <0>         0.1221
     46 H20         1.5715    1.3803   -1.6562 H         1 <0>         0.1266
@<TRIPOS>BOND
     1    1    2 1
     2    1   27 1
     3    1   28 1
     4    1   29 1
     5    2    7 ar
     6    2    3 ar
     7    3    4 ar
     8    3   14 1
     9    4    5 ar
    10    4   30 1
    11    5    6 ar
    12    6   11 ar
    13    6    7 ar
    14    7    8 ar
    15    8    9 ar
    16    8   13 1
    17    9   10 ar
    18   10   11 ar
    19   10   12 1
    20   12   31 1
    21   12   32 1
    22   13   33 1
    23   13   34 1
    24   14   15 1
    25   14   35 1
    26   14   36 1
    27   15   16 1
    28   15   17 1
    29   16   37 1
    30   16   38 1
    31   16   39 1
    32   17   22 ar
    33   17   18 ar
    34   18   19 ar
    35   18   40 1
    36   19   20 ar
    37   19   41 1
    38   20   21 ar
    39   20   42 1
    40   21   26 ar
    41   21   22 ar
    42   22   23 ar
    43   23   24 ar
    44   23   43 1
    45   24   25 ar
    46   24   44 1
    47   25   26 ar
    48   25   45 1
    49   26   46 1
@<TRIPOS>MOLECULE
ZINC03815018
   47    50     0     0     0
SMALL
USER_CHARGES

@<TRIPOS>ATOM
      1 C1         -0.5865    7.4494    1.0377 C.3       1 <0>        -0.1593
      2 C2         -1.8409    8.2290    0.7378 C.ar      1 <0>         0.0840
      3 C3         -2.9372    7.6174    0.1881 C.ar      1 <0>        -0.1474
      4 C4         -4.0795    8.3596   -0.0846 C.ar      1 <0>         0.2232
      5 N1         -4.1495    9.6451    0.1809 N.ar      1 <0>        -0.5004
      6 C5         -3.1170   10.2974    0.7156 C.ar      1 <0>         0.3993
      7 C6         -1.9205    9.5990    1.0121 C.ar      1 <0>        -0.2319
      8 C7         -0.8397   10.3180    1.5803 C.ar      1 <0>         0.5815
      9 N2         -0.9990   11.6139    1.8085 N.ar      1 <0>        -0.5723
     10 C8         -2.1395   12.2319    1.5153 C.ar      1 <0>         0.6929
     11 N3         -2.2441   13.5847    1.7764 N.pl3     1 <0>        -0.7797
     12 N4          0.3457    9.6867    1.8870 N.pl3     1 <0>        -0.8031
     13 C9         -2.9015    6.1438   -0.1257 C.3       1 <0>         0.0932
     14 N5         -2.0751    5.9171   -1.3189 N.pl3     1 <0>        -0.4970
     15 C10        -2.7559    6.3957   -2.5294 C.3       1 <0>         0.0223
     16 C11        -1.7295    4.5728   -1.4388 C.ar      1 <0>         0.0868
     17 C12        -2.7098    3.6104   -1.5572 C.ar      1 <0>        -0.1379
     18 C13        -2.3752    2.2651   -1.6766 C.ar      1 <0>        -0.1101
     19 C14        -1.0746    1.8617   -1.6804 C.ar      1 <0>        -0.0964
     20 C15        -0.0450    2.8113   -1.5683 C.ar      1 <0>        -0.0475
     21 C16        -0.3728    4.1836   -1.4397 C.ar      1 <0>        -0.0297
     22 C17         0.6567    5.1302   -1.3212 C.ar      1 <0>        -0.0983
     23 C18         1.9546    4.7185   -1.3254 C.ar      1 <0>        -0.1174
     24 C19         2.2781    3.3685   -1.4463 C.ar      1 <0>        -0.1126
     25 C20         1.3061    2.4230   -1.5632 C.ar      1 <0>        -0.1040
     26 H1          0.1210    7.5698    0.2172 H         1 <0>         0.1072
     27 H2         -0.1398    7.8206    1.9601 H         1 <0>         0.1003
     28 H3         -0.8334    6.3940    1.1526 H         1 <0>         0.1038
     29 H4         -4.9347    7.8662   -0.5223 H         1 <0>         0.1874
     30 H5         -1.4952   14.0629    2.1653 H         1 <0>         0.4455
     31 H6         -3.0665   14.0562    1.5707 H         1 <0>         0.4328
     32 H7          0.7268    9.0436    1.2689 H         1 <0>         0.4368
     33 H8          0.7992    9.8853    2.7211 H         1 <0>         0.4305
     34 H9         -3.9145    5.7875   -0.3123 H         1 <0>         0.0672
     35 H10        -2.4758    5.6026    0.7193 H         1 <0>         0.1026
     36 H11        -3.6588    5.8080   -2.6949 H         1 <0>         0.0419
     37 H12        -3.0231    7.4451   -2.4052 H         1 <0>         0.0675
     38 H13        -2.0909    6.2891   -3.3864 H         1 <0>         0.0794
     39 H14        -3.7491    3.9041   -1.5569 H         1 <0>         0.1214
     40 H15        -3.1600    1.5287   -1.7682 H         1 <0>         0.1269
     41 H16        -0.8345    0.8129   -1.7744 H         1 <0>         0.1310
     42 H17         0.4206    6.1798   -1.2267 H         1 <0>         0.1303
     43 H18         2.7448    5.4489   -1.2340 H         1 <0>         0.1227
     44 H19         3.3154    3.0680   -1.4476 H         1 <0>         0.1254
     45 H20         1.5715    1.3803   -1.6562 H         1 <0>         0.1302
     46 N6         -3.2358   11.6465    0.9709 N.ar      1 <0>        -0.5894
     47 H21        -4.0528   12.1919    0.7836 H         1 <0>         0.4604
@<TRIPOS>BOND
     1    1    2 1
     2    1   26 1
     3    1   27 1
     4    1   28 1
     5    2    7 ar
     6    2    3 ar
     7    3    4 ar
     8    3   13 1
     9    4    5 ar
    10    4   29 1
    11    5    6 ar
    12    6    7 ar
    13    6   46 ar
    14    7    8 ar
    15    8    9 ar
    16    8   12 1
    17    9   10 ar
    18   10   11 1
    19   10   46 ar
    20   11   30 1
    21   11   31 1
    22   12   32 1
    23   12   33 1
    24   13   14 1
    25   13   34 1
    26   13   35 1
    27   14   15 1
    28   14   16 1
    29   15   36 1
    30   15   37 1
    31   15   38 1
    32   16   21 ar
    33   16   17 ar
    34   17   18 ar
    35   17   39 1
    36   18   19 ar
    37   18   40 1
    38   19   20 ar
    39   19   41 1
    40   20   25 ar
    41   20   21 ar
    42   21   22 ar
    43   22   23 ar
    44   22   42 1
    45   23   24 ar
    46   23   43 1
    47   24   25 ar
    48   24   44 1
    49   25   45 1
    50   46   47 1
@<TRIPOS>MOLECULE
ZINC03815019
   40    43     0     0     0
SMALL
USER_CHARGES

@<TRIPOS>ATOM
      1 C1         -4.1952   -2.4512   -5.5286 C.ar      1 <0>        -0.1063
      2 C2         -3.0136   -1.7477   -5.3033 C.ar      1 <0>        -0.1303
      3 C3         -2.5763   -1.4999   -4.0379 C.ar      1 <0>        -0.0961
      4 C4         -3.3241   -1.9582   -2.9421 C.ar      1 <0>        -0.0969
      5 C5         -4.5255   -2.6736   -3.1699 C.ar      1 <0>        -0.0099
      6 C6         -4.9457   -2.9106   -4.4903 C.ar      1 <0>        -0.1162
      7 C7         -5.2748   -3.1341   -2.0739 C.ar      1 <0>        -0.1714
      8 C8         -4.8438   -2.8912   -0.8052 C.ar      1 <0>        -0.0599
      9 C9         -3.6634   -2.1934   -0.5687 C.ar      1 <0>        -0.2196
     10 C10        -2.9020   -1.7206   -1.6164 C.ar      1 <0>         0.2302
     11 N1         -1.7237   -1.0197   -1.3689 N.pl3     1 <0>        -0.7388
     12 C11        -1.2918   -0.7767    0.0097 C.3       1 <0>         0.1772
     13 C12         0.0021   -0.0041    0.0020 C.ar      1 <0>        -0.2127
     14 C13        -0.0165    1.3662    0.0096 C.ar      1 <0>         0.0227
     15 C14         1.2097    2.0408    0.0015 C.ar      1 <0>        -0.2930
     16 C15         1.2916    3.4553    0.0092 C.ar      1 <0>         0.5272
     17 N2          2.4933    4.0143    0.0016 N.ar      1 <0>        -0.6350
     18 C16         3.5989    3.2752   -0.0129 C.ar      1 <0>         0.6361
     19 N3          3.5781    1.9556   -0.0201 N.ar      1 <0>        -0.6015
     20 C17         2.4128    1.2927   -0.0135 C.ar      1 <0>         0.4213
     21 N4          2.3642   -0.0396   -0.0203 N.ar      1 <0>        -0.4838
     22 C18         1.2161   -0.6795   -0.0132 C.ar      1 <0>         0.2069
     23 N5          4.8226    3.9169   -0.0201 N.pl3     1 <0>        -0.8093
     24 N6          0.1521    4.2292    0.0237 N.pl3     1 <0>        -0.8135
     25 H1         -4.5204   -2.6343   -6.5420 H         1 <0>         0.1221
     26 H2         -2.4360   -1.3942   -6.1447 H         1 <0>         0.1210
     27 H3         -1.6584   -0.9537   -3.8781 H         1 <0>         0.1168
     28 H4         -5.8595   -3.4540   -4.6799 H         1 <0>         0.1272
     29 H5         -6.1921   -3.6801   -2.2377 H         1 <0>         0.1221
     30 H6         -5.4260   -3.2489    0.0311 H         1 <0>         0.1206
     31 H7         -3.3416   -2.0175    0.4472 H         1 <0>         0.1213
     32 H8         -1.1893   -0.6925   -2.1094 H         1 <0>         0.3996
     33 H9         -1.1427   -1.7299    0.5171 H         1 <0>         0.0773
     34 H10        -2.0552   -0.2017    0.5337 H         1 <0>         0.0730
     35 H11        -0.9499    1.9096    0.0170 H         1 <0>         0.1364
     36 H12         1.2164   -1.7595   -0.0191 H         1 <0>         0.1679
     37 H13         5.6422    3.3981   -0.0303 H         1 <0>         0.4194
     38 H14         4.8621    4.8861   -0.0149 H         1 <0>         0.4164
     39 H15         0.2229    5.1966    0.0285 H         1 <0>         0.4161
     40 H16        -0.7211    3.8068    0.0291 H         1 <0>         0.4150
@<TRIPOS>BOND
     1    1    6 ar
     2    1    2 ar
     3    1   25 1
     4    2    3 ar
     5    2   26 1
     6    3    4 ar
     7    3   27 1
     8    4   10 ar
     9    4    5 ar
    10    5    6 ar
    11    5    7 ar
    12    6   28 1
    13    7    8 ar
    14    7   29 1
    15    8    9 ar
    16    8   30 1
    17    9   10 ar
    18    9   31 1
    19   10   11 1
    20   11   12 1
    21   11   32 1
    22   12   13 1
    23   12   33 1
    24   12   34 1
    25   13   22 ar
    26   13   14 ar
    27   14   15 ar
    28   14   35 1
    29   15   20 ar
    30   15   16 ar
    31   16   17 ar
    32   16   24 1
    33   17   18 ar
    34   18   19 ar
    35   18   23 1
    36   19   20 ar
    37   20   21 ar
    38   21   22 ar
    39   22   36 1
    40   23   37 1
    41   23   38 1
    42   24   39 1
    43   24   40 1
@<TRIPOS>MOLECULE
ZINC03815019
   41    44     0     0     0
SMALL
USER_CHARGES

@<TRIPOS>ATOM
      1 C1         -4.1952   -2.4512   -5.5286 C.ar      1 <0>        -0.1066
      2 C2         -3.0136   -1.7477   -5.3033 C.ar      1 <0>        -0.1218
      3 C3         -2.5763   -1.4999   -4.0379 C.ar      1 <0>        -0.1047
      4 C4         -3.3241   -1.9582   -2.9421 C.ar      1 <0>        -0.0916
      5 C5         -4.5255   -2.6736   -3.1699 C.ar      1 <0>        -0.0133
      6 C6         -4.9457   -2.9106   -4.4903 C.ar      1 <0>        -0.1095
      7 C7         -5.2748   -3.1341   -2.0739 C.ar      1 <0>        -0.1557
      8 C8         -4.8438   -2.8912   -0.8052 C.ar      1 <0>        -0.0673
      9 C9         -3.6634   -2.1934   -0.5687 C.ar      1 <0>        -0.2077
     10 C10        -2.9020   -1.7206   -1.6164 C.ar      1 <0>         0.2176
     11 N1         -1.7237   -1.0197   -1.3689 N.pl3     1 <0>        -0.7462
     12 C11        -1.2918   -0.7767    0.0097 C.3       1 <0>         0.1671
     13 C12         0.0021   -0.0041    0.0020 C.ar      1 <0>        -0.1640
     14 C13        -0.0165    1.3662    0.0096 C.ar      1 <0>         0.0322
     15 C14         1.2097    2.0408    0.0015 C.ar      1 <0>        -0.2353
     16 C15         1.2916    3.4553    0.0092 C.ar      1 <0>         0.5719
     17 N2          2.4933    4.0143    0.0016 N.ar      1 <0>        -0.5850
     18 C16         3.5989    3.2752   -0.0129 C.ar      1 <0>         0.7010
     19 C17         2.4128    1.2927   -0.0135 C.ar      1 <0>         0.4067
     20 N3          2.3642   -0.0396   -0.0203 N.ar      1 <0>        -0.4927
     21 C18         1.2161   -0.6795   -0.0132 C.ar      1 <0>         0.2331
     22 N4          4.8226    3.9169   -0.0201 N.pl3     1 <0>        -0.7788
     23 N5          0.1521    4.2292    0.0237 N.pl3     1 <0>        -0.7588
     24 H1         -4.5204   -2.6343   -6.5420 H         1 <0>         0.1256
     25 H2         -2.4360   -1.3942   -6.1447 H         1 <0>         0.1224
     26 H3         -1.6584   -0.9537   -3.8781 H         1 <0>         0.1136
     27 H4         -5.8595   -3.4540   -4.6799 H         1 <0>         0.1309
     28 H5         -6.1921   -3.6801   -2.2377 H         1 <0>         0.1263
     29 H6         -5.4260   -3.2489    0.0311 H         1 <0>         0.1242
     30 H7         -3.3416   -2.0175    0.4472 H         1 <0>         0.1209
     31 H8         -1.1893   -0.6925   -2.1094 H         1 <0>         0.3989
     32 H9         -1.1427   -1.7299    0.5171 H         1 <0>         0.0881
     33 H10        -2.0552   -0.2017    0.5337 H         1 <0>         0.0848
     34 H11        -0.9499    1.9096    0.0170 H         1 <0>         0.1658
     35 H12         1.2164   -1.7595   -0.0191 H         1 <0>         0.1935
     36 H13         5.6422    3.3981   -0.0303 H         1 <0>         0.4336
     37 H14         4.8621    4.8861   -0.0149 H         1 <0>         0.4458
     38 H15         0.2229    5.1966    0.0285 H         1 <0>         0.4362
     39 H16        -0.7211    3.8068    0.0291 H         1 <0>         0.4329
     40 N6          3.6403    1.9191   -0.0209 N.ar      1 <0>        -0.5957
     41 H17         4.5212    1.4458   -0.0313 H         1 <0>         0.4615
@<TRIPOS>BOND
     1    1    6 ar
     2    1    2 ar
     3    1   24 1
     4    2    3 ar
     5    2   25 1
     6    3    4 ar
     7    3   26 1
     8    4   10 ar
     9    4    5 ar
    10    5    6 ar
    11    5    7 ar
    12    6   27 1
    13    7    8 ar
    14    7   28 1
    15    8    9 ar
    16    8   29 1
    17    9   10 ar
    18    9   30 1
    19   10   11 1
    20   11   12 1
    21   11   31 1
    22   12   13 1
    23   12   32 1
    24   12   33 1
    25   13   21 ar
    26   13   14 ar
    27   14   15 ar
    28   14   34 1
    29   15   19 ar
    30   15   16 ar
    31   16   17 ar
    32   16   23 1
    33   17   18 ar
    34   18   22 1
    35   18   40 ar
    36   19   20 ar
    37   19   40 ar
    38   20   21 ar
    39   21   35 1
    40   22   36 1
    41   22   37 1
    42   23   38 1
    43   23   39 1
    44   40   41 1
@<TRIPOS>MOLECULE
ZINC03815020
   34    36     0     0     0
SMALL
USER_CHARGES

@<TRIPOS>ATOM
      1 C1         -3.6693   -2.1966   -0.5551 C.ar      1 <0>        -0.1870
      2 C2         -4.8403   -2.8857   -0.8025 C.ar      1 <0>        -0.0604
      3 C3         -5.2479   -3.1149   -2.1049 C.ar      1 <0>        -0.0928
      4 C4         -4.4873   -2.6488   -3.1628 C.ar      1 <0>        -0.0605
      5 C5         -3.3185   -1.9538   -2.9212 C.ar      1 <0>        -0.1833
      6 C6         -2.9068   -1.7227   -1.6150 C.ar      1 <0>         0.2207
      7 N1         -1.7247   -1.0197   -1.3676 N.pl3     1 <0>        -0.7431
      8 C7         -1.2918   -0.7767    0.0107 C.3       1 <0>         0.1765
      9 C8          0.0021   -0.0041    0.0020 C.ar      1 <0>        -0.2126
     10 C9          1.1996   -0.6704   -0.0130 C.ar      1 <0>         0.0230
     11 C10         2.3749    0.0892   -0.0201 C.ar      1 <0>        -0.2932
     12 C11         3.6591   -0.5094   -0.0352 C.ar      1 <0>         0.5272
     13 N2          4.7211    0.2836   -0.0406 N.ar      1 <0>        -0.6349
     14 C12         4.5948    1.6074   -0.0322 C.ar      1 <0>         0.6363
     15 N3          3.4232    2.2149   -0.0177 N.ar      1 <0>        -0.6015
     16 C13         2.2870    1.5033   -0.0117 C.ar      1 <0>         0.4214
     17 N4          1.0911    2.0924    0.0029 N.ar      1 <0>        -0.4841
     18 C14        -0.0168    1.3851    0.0097 C.ar      1 <0>         0.2070
     19 N5          5.7400    2.3806   -0.0385 N.pl3     1 <0>        -0.8092
     20 N6          3.8001   -1.8797   -0.0435 N.pl3     1 <0>        -0.8135
     21 Cl1        -6.7164   -3.9882   -2.4123 Cl        1 <0>        -0.0794
     22 H1         -3.3490   -2.0226    0.4615 H         1 <0>         0.1302
     23 H2         -5.4363   -3.2500    0.0213 H         1 <0>         0.1318
     24 H3         -4.8080   -2.8285   -4.1783 H         1 <0>         0.1318
     25 H4         -2.7255   -1.5899   -3.7473 H         1 <0>         0.1284
     26 H5         -1.1909   -0.6925   -2.1085 H         1 <0>         0.4021
     27 H6         -1.1423   -1.7298    0.5180 H         1 <0>         0.0717
     28 H7         -2.0548   -0.2017    0.5353 H         1 <0>         0.0762
     29 H8          1.2351   -1.7498   -0.0195 H         1 <0>         0.1363
     30 H9         -0.9674    1.8977    0.0169 H         1 <0>         0.1678
     31 H10         6.6119    1.9557   -0.0487 H         1 <0>         0.4164
     32 H11         5.6720    3.3482   -0.0326 H         1 <0>         0.4195
     33 H12         3.0141   -2.4482   -0.0391 H         1 <0>         0.4149
     34 H13         4.6853   -2.2762   -0.0538 H         1 <0>         0.4161
@<TRIPOS>BOND
     1    1    6 ar
     2    1    2 ar
     3    1   22 1
     4    2    3 ar
     5    2   23 1
     6    3    4 ar
     7    3   21 1
     8    4    5 ar
     9    4   24 1
    10    5    6 ar
    11    5   25 1
    12    6    7 1
    13    7    8 1
    14    7   26 1
    15    8    9 1
    16    8   27 1
    17    8   28 1
    18    9   18 ar
    19    9   10 ar
    20   10   11 ar
    21   10   29 1
    22   11   16 ar
    23   11   12 ar
    24   12   13 ar
    25   12   20 1
    26   13   14 ar
    27   14   15 ar
    28   14   19 1
    29   15   16 ar
    30   16   17 ar
    31   17   18 ar
    32   18   30 1
    33   19   31 1
    34   19   32 1
    35   20   33 1
    36   20   34 1
@<TRIPOS>MOLECULE
ZINC03815020
   35    37     0     0     0
SMALL
USER_CHARGES

@<TRIPOS>ATOM
      1 C1         -3.6693   -2.1966   -0.5551 C.ar      1 <0>        -0.1825
      2 C2         -4.8403   -2.8857   -0.8025 C.ar      1 <0>        -0.0615
      3 C3         -5.2479   -3.1149   -2.1049 C.ar      1 <0>        -0.0833
      4 C4         -4.4873   -2.6488   -3.1628 C.ar      1 <0>        -0.0612
      5 C5         -3.3185   -1.9538   -2.9212 C.ar      1 <0>        -0.1761
      6 C6         -2.9068   -1.7227   -1.6150 C.ar      1 <0>         0.2097
      7 N1         -1.7247   -1.0197   -1.3676 N.pl3     1 <0>        -0.7500
      8 C7         -1.2918   -0.7767    0.0107 C.3       1 <0>         0.1663
      9 C8          0.0021   -0.0041    0.0020 C.ar      1 <0>        -0.1640
     10 C9          1.1996   -0.6704   -0.0130 C.ar      1 <0>         0.0325
     11 C10         2.3749    0.0892   -0.0201 C.ar      1 <0>        -0.2352
     12 C11         3.6591   -0.5094   -0.0352 C.ar      1 <0>         0.5719
     13 N2          4.7211    0.2836   -0.0406 N.ar      1 <0>        -0.5850
     14 C12         4.5948    1.6074   -0.0322 C.ar      1 <0>         0.7011
     15 C13         2.2870    1.5033   -0.0117 C.ar      1 <0>         0.4071
     16 N3          1.0911    2.0924    0.0029 N.ar      1 <0>        -0.4930
     17 C14        -0.0168    1.3851    0.0097 C.ar      1 <0>         0.2333
     18 N4          5.7400    2.3806   -0.0385 N.pl3     1 <0>        -0.7787
     19 N5          3.8001   -1.8797   -0.0435 N.pl3     1 <0>        -0.7588
     20 Cl1        -6.7164   -3.9882   -2.4123 Cl        1 <0>        -0.0684
     21 H1         -3.3490   -2.0226    0.4615 H         1 <0>         0.1298
     22 H2         -5.4363   -3.2500    0.0213 H         1 <0>         0.1353
     23 H3         -4.8080   -2.8285   -4.1783 H         1 <0>         0.1356
     24 H4         -2.7255   -1.5899   -3.7473 H         1 <0>         0.1292
     25 H5         -1.1909   -0.6925   -2.1085 H         1 <0>         0.4013
     26 H6         -1.1423   -1.7298    0.5180 H         1 <0>         0.0838
     27 H7         -2.0548   -0.2017    0.5353 H         1 <0>         0.0872
     28 H8          1.2351   -1.7498   -0.0195 H         1 <0>         0.1657
     29 H9         -0.9674    1.8977    0.0169 H         1 <0>         0.1934
     30 H10         6.6119    1.9557   -0.0487 H         1 <0>         0.4458
     31 H11         5.6720    3.3482   -0.0326 H         1 <0>         0.4337
     32 H12         3.0141   -2.4482   -0.0391 H         1 <0>         0.4328
     33 H13         4.6853   -2.2762   -0.0538 H         1 <0>         0.4363
     34 N6          3.4206    2.2870   -0.0172 N.ar      1 <0>        -0.5958
     35 H14         3.4217    3.2870   -0.0110 H         1 <0>         0.4616
@<TRIPOS>BOND
     1    1    6 ar
     2    1    2 ar
     3    1   21 1
     4    2    3 ar
     5    2   22 1
     6    3    4 ar
     7    3   20 1
     8    4    5 ar
     9    4   23 1
    10    5    6 ar
    11    5   24 1
    12    6    7 1
    13    7    8 1
    14    7   25 1
    15    8    9 1
    16    8   26 1
    17    8   27 1
    18    9   17 ar
    19    9   10 ar
    20   10   11 ar
    21   10   28 1
    22   11   15 ar
    23   11   12 ar
    24   12   13 ar
    25   12   19 1
    26   13   14 ar
    27   14   18 1
    28   14   34 ar
    29   15   16 ar
    30   15   34 ar
    31   16   17 ar
    32   17   29 1
    33   18   30 1
    34   18   31 1
    35   19   32 1
    36   19   33 1
    37   34   35 1
@<TRIPOS>MOLECULE
ZINC03815021
   46    48     0     0     0
SMALL
USER_CHARGES

@<TRIPOS>ATOM
      1 C1         -0.0127    1.0858    0.0080 C.3       1 <0>         0.0255
      2 O1         -0.6816    1.5467    1.1837 O.3       1 <0>        -0.3008
      3 C2         -0.7875    2.8927    1.3463 C.ar      1 <0>         0.1942
      4 C3         -0.2585    3.7497    0.3938 C.ar      1 <0>        -0.3069
      5 C4         -0.3668    5.1239    0.5594 C.ar      1 <0>         0.2862
      6 C5         -1.0042    5.6407    1.6793 C.ar      1 <0>        -0.3091
      7 C6         -1.5332    4.7848    2.6328 C.ar      1 <0>         0.1938
      8 C7         -1.4310    3.4092    2.4644 C.ar      1 <0>        -0.0275
      9 O2         -1.9563    2.5677    3.3975 O.3       1 <0>        -0.3094
     10 C8         -1.1009    2.1770    4.4736 C.3       1 <0>         0.0333
     11 O3         -2.1575    5.2912    3.7297 O.3       1 <0>        -0.3007
     12 C9         -2.2316    6.7144    3.8348 C.3       1 <0>         0.0254
     13 N1          0.1669    5.9883   -0.4025 N.pl3     1 <0>        -0.7389
     14 C10         0.0528    7.4384   -0.2282 C.3       1 <0>         0.1769
     15 C11         0.7034    8.1373   -1.3940 C.ar      1 <0>        -0.2128
     16 C12         2.0313    8.4719   -1.3398 C.ar      1 <0>         0.0231
     17 C13         2.5931    9.1159   -2.4481 C.ar      1 <0>        -0.2933
     18 C14         3.9576    9.4959   -2.4871 C.ar      1 <0>         0.5272
     19 N2          4.4083   10.1056   -3.5741 N.ar      1 <0>        -0.6348
     20 C15         3.6085   10.3584   -4.6061 C.ar      1 <0>         0.6364
     21 N3          2.3314   10.0258   -4.6208 N.ar      1 <0>        -0.6013
     22 C16         1.7772    9.4048   -3.5698 C.ar      1 <0>         0.4217
     23 N4          0.4900    9.0577   -3.5594 N.ar      1 <0>        -0.4837
     24 C17        -0.0431    8.4487   -2.5236 C.ar      1 <0>         0.2072
     25 N5          4.1378   10.9968   -5.7114 N.pl3     1 <0>        -0.8092
     26 N6          4.7936    9.2387   -1.4228 N.pl3     1 <0>        -0.8136
     27 H1          0.0021   -0.0041    0.0020 H         1 <0>         0.1022
     28 H2          1.0099    1.4631    0.0003 H         1 <0>         0.0560
     29 H3         -0.5399    1.4469   -0.8751 H         1 <0>         0.0581
     30 H4          0.2378    3.3484   -0.4774 H         1 <0>         0.1321
     31 H5         -1.0875    6.7097    1.8078 H         1 <0>         0.1342
     32 H6         -0.2267    1.6627    4.0745 H         1 <0>         0.0409
     33 H7         -0.7820    3.0622    5.0239 H         1 <0>         0.0411
     34 H8         -1.6417    1.5082    5.1431 H         1 <0>         0.0889
     35 H9         -2.7527    6.9843    4.7533 H         1 <0>         0.1022
     36 H10        -1.2243    7.1304    3.8529 H         1 <0>         0.0558
     37 H11        -2.7744    7.1142    2.9782 H         1 <0>         0.0581
     38 H12         0.6125    5.6274   -1.1849 H         1 <0>         0.4026
     39 H13        -1.0000    7.7167   -0.1792 H         1 <0>         0.0762
     40 H14         0.5499    7.7335    0.6959 H         1 <0>         0.0714
     41 H15         2.6274    8.2421   -0.4691 H         1 <0>         0.1362
     42 H16        -1.0895    8.1830   -2.5516 H         1 <0>         0.1679
     43 H17         3.5732   11.1911   -6.4759 H         1 <0>         0.4195
     44 H18         5.0739   11.2506   -5.7229 H         1 <0>         0.4165
     45 H19         5.7256    9.5046   -1.4629 H         1 <0>         0.4161
     46 H20         4.4503    8.7916   -0.6334 H         1 <0>         0.4148
@<TRIPOS>BOND
     1    1    2 1
     2    1   27 1
     3    1   28 1
     4    1   29 1
     5    2    3 1
     6    3    8 ar
     7    3    4 ar
     8    4    5 ar
     9    4   30 1
    10    5    6 ar
    11    5   13 1
    12    6    7 ar
    13    6   31 1
    14    7    8 ar
    15    7   11 1
    16    8    9 1
    17    9   10 1
    18   10   32 1
    19   10   33 1
    20   10   34 1
    21   11   12 1
    22   12   35 1
    23   12   36 1
    24   12   37 1
    25   13   14 1
    26   13   38 1
    27   14   15 1
    28   14   39 1
    29   14   40 1
    30   15   24 ar
    31   15   16 ar
    32   16   17 ar
    33   16   41 1
    34   17   22 ar
    35   17   18 ar
    36   18   19 ar
    37   18   26 1
    38   19   20 ar
    39   20   21 ar
    40   20   25 1
    41   21   22 ar
    42   22   23 ar
    43   23   24 ar
    44   24   42 1
    45   25   43 1
    46   25   44 1
    47   26   45 1
    48   26   46 1
@<TRIPOS>MOLECULE
ZINC03815021
   47    49     0     0     0
SMALL
USER_CHARGES

@<TRIPOS>ATOM
      1 C1         -0.0127    1.0858    0.0080 C.3       1 <0>         0.0253
      2 O1         -0.6816    1.5467    1.1837 O.3       1 <0>        -0.2976
      3 C2         -0.7875    2.8927    1.3463 C.ar      1 <0>         0.1948
      4 C3         -0.2585    3.7497    0.3938 C.ar      1 <0>        -0.3020
      5 C4         -0.3668    5.1239    0.5594 C.ar      1 <0>         0.2772
      6 C5         -1.0042    5.6407    1.6793 C.ar      1 <0>        -0.3067
      7 C6         -1.5332    4.7848    2.6328 C.ar      1 <0>         0.1938
      8 C7         -1.4310    3.4092    2.4644 C.ar      1 <0>        -0.0170
      9 O2         -1.9563    2.5677    3.3975 O.3       1 <0>        -0.3092
     10 C8         -1.1009    2.1770    4.4736 C.3       1 <0>         0.0334
     11 O3         -2.1575    5.2912    3.7297 O.3       1 <0>        -0.2974
     12 C9         -2.2316    6.7144    3.8348 C.3       1 <0>         0.0255
     13 N1          0.1669    5.9883   -0.4025 N.pl3     1 <0>        -0.7460
     14 C10         0.0528    7.4384   -0.2282 C.3       1 <0>         0.1665
     15 C11         0.7034    8.1373   -1.3940 C.ar      1 <0>        -0.1643
     16 C12         2.0313    8.4719   -1.3398 C.ar      1 <0>         0.0325
     17 C13         2.5931    9.1159   -2.4481 C.ar      1 <0>        -0.2354
     18 C14         3.9576    9.4959   -2.4871 C.ar      1 <0>         0.5719
     19 N2          4.4083   10.1056   -3.5741 N.ar      1 <0>        -0.5848
     20 C15         3.6085   10.3584   -4.6061 C.ar      1 <0>         0.7011
     21 C16         1.7772    9.4048   -3.5698 C.ar      1 <0>         0.4072
     22 N3          0.4900    9.0577   -3.5594 N.ar      1 <0>        -0.4926
     23 C17        -0.0431    8.4487   -2.5236 C.ar      1 <0>         0.2335
     24 N4          4.1378   10.9968   -5.7114 N.pl3     1 <0>        -0.7785
     25 N5          4.7936    9.2387   -1.4228 N.pl3     1 <0>        -0.7590
     26 H1          0.0021   -0.0041    0.0020 H         1 <0>         0.1052
     27 H2          1.0099    1.4631    0.0003 H         1 <0>         0.0559
     28 H3         -0.5399    1.4469   -0.8751 H         1 <0>         0.0579
     29 H4          0.2378    3.3484   -0.4774 H         1 <0>         0.1328
     30 H5         -1.0875    6.7097    1.8078 H         1 <0>         0.1336
     31 H6         -0.2267    1.6627    4.0745 H         1 <0>         0.0425
     32 H7         -0.7820    3.0622    5.0239 H         1 <0>         0.0425
     33 H8         -1.6417    1.5082    5.1431 H         1 <0>         0.0927
     34 H9         -2.7527    6.9843    4.7533 H         1 <0>         0.1051
     35 H10        -1.2243    7.1304    3.8529 H         1 <0>         0.0552
     36 H11        -2.7744    7.1142    2.9782 H         1 <0>         0.0575
     37 H12         0.6125    5.6274   -1.1849 H         1 <0>         0.4019
     38 H13        -1.0000    7.7167   -0.1792 H         1 <0>         0.0874
     39 H14         0.5499    7.7335    0.6959 H         1 <0>         0.0836
     40 H15         2.6274    8.2421   -0.4691 H         1 <0>         0.1656
     41 H16        -1.0895    8.1830   -2.5516 H         1 <0>         0.1936
     42 H17         3.5732   11.1911   -6.4759 H         1 <0>         0.4337
     43 H18         5.0739   11.2506   -5.7229 H         1 <0>         0.4459
     44 H19         5.7256    9.5046   -1.4629 H         1 <0>         0.4363
     45 H20         4.4503    8.7916   -0.6334 H         1 <0>         0.4327
     46 N6          2.2913   10.0413   -4.6788 N.ar      1 <0>        -0.5957
     47 H21         1.7661   10.2711   -5.4981 H         1 <0>         0.4617
@<TRIPOS>BOND
     1    1    2 1
     2    1   26 1
     3    1   27 1
     4    1   28 1
     5    2    3 1
     6    3    8 ar
     7    3    4 ar
     8    4    5 ar
     9    4   29 1
    10    5    6 ar
    11    5   13 1
    12    6    7 ar
    13    6   30 1
    14    7    8 ar
    15    7   11 1
    16    8    9 1
    17    9   10 1
    18   10   31 1
    19   10   32 1
    20   10   33 1
    21   11   12 1
    22   12   34 1
    23   12   35 1
    24   12   36 1
    25   13   14 1
    26   13   37 1
    27   14   15 1
    28   14   38 1
    29   14   39 1
    30   15   23 ar
    31   15   16 ar
    32   16   17 ar
    33   16   40 1
    34   17   21 ar
    35   17   18 ar
    36   18   19 ar
    37   18   25 1
    38   19   20 ar
    39   20   24 1
    40   20   46 ar
    41   21   22 ar
    42   21   46 ar
    43   22   23 ar
    44   23   41 1
    45   24   42 1
    46   24   43 1
    47   25   44 1
    48   25   45 1
    49   46   47 1
@<TRIPOS>MOLECULE
ZINC03815022
   35    37     0     0     0
SMALL
USER_CHARGES

@<TRIPOS>ATOM
      1 C1          0.0021   -0.0041    0.0020 C.ar      1 <0>        -0.1845
      2 C2         -0.0167    1.3769    0.0096 C.ar      1 <0>        -0.0603
      3 C3          1.1715    2.0863    0.0021 C.ar      1 <0>        -0.0940
      4 C4          2.3813    1.4147   -0.0130 C.ar      1 <0>        -0.0602
      5 C5          2.4059    0.0338   -0.0207 C.ar      1 <0>        -0.1881
      6 C6          1.2149   -0.6808   -0.0132 C.ar      1 <0>         0.2214
      7 N1          1.2369   -2.0780   -0.0214 N.pl3     1 <0>        -0.7413
      8 C7          2.5169   -2.7904   -0.0374 C.3       1 <0>         0.1699
      9 C8          2.2649   -4.2762   -0.0435 C.ar      1 <0>        -0.1488
     10 C9          2.1671   -4.9608    1.1644 C.ar      1 <0>        -0.0463
     11 C10         1.9347   -6.3039    1.1936 C.ar      1 <0>        -0.1273
     12 C11         1.8025   -7.0098   -0.0101 C.ar      1 <0>         0.2441
     13 C12         1.9077   -6.3121   -1.2379 C.ar      1 <0>        -0.2439
     14 C13         2.1413   -4.9327   -1.2329 C.ar      1 <0>        -0.0272
     15 C14         1.7703   -7.0466   -2.4421 C.ar      1 <0>         0.5155
     16 N2          1.5500   -8.3506   -2.3611 N.ar      1 <0>        -0.6360
     17 C15         1.4580   -8.9667   -1.1860 C.ar      1 <0>         0.6175
     18 N3          1.5775   -8.3317   -0.0356 N.ar      1 <0>        -0.6120
     19 N4          1.2268  -10.3303   -1.1692 N.pl3     1 <0>        -0.8173
     20 N5          1.8631   -6.4203   -3.6665 N.pl3     1 <0>        -0.8182
     21 Cl1         1.1442    3.8220    0.0116 Cl        1 <0>        -0.0801
     22 H1         -0.9255   -0.5572    0.0082 H         1 <0>         0.1283
     23 H2         -0.9595    1.9036    0.0169 H         1 <0>         0.1315
     24 H3          3.3070    1.9708   -0.0189 H         1 <0>         0.1313
     25 H4          3.3504   -0.4898   -0.0321 H         1 <0>         0.1296
     26 H5          0.4046   -2.5762   -0.0164 H         1 <0>         0.4024
     27 H6          3.0759   -2.5130   -0.9311 H         1 <0>         0.0687
     28 H7          3.0926   -2.5232    0.8488 H         1 <0>         0.0715
     29 H8          2.2727   -4.4192    2.0927 H         1 <0>         0.1319
     30 H9          1.8573   -6.8215    2.1383 H         1 <0>         0.1393
     31 H10         2.2234   -4.3916   -2.1639 H         1 <0>         0.1243
     32 H11         1.1354  -10.8170   -2.0032 H         1 <0>         0.4137
     33 H12         1.1562  -10.7998   -0.3233 H         1 <0>         0.4166
     34 H13         2.0244   -5.4649   -3.7115 H         1 <0>         0.4144
     35 H14         1.7671   -6.9350   -4.4830 H         1 <0>         0.4135
@<TRIPOS>BOND
     1    1    6 ar
     2    1    2 ar
     3    1   22 1
     4    2    3 ar
     5    2   23 1
     6    3    4 ar
     7    3   21 1
     8    4    5 ar
     9    4   24 1
    10    5    6 ar
    11    5   25 1
    12    6    7 1
    13    7    8 1
    14    7   26 1
    15    8    9 1
    16    8   27 1
    17    8   28 1
    18    9   14 ar
    19    9   10 ar
    20   10   11 ar
    21   10   29 1
    22   11   12 ar
    23   11   30 1
    24   12   18 ar
    25   12   13 ar
    26   13   14 ar
    27   13   15 ar
    28   14   31 1
    29   15   16 ar
    30   15   20 1
    31   16   17 ar
    32   17   18 ar
    33   17   19 1
    34   19   32 1
    35   19   33 1
    36   20   34 1
    37   20   35 1
@<TRIPOS>MOLECULE
ZINC03815022
   36    38     0     0     0
SMALL
USER_CHARGES

@<TRIPOS>ATOM
      1 C1          0.0021   -0.0041    0.0020 C.ar      1 <0>        -0.1774
      2 C2         -0.0167    1.3769    0.0096 C.ar      1 <0>        -0.0610
      3 C3          1.1715    2.0863    0.0021 C.ar      1 <0>        -0.0846
      4 C4          2.3813    1.4147   -0.0130 C.ar      1 <0>        -0.0614
      5 C5          2.4059    0.0338   -0.0207 C.ar      1 <0>        -0.1835
      6 C6          1.2149   -0.6808   -0.0132 C.ar      1 <0>         0.2108
      7 N1          1.2369   -2.0780   -0.0214 N.pl3     1 <0>        -0.7483
      8 C7          2.5169   -2.7904   -0.0374 C.3       1 <0>         0.1597
      9 C8          2.2649   -4.2762   -0.0435 C.ar      1 <0>        -0.1070
     10 C9          2.1671   -4.9608    1.1644 C.ar      1 <0>        -0.0045
     11 C10         1.9347   -6.3039    1.1936 C.ar      1 <0>        -0.1472
     12 C11         1.8025   -7.0098   -0.0101 C.ar      1 <0>         0.2049
     13 C12         1.9077   -6.3121   -1.2379 C.ar      1 <0>        -0.1898
     14 C13         2.1413   -4.9327   -1.2329 C.ar      1 <0>        -0.0168
     15 C14         1.7703   -7.0466   -2.4421 C.ar      1 <0>         0.5655
     16 N2          1.5500   -8.3506   -2.3611 N.ar      1 <0>        -0.5883
     17 C15         1.4580   -8.9667   -1.1860 C.ar      1 <0>         0.6983
     18 N3          1.2268  -10.3303   -1.1692 N.pl3     1 <0>        -0.7867
     19 N4          1.8631   -6.4203   -3.6665 N.pl3     1 <0>        -0.7633
     20 Cl1         1.1442    3.8220    0.0116 Cl        1 <0>        -0.0694
     21 H1         -0.9255   -0.5572    0.0082 H         1 <0>         0.1291
     22 H2         -0.9595    1.9036    0.0169 H         1 <0>         0.1353
     23 H3          3.3070    1.9708   -0.0189 H         1 <0>         0.1348
     24 H4          3.3504   -0.4898   -0.0321 H         1 <0>         0.1292
     25 H5          0.4046   -2.5762   -0.0164 H         1 <0>         0.4015
     26 H6          3.0759   -2.5130   -0.9311 H         1 <0>         0.0795
     27 H7          3.0926   -2.5232    0.8488 H         1 <0>         0.0821
     28 H8          2.2727   -4.4192    2.0927 H         1 <0>         0.1567
     29 H9          1.8573   -6.8215    2.1383 H         1 <0>         0.1597
     30 H10         2.2234   -4.3916   -2.1639 H         1 <0>         0.1517
     31 H11         1.1354  -10.8170   -2.0032 H         1 <0>         0.4431
     32 H12         1.1562  -10.7998   -0.3233 H         1 <0>         0.4313
     33 H13         2.0244   -5.4649   -3.7115 H         1 <0>         0.4325
     34 H14         1.7671   -6.9350   -4.4830 H         1 <0>         0.4339
     35 N5          1.5719   -8.3681    0.0255 N.ar      1 <0>        -0.6084
     36 H15         1.5005   -8.8403    0.9040 H         1 <0>         0.4582
@<TRIPOS>BOND
     1    1    6 ar
     2    1    2 ar
     3    1   21 1
     4    2    3 ar
     5    2   22 1
     6    3    4 ar
     7    3   20 1
     8    4    5 ar
     9    4   23 1
    10    5    6 ar
    11    5   24 1
    12    6    7 1
    13    7    8 1
    14    7   25 1
    15    8    9 1
    16    8   26 1
    17    8   27 1
    18    9   14 ar
    19    9   10 ar
    20   10   11 ar
    21   10   28 1
    22   11   12 ar
    23   11   29 1
    24   12   13 ar
    25   12   35 ar
    26   13   14 ar
    27   13   15 ar
    28   14   30 1
    29   15   16 ar
    30   15   19 1
    31   16   17 ar
    32   17   18 1
    33   17   35 ar
    34   18   31 1
    35   18   32 1
    36   19   33 1
    37   19   34 1
    38   35   36 1
@<TRIPOS>MOLECULE
ZINC03815023
   38    40     0     0     0
SMALL
USER_CHARGES

@<TRIPOS>ATOM
      1 C1         -2.5524    3.8832    0.0458 C.3       1 <0>        -0.1066
      2 C2         -1.2396    3.1433    0.0298 C.ar      1 <0>        -0.1505
      3 C3         -0.0503    3.8456    0.0222 C.ar      1 <0>        -0.0627
      4 C4          1.1554    3.1670    0.0071 C.ar      1 <0>        -0.0891
      5 C5          1.1734    1.7831    0.0004 C.ar      1 <0>        -0.0653
      6 C6         -0.0126    1.0758    0.0080 C.ar      1 <0>        -0.1844
      7 C7         -1.2246    1.7546    0.0174 C.ar      1 <0>         0.2219
      8 N1         -2.4263    1.0415    0.0192 N.pl3     1 <0>        -0.7403
      9 C8         -2.4088   -0.4234    0.0111 C.3       1 <0>         0.1693
     10 C9         -3.8235   -0.9427    0.0150 C.ar      1 <0>        -0.1487
     11 C10        -4.4602   -1.1913    1.2275 C.ar      1 <0>        -0.0465
     12 C11        -5.7411   -1.6565    1.2657 C.ar      1 <0>        -0.1272
     13 C12        -6.4254   -1.8991    0.0668 C.ar      1 <0>         0.2441
     14 C13        -5.7738   -1.6506   -1.1657 C.ar      1 <0>        -0.2437
     15 C14        -4.4607   -1.1681   -1.1699 C.ar      1 <0>        -0.0273
     16 C15        -6.4856   -1.9029   -2.3650 C.ar      1 <0>         0.5156
     17 N2         -7.7264   -2.3590   -2.2752 N.ar      1 <0>        -0.6361
     18 C16        -8.3009   -2.5787   -1.0960 C.ar      1 <0>         0.6175
     19 N3         -7.6846   -2.3607    0.0501 N.ar      1 <0>        -0.6121
     20 N4         -9.5990   -3.0553   -1.0700 N.pl3     1 <0>        -0.8173
     21 N5         -5.9022   -1.6791   -3.5935 N.pl3     1 <0>        -0.8181
     22 Cl1         2.6482    4.0529   -0.0030 Cl        1 <0>        -0.0800
     23 H1         -2.8785    4.0667   -0.9779 H         1 <0>         0.0684
     24 H2         -3.3011    3.2836    0.5637 H         1 <0>         0.0612
     25 H3         -2.4271    4.8343    0.5633 H         1 <0>         0.0701
     26 H4         -0.0614    4.9256    0.0278 H         1 <0>         0.1310
     27 H5          2.1159    1.2559   -0.0110 H         1 <0>         0.1310
     28 H6          0.0021   -0.0041    0.0020 H         1 <0>         0.1300
     29 H7         -3.2721    1.5164    0.0257 H         1 <0>         0.4021
     30 H8         -1.8949   -0.7757   -0.8832 H         1 <0>         0.0689
     31 H9         -1.8865   -0.7854    0.8967 H         1 <0>         0.0714
     32 H10        -3.9330   -1.0087    2.1522 H         1 <0>         0.1318
     33 H11        -6.2240   -1.8414    2.2139 H         1 <0>         0.1393
     34 H12        -3.9550   -0.9758   -2.1046 H         1 <0>         0.1242
     35 H13       -10.0711   -3.2223   -1.9007 H         1 <0>         0.4136
     36 H14       -10.0373   -3.2225   -0.2210 H         1 <0>         0.4166
     37 H15        -4.9931   -1.3447   -3.6450 H         1 <0>         0.4144
     38 H16        -6.4006   -1.8559   -4.4066 H         1 <0>         0.4135
@<TRIPOS>BOND
     1    1    2 1
     2    1   23 1
     3    1   24 1
     4    1   25 1
     5    2    7 ar
     6    2    3 ar
     7    3    4 ar
     8    3   26 1
     9    4    5 ar
    10    4   22 1
    11    5    6 ar
    12    5   27 1
    13    6    7 ar
    14    6   28 1
    15    7    8 1
    16    8    9 1
    17    8   29 1
    18    9   10 1
    19    9   30 1
    20    9   31 1
    21   10   15 ar
    22   10   11 ar
    23   11   12 ar
    24   11   32 1
    25   12   13 ar
    26   12   33 1
    27   13   19 ar
    28   13   14 ar
    29   14   15 ar
    30   14   16 ar
    31   15   34 1
    32   16   17 ar
    33   16   21 1
    34   17   18 ar
    35   18   19 ar
    36   18   20 1
    37   20   35 1
    38   20   36 1
    39   21   37 1
    40   21   38 1
@<TRIPOS>MOLECULE
ZINC03815023
   39    41     0     0     0
SMALL
USER_CHARGES

@<TRIPOS>ATOM
      1 C1         -2.5524    3.8832    0.0458 C.3       1 <0>        -0.1068
      2 C2         -1.2396    3.1433    0.0298 C.ar      1 <0>        -0.1440
      3 C3         -0.0503    3.8456    0.0222 C.ar      1 <0>        -0.0636
      4 C4          1.1554    3.1670    0.0071 C.ar      1 <0>        -0.0798
      5 C5          1.1734    1.7831    0.0004 C.ar      1 <0>        -0.0664
      6 C6         -0.0126    1.0758    0.0080 C.ar      1 <0>        -0.1797
      7 C7         -1.2246    1.7546    0.0174 C.ar      1 <0>         0.2115
      8 N1         -2.4263    1.0415    0.0192 N.pl3     1 <0>        -0.7474
      9 C8         -2.4088   -0.4234    0.0111 C.3       1 <0>         0.1591
     10 C9         -3.8235   -0.9427    0.0150 C.ar      1 <0>        -0.1070
     11 C10        -4.4602   -1.1913    1.2275 C.ar      1 <0>        -0.0048
     12 C11        -5.7411   -1.6565    1.2657 C.ar      1 <0>        -0.1472
     13 C12        -6.4254   -1.8991    0.0668 C.ar      1 <0>         0.2049
     14 C13        -5.7738   -1.6506   -1.1657 C.ar      1 <0>        -0.1897
     15 C14        -4.4607   -1.1681   -1.1699 C.ar      1 <0>        -0.0170
     16 C15        -6.4856   -1.9029   -2.3650 C.ar      1 <0>         0.5656
     17 N2         -7.7264   -2.3590   -2.2752 N.ar      1 <0>        -0.5883
     18 C16        -8.3009   -2.5787   -1.0960 C.ar      1 <0>         0.6984
     19 N3         -9.5990   -3.0553   -1.0700 N.pl3     1 <0>        -0.7868
     20 N4         -5.9022   -1.6791   -3.5935 N.pl3     1 <0>        -0.7632
     21 Cl1         2.6482    4.0529   -0.0030 Cl        1 <0>        -0.0693
     22 H1         -2.8785    4.0667   -0.9779 H         1 <0>         0.0694
     23 H2         -3.3011    3.2836    0.5637 H         1 <0>         0.0582
     24 H3         -2.4271    4.8343    0.5633 H         1 <0>         0.0734
     25 H4         -0.0614    4.9256    0.0278 H         1 <0>         0.1347
     26 H5          2.1159    1.2559   -0.0110 H         1 <0>         0.1345
     27 H6          0.0021   -0.0041    0.0020 H         1 <0>         0.1297
     28 H7         -3.2721    1.5164    0.0257 H         1 <0>         0.4012
     29 H8         -1.8949   -0.7757   -0.8832 H         1 <0>         0.0797
     30 H9         -1.8865   -0.7854    0.8967 H         1 <0>         0.0821
     31 H10        -3.9330   -1.0087    2.1522 H         1 <0>         0.1567
     32 H11        -6.2240   -1.8414    2.2139 H         1 <0>         0.1597
     33 H12        -3.9550   -0.9758   -2.1046 H         1 <0>         0.1517
     34 H13       -10.0711   -3.2223   -1.9007 H         1 <0>         0.4431
     35 H14       -10.0373   -3.2225   -0.2210 H         1 <0>         0.4313
     36 H15        -4.9931   -1.3447   -3.6450 H         1 <0>         0.4325
     37 H16        -6.4006   -1.8559   -4.4066 H         1 <0>         0.4339
     38 N5         -7.7187   -2.3736    0.1114 N.ar      1 <0>        -0.6084
     39 H17        -8.1596   -2.5414    0.9932 H         1 <0>         0.4582
@<TRIPOS>BOND
     1    1    2 1
     2    1   22 1
     3    1   23 1
     4    1   24 1
     5    2    7 ar
     6    2    3 ar
     7    3    4 ar
     8    3   25 1
     9    4    5 ar
    10    4   21 1
    11    5    6 ar
    12    5   26 1
    13    6    7 ar
    14    6   27 1
    15    7    8 1
    16    8    9 1
    17    8   28 1
    18    9   10 1
    19    9   29 1
    20    9   30 1
    21   10   15 ar
    22   10   11 ar
    23   11   12 ar
    24   11   31 1
    25   12   13 ar
    26   12   32 1
    27   13   14 ar
    28   13   38 ar
    29   14   15 ar
    30   14   16 ar
    31   15   33 1
    32   16   17 ar
    33   16   20 1
    34   17   18 ar
    35   18   19 1
    36   18   38 ar
    37   19   34 1
    38   19   35 1
    39   20   36 1
    40   20   37 1
    41   38   39 1
@<TRIPOS>MOLECULE
ZINC03815024
   42    44     0     0     0
SMALL
USER_CHARGES

@<TRIPOS>ATOM
      1 C1          2.4228    4.1154    0.0010 C.3       1 <0>         0.0286
      2 O1          1.1579    3.4504    0.0095 O.3       1 <0>        -0.3177
      3 C2          1.1753    2.0908    0.0021 C.ar      1 <0>         0.1427
      4 C3          2.3855    1.4132   -0.0136 C.ar      1 <0>        -0.2286
      5 C4          2.4067    0.0307   -0.0208 C.ar      1 <0>        -0.1224
      6 C5          1.2191   -0.6815   -0.0132 C.ar      1 <0>         0.0203
      7 C6          0.0021   -0.0041    0.0020 C.ar      1 <0>         0.2337
      8 C7         -0.0167    1.3828    0.0096 C.ar      1 <0>        -0.2020
      9 N1         -1.1995   -0.7215    0.0101 N.pl3     1 <0>        -0.7367
     10 C8         -2.4787   -0.0077    0.0266 C.3       1 <0>         0.1770
     11 C9         -3.6097   -1.0037    0.0325 C.ar      1 <0>        -0.2089
     12 C10        -4.1132   -1.4639    1.2212 C.ar      1 <0>         0.0225
     13 C11        -5.1632   -2.3879    1.1770 C.ar      1 <0>        -0.2925
     14 C12        -5.7488   -2.9196    2.3527 C.ar      1 <0>         0.5271
     15 N2         -6.7401   -3.7895    2.2218 N.ar      1 <0>        -0.6355
     16 C13        -7.1798   -4.1604    1.0227 C.ar      1 <0>         0.6353
     17 N3         -6.6697   -3.6959   -0.1024 N.ar      1 <0>        -0.6015
     18 C14        -5.6632   -2.8105   -0.0795 C.ar      1 <0>         0.4206
     19 N4         -5.1303   -2.3255   -1.2012 N.ar      1 <0>        -0.4847
     20 C15        -4.1478   -1.4530   -1.1670 C.ar      1 <0>         0.2076
     21 N5         -8.2162   -5.0715    0.9517 N.pl3     1 <0>        -0.8102
     22 N6         -5.2999   -2.5418    3.5990 N.pl3     1 <0>        -0.8138
     23 O2          1.2411   -2.0422   -0.0212 O.3       1 <0>        -0.3232
     24 C16         2.5246   -2.6702   -0.0368 C.3       1 <0>         0.0324
     25 H1          2.2662    5.1941    0.0083 H         1 <0>         0.0992
     26 H2          2.9919    3.8249    0.8841 H         1 <0>         0.0549
     27 H3          2.9749    3.8345   -0.8958 H         1 <0>         0.0553
     28 H4          3.3129    1.9666   -0.0198 H         1 <0>         0.1268
     29 H5          3.3504   -0.4942   -0.0326 H         1 <0>         0.1296
     30 H6         -0.9589    1.9106    0.0170 H         1 <0>         0.1370
     31 H7         -1.1853   -1.6914    0.0048 H         1 <0>         0.4079
     32 H8         -2.5368    0.6132    0.9206 H         1 <0>         0.0714
     33 H9         -2.5545    0.6228   -0.8593 H         1 <0>         0.0757
     34 H10        -3.7117   -1.1231    2.1641 H         1 <0>         0.1363
     35 H11        -3.7447   -1.0789   -2.0965 H         1 <0>         0.1679
     36 H12        -8.5534   -5.3562    0.0878 H         1 <0>         0.4191
     37 H13        -8.6067   -5.4263    1.7656 H         1 <0>         0.4160
     38 H14        -4.5737   -1.9039    3.6802 H         1 <0>         0.4151
     39 H15        -5.7100   -2.9137    4.3955 H         1 <0>         0.4156
     40 H16         3.0684   -2.3633   -0.9302 H         1 <0>         0.0528
     41 H17         3.0851   -2.3735    0.8497 H         1 <0>         0.0521
     42 H18         2.3992   -3.7530   -0.0418 H         1 <0>         0.0971
@<TRIPOS>BOND
     1    1    2 1
     2    1   25 1
     3    1   26 1
     4    1   27 1
     5    2    3 1
     6    3    8 ar
     7    3    4 ar
     8    4    5 ar
     9    4   28 1
    10    5    6 ar
    11    5   29 1
    12    6    7 ar
    13    6   23 1
    14    7    8 ar
    15    7    9 1
    16    8   30 1
    17    9   10 1
    18    9   31 1
    19   10   11 1
    20   10   32 1
    21   10   33 1
    22   11   20 ar
    23   11   12 ar
    24   12   13 ar
    25   12   34 1
    26   13   18 ar
    27   13   14 ar
    28   14   15 ar
    29   14   22 1
    30   15   16 ar
    31   16   17 ar
    32   16   21 1
    33   17   18 ar
    34   18   19 ar
    35   19   20 ar
    36   20   35 1
    37   21   36 1
    38   21   37 1
    39   22   38 1
    40   22   39 1
    41   23   24 1
    42   24   40 1
    43   24   41 1
    44   24   42 1
@<TRIPOS>MOLECULE
ZINC03815024
   43    45     0     0     0
SMALL
USER_CHARGES

@<TRIPOS>ATOM
      1 C1          2.4228    4.1154    0.0010 C.3       1 <0>         0.0267
      2 O1          1.1579    3.4504    0.0095 O.3       1 <0>        -0.3168
      3 C2          1.1753    2.0908    0.0021 C.ar      1 <0>         0.1432
      4 C3          2.3855    1.4132   -0.0136 C.ar      1 <0>        -0.2181
      5 C4          2.4067    0.0307   -0.0208 C.ar      1 <0>        -0.1208
      6 C5          1.2191   -0.6815   -0.0132 C.ar      1 <0>         0.0251
      7 C6          0.0021   -0.0041    0.0020 C.ar      1 <0>         0.2232
      8 C7         -0.0167    1.3828    0.0096 C.ar      1 <0>        -0.1975
      9 N1         -1.1995   -0.7215    0.0101 N.pl3     1 <0>        -0.7436
     10 C8         -2.4787   -0.0077    0.0266 C.3       1 <0>         0.1667
     11 C9         -3.6097   -1.0037    0.0325 C.ar      1 <0>        -0.1606
     12 C10        -4.1132   -1.4639    1.2212 C.ar      1 <0>         0.0323
     13 C11        -5.1632   -2.3879    1.1770 C.ar      1 <0>        -0.2352
     14 C12        -5.7488   -2.9196    2.3527 C.ar      1 <0>         0.5722
     15 N2         -6.7401   -3.7895    2.2218 N.ar      1 <0>        -0.5857
     16 C13        -7.1798   -4.1604    1.0227 C.ar      1 <0>         0.7009
     17 C14        -5.6632   -2.8105   -0.0795 C.ar      1 <0>         0.4056
     18 N3         -5.1303   -2.3255   -1.2012 N.ar      1 <0>        -0.4933
     19 C15        -4.1478   -1.4530   -1.1670 C.ar      1 <0>         0.2337
     20 N4         -8.2162   -5.0715    0.9517 N.pl3     1 <0>        -0.7798
     21 N5         -5.2999   -2.5418    3.5990 N.pl3     1 <0>        -0.7592
     22 O2          1.2411   -2.0422   -0.0212 O.3       1 <0>        -0.3266
     23 C16         2.5246   -2.6702   -0.0368 C.3       1 <0>         0.0308
     24 H1          2.2662    5.1941    0.0083 H         1 <0>         0.1026
     25 H2          2.9919    3.8249    0.8841 H         1 <0>         0.0572
     26 H3          2.9749    3.8345   -0.8958 H         1 <0>         0.0575
     27 H4          3.3129    1.9666   -0.0198 H         1 <0>         0.1310
     28 H5          3.3504   -0.4942   -0.0326 H         1 <0>         0.1331
     29 H6         -0.9589    1.9106    0.0170 H         1 <0>         0.1367
     30 H7         -1.1853   -1.6914    0.0048 H         1 <0>         0.4072
     31 H8         -2.5368    0.6132    0.9206 H         1 <0>         0.0834
     32 H9         -2.5545    0.6228   -0.8593 H         1 <0>         0.0867
     33 H10        -3.7117   -1.1231    2.1641 H         1 <0>         0.1657
     34 H11        -3.7447   -1.0789   -2.0965 H         1 <0>         0.1935
     35 H12        -8.5534   -5.3562    0.0878 H         1 <0>         0.4333
     36 H13        -8.6067   -5.4263    1.7656 H         1 <0>         0.4454
     37 H14        -4.5737   -1.9039    3.6802 H         1 <0>         0.4330
     38 H15        -5.7100   -2.9137    4.3955 H         1 <0>         0.4358
     39 H16         3.0684   -2.3633   -0.9302 H         1 <0>         0.0554
     40 H17         3.0851   -2.3735    0.8497 H         1 <0>         0.0548
     41 H18         2.3992   -3.7530   -0.0418 H         1 <0>         0.0986
     42 N6         -6.6964   -3.7185   -0.1655 N.ar      1 <0>        -0.5956
     43 H19        -7.0905   -4.0535   -1.0214 H         1 <0>         0.4612
@<TRIPOS>BOND
     1    1    2 1
     2    1   24 1
     3    1   25 1
     4    1   26 1
     5    2    3 1
     6    3    8 ar
     7    3    4 ar
     8    4    5 ar
     9    4   27 1
    10    5    6 ar
    11    5   28 1
    12    6    7 ar
    13    6   22 1
    14    7    8 ar
    15    7    9 1
    16    8   29 1
    17    9   10 1
    18    9   30 1
    19   10   11 1
    20   10   31 1
    21   10   32 1
    22   11   19 ar
    23   11   12 ar
    24   12   13 ar
    25   12   33 1
    26   13   17 ar
    27   13   14 ar
    28   14   15 ar
    29   14   21 1
    30   15   16 ar
    31   16   20 1
    32   16   42 ar
    33   17   18 ar
    34   17   42 ar
    35   18   19 ar
    36   19   34 1
    37   20   35 1
    38   20   36 1
    39   21   37 1
    40   21   38 1
    41   22   23 1
    42   23   39 1
    43   23   40 1
    44   23   41 1
    45   42   43 1
