@<TRIPOS>MOLECULE
ZINC00006094
   40    43     0     0     0
SMALL
USER_CHARGES

@<TRIPOS>ATOM
      1 C1          4.2203    1.3088   -0.6642 C.ar      1 <0>        -0.1330
      2 C2          3.7972    0.8446    0.5679 C.ar      1 <0>        -0.0927
      3 C3          2.4621    0.5622    0.7798 C.ar      1 <0>        -0.1419
      4 C4          1.5437    0.7449   -0.2466 C.ar      1 <0>         0.1492
      5 C5          1.9731    1.2064   -1.4848 C.ar      1 <0>        -0.1505
      6 C6          3.3089    1.4914   -1.6882 C.ar      1 <0>        -0.0923
      7 N1          0.1926    0.4597   -0.0360 N.pl3     1 <0>        -0.6622
      8 C7         -0.7870    1.3143   -0.5399 C.ar      1 <0>         0.2298
      9 C8         -0.4202    2.5277   -1.1121 C.ar      1 <0>        -0.1082
     10 C9         -1.3961    3.3752   -1.6127 C.ar      1 <0>        -0.0935
     11 C10        -2.7574    3.0053   -1.5405 C.ar      1 <0>        -0.1890
     12 C11        -3.1171    1.7947   -0.9692 C.ar      1 <0>         0.0023
     13 C12        -2.1332    0.9460   -0.4733 C.ar      1 <0>         0.0947
     14 N2         -2.4918   -0.2749    0.0967 N.pl3     1 <0>        -0.6970
     15 C13        -2.4519   -0.4366    1.4835 C.ar      1 <0>         0.1941
     16 C14        -2.1786    0.6510    2.3038 C.ar      1 <0>        -0.1808
     17 C15        -2.1442    0.4883    3.6747 C.ar      1 <0>        -0.0752
     18 C16        -2.3718   -0.7573    4.2308 C.ar      1 <0>        -0.1652
     19 C17        -2.6389   -1.8431    3.4170 C.ar      1 <0>        -0.0759
     20 C18        -2.6796   -1.6867    2.0456 C.ar      1 <0>        -0.1825
     21 C19        -3.5101    4.1164   -2.1537 C.2       1 <0>         0.5830
     22 O1         -4.7173    4.1710   -2.2792 O.2       1 <0>        -0.4657
     23 N3         -2.6363    5.0591   -2.5500 N.am      1 <0>        -0.6796
     24 C20        -1.3720    4.6976   -2.2670 C.2       1 <0>         0.5786
     25 O2         -0.3766    5.3503   -2.5102 O.2       1 <0>        -0.4588
     26 H1          5.2650    1.5289   -0.8272 H         1 <0>         0.1264
     27 H2          4.5116    0.7032    1.3654 H         1 <0>         0.1285
     28 H3          2.1324    0.1993    1.7421 H         1 <0>         0.1263
     29 H4          1.2625    1.3453   -2.2861 H         1 <0>         0.1290
     30 H5          3.6429    1.8537   -2.6492 H         1 <0>         0.1293
     31 H6         -0.0641   -0.3350    0.4574 H         1 <0>         0.4179
     32 H7          0.6212    2.8087   -1.1659 H         1 <0>         0.1549
     33 H8         -4.1573    1.5097   -0.9129 H         1 <0>         0.1477
     34 H9         -2.7690   -1.0118   -0.4697 H         1 <0>         0.4126
     35 H10        -1.9968    1.6232    1.8700 H         1 <0>         0.1189
     36 H11        -1.9356    1.3341    4.3132 H         1 <0>         0.1221
     37 H12        -2.3405   -0.8824    5.3031 H         1 <0>         0.1207
     38 H13        -2.8161   -2.8144    3.8546 H         1 <0>         0.1239
     39 H14        -2.8879   -2.5351    1.4106 H         1 <0>         0.1232
     40 H15        -2.8852    5.8904   -2.9835 H         1 <0>         0.4309
@<TRIPOS>BOND
     1    1    6 ar
     2    1    2 ar
     3    1   26 1
     4    2    3 ar
     5    2   27 1
     6    3    4 ar
     7    3   28 1
     8    4    5 ar
     9    4    7 1
    10    5    6 ar
    11    5   29 1
    12    6   30 1
    13    7    8 1
    14    7   31 1
    15    8   13 ar
    16    8    9 ar
    17    9   10 ar
    18    9   32 1
    19   10   24 1
    20   10   11 ar
    21   11   12 ar
    22   11   21 1
    23   12   13 ar
    24   12   33 1
    25   13   14 1
    26   14   15 1
    27   14   34 1
    28   15   20 ar
    29   15   16 ar
    30   16   17 ar
    31   16   35 1
    32   17   18 ar
    33   17   36 1
    34   18   19 ar
    35   18   37 1
    36   19   20 ar
    37   19   38 1
    38   20   39 1
    39   21   22 2
    40   21   23 am
    41   23   24 am
    42   23   40 1
    43   24   25 2
@<TRIPOS>MOLECULE
ZINC00006271
   32    35     0     0     0
SMALL
USER_CHARGES

@<TRIPOS>ATOM
      1 C1          4.8797    1.0221   -0.4205 C.ar      1 <0>        -0.0931
      2 C2          3.7004    1.7356   -0.5108 C.ar      1 <0>        -0.0924
      3 C3          3.5980    2.9845    0.0883 C.ar      1 <0>         0.1598
      4 C4          4.6847    3.5147    0.7721 C.ar      1 <0>        -0.1195
      5 C5          5.8597    2.7936    0.8638 C.ar      1 <0>        -0.0716
      6 C6          5.9580    1.5495    0.2655 C.ar      1 <0>        -0.1044
      7 Br1         7.3375    3.5105    1.8009 Br        1 <0>        -0.0454
      8 N1          2.4059    3.7087   -0.0015 N.pl3     1 <0>        -0.6390
      9 C7          1.1950    3.0484    0.0136 C.ar      1 <0>         0.4767
     10 C8         -0.0194    3.7498   -0.1977 C.ar      1 <0>        -0.2008
     11 C9         -0.0418    5.1246   -0.4277 C.ar      1 <0>        -0.0238
     12 C10        -1.2583    5.7611   -0.6288 C.ar      1 <0>        -0.1078
     13 C11        -1.6375    7.1544   -0.8906 C.2       1 <0>        -0.2060
     14 C12        -2.9732    7.1842   -1.0009 C.2       1 <0>         0.0712
     15 N2         -3.4887    5.9256   -0.8319 N.pl3     1 <0>        -0.6087
     16 H1         -4.4314    5.7002   -0.8684 H         1 <0>         0.4213
     17 C13        -2.4680    5.0273   -0.6020 C.ar      1 <0>         0.1545
     18 C14        -2.4498    3.6641   -0.3736 C.ar      1 <0>        -0.1363
     19 C15        -1.2323    3.0117   -0.1704 C.ar      1 <0>         0.1968
     20 N3         -1.1734    1.6864    0.0482 N.ar      1 <0>        -0.5487
     21 C16        -0.0203    1.0943    0.2421 C.ar      1 <0>         0.3469
     22 N4          1.1353    1.7410    0.2254 N.ar      1 <0>        -0.5927
     23 H2          4.9597    0.0511   -0.8866 H         1 <0>         0.1369
     24 H3          2.8586    1.3226   -1.0466 H         1 <0>         0.1415
     25 H4          4.6099    4.4876    1.2351 H         1 <0>         0.1345
     26 H5          6.8789    0.9896    0.3343 H         1 <0>         0.1345
     27 H6          2.4301    4.6757   -0.0743 H         1 <0>         0.4219
     28 H7          0.8789    5.6888   -0.4494 H         1 <0>         0.1294
     29 H8         -0.9671    7.9966   -0.9780 H         1 <0>         0.1532
     30 H9         -3.5582    8.0713   -1.1941 H         1 <0>         0.1767
     31 H10        -3.3739    3.1055   -0.3538 H         1 <0>         0.1387
     32 H11        -0.0118    0.0289    0.4192 H         1 <0>         0.1957
@<TRIPOS>BOND
     1    1    6 ar
     2    1    2 ar
     3    1   23 1
     4    2    3 ar
     5    2   24 1
     6    3    4 ar
     7    3    8 1
     8    4    5 ar
     9    4   25 1
    10    5    6 ar
    11    5    7 1
    12    6   26 1
    13    8    9 1
    14    8   27 1
    15    9   22 ar
    16    9   10 ar
    17   10   19 ar
    18   10   11 ar
    19   11   12 ar
    20   11   28 1
    21   12   17 ar
    22   12   13 1
    23   13   14 2
    24   13   29 1
    25   14   15 1
    26   14   30 1
    27   15   16 1
    28   15   17 1
    29   17   18 ar
    30   18   19 ar
    31   18   31 1
    32   19   20 ar
    33   20   21 ar
    34   21   22 ar
    35   21   32 1
@<TRIPOS>MOLECULE
ZINC00006798
   35    38     0     0     0
SMALL
USER_CHARGES

@<TRIPOS>ATOM
      1 C1          2.3192    5.8592   -1.5030 C.ar      1 <0>        -0.1030
      2 C2          3.1604    4.8447   -1.9236 C.ar      1 <0>        -0.1150
      3 C3          2.7984    3.5253   -1.7434 C.ar      1 <0>        -0.1082
      4 C4          1.5824    3.2157   -1.1357 C.ar      1 <0>        -0.0288
      5 C5          0.7363    4.2424   -0.7187 C.ar      1 <0>        -0.0830
      6 C6          1.1114    5.5581   -0.8994 C.ar      1 <0>        -0.1142
      7 C7          1.1879    1.8005   -0.9393 C.2       1 <0>         0.1778
      8 C8          2.0443    0.7239   -0.4419 C.ar      1 <0>        -0.3207
      9 C9          3.3809    0.6328   -0.0193 C.ar      1 <0>         0.5206
     10 N1          3.8368   -0.5501    0.3811 N.ar      1 <0>        -0.6003
     11 C10         3.0568   -1.6167    0.3834 C.ar      1 <0>         0.3881
     12 N2          1.8008   -1.5789   -0.0038 N.ar      1 <0>        -0.5672
     13 C11         1.2520   -0.4389   -0.4219 C.ar      1 <0>         0.3792
     14 N3          0.0133   -0.0822   -0.8742 N.pl3     1 <0>        -0.3293
     15 N4          0.0060    1.2829   -1.1800 N.2       1 <0>        -0.2307
     16 C12        -1.0786   -0.9477   -1.0100 C.ar      1 <0>         0.1519
     17 C13        -0.8776   -2.2664   -1.3969 C.ar      1 <0>        -0.1101
     18 C14        -1.9564   -3.1190   -1.5249 C.ar      1 <0>        -0.0994
     19 C15        -3.2369   -2.6581   -1.2793 C.ar      1 <0>        -0.1192
     20 C16        -3.4410   -1.3443   -0.8990 C.ar      1 <0>        -0.1034
     21 C17        -2.3659   -0.4880   -0.7637 C.ar      1 <0>        -0.1124
     22 N5          4.2011    1.7444   -0.0200 N.pl3     1 <0>        -0.8269
     23 H1          2.6067    6.8904   -1.6461 H         1 <0>         0.1298
     24 H2          4.1021    5.0858   -2.3942 H         1 <0>         0.1326
     25 H3          3.4559    2.7341   -2.0722 H         1 <0>         0.1316
     26 H4         -0.2088    4.0085   -0.2514 H         1 <0>         0.1298
     27 H5          0.4587    6.3543   -0.5730 H         1 <0>         0.1317
     28 H6          3.4680   -2.5581    0.7166 H         1 <0>         0.2084
     29 H7          0.1218   -2.6257   -1.5934 H         1 <0>         0.1355
     30 H8         -1.8003   -4.1458   -1.8210 H         1 <0>         0.1337
     31 H9         -4.0793   -3.3257   -1.3844 H         1 <0>         0.1300
     32 H10        -4.4422   -0.9873   -0.7080 H         1 <0>         0.1326
     33 H11        -2.5259    0.5378   -0.4663 H         1 <0>         0.1314
     34 H12         3.8148    2.6322   -0.0792 H         1 <0>         0.4146
     35 H13         5.1634    1.6372    0.0386 H         1 <0>         0.4122
@<TRIPOS>BOND
     1    1    6 ar
     2    1    2 ar
     3    1   23 1
     4    2    3 ar
     5    2   24 1
     6    3    4 ar
     7    3   25 1
     8    4    5 ar
     9    4    7 1
    10    5    6 ar
    11    5   26 1
    12    6   27 1
    13    7   15 2
    14    7    8 1
    15    8   13 ar
    16    8    9 ar
    17    9   10 ar
    18    9   22 1
    19   10   11 ar
    20   11   12 ar
    21   11   28 1
    22   12   13 ar
    23   13   14 1
    24   14   15 1
    25   14   16 1
    26   16   21 ar
    27   16   17 ar
    28   17   18 ar
    29   17   29 1
    30   18   19 ar
    31   18   30 1
    32   19   20 ar
    33   19   31 1
    34   20   21 ar
    35   20   32 1
    36   21   33 1
    37   22   34 1
    38   22   35 1
@<TRIPOS>MOLECULE
ZINC00007282
   32    34     0     0     0
SMALL
USER_CHARGES

@<TRIPOS>ATOM
      1 C1          4.3514   -1.6233    0.1561 C.3       1 <0>        -0.0843
      2 C2          3.7504   -0.2548   -0.0363 C.2       1 <0>        -0.1400
      3 C3          4.4170    0.9085   -0.1165 C.2       1 <0>         0.0741
      4 N1          3.5315    1.9404   -0.2913 N.pl3     1 <0>        -0.5646
      5 H1          3.7765    2.8751   -0.3765 H         1 <0>         0.4227
      6 C4          2.2520    1.4584   -0.3286 C.ar      1 <0>         0.3473
      7 C5          2.3299    0.0620   -0.1706 C.ar      1 <0>        -0.2473
      8 C6          1.1408   -0.6828   -0.1721 C.ar      1 <0>         0.4775
      9 N2         -0.0102   -0.0335   -0.3232 N.ar      1 <0>        -0.5836
     10 C7         -0.0377    1.2788   -0.4685 C.ar      1 <0>         0.3578
     11 N3          1.0515    2.0167   -0.4732 N.ar      1 <0>        -0.5614
     12 N4          1.1649   -2.0584   -0.0197 N.pl3     1 <0>        -0.6451
     13 C8         -0.0328   -2.7700    0.0939 C.ar      1 <0>         0.1702
     14 C9         -0.1266   -4.0603   -0.4129 C.ar      1 <0>        -0.1481
     15 C10        -1.3108   -4.7613   -0.2990 C.ar      1 <0>        -0.0848
     16 C11        -2.4032   -4.1810    0.3193 C.ar      1 <0>        -0.1305
     17 C12        -2.3136   -2.8963    0.8257 C.ar      1 <0>        -0.0136
     18 C13        -1.1295   -2.1910    0.7186 C.ar      1 <0>        -0.1079
     19 Cl1        -3.6873   -2.1723    1.6021 Cl        1 <0>        -0.0658
     20 C14         5.9140    1.0570   -0.0276 C.3       1 <0>        -0.0923
     21 H2          4.5678   -2.0651   -0.8165 H         1 <0>         0.0714
     22 H3          5.2744   -1.5374    0.7296 H         1 <0>         0.0743
     23 H4          3.6468   -2.2571    0.6945 H         1 <0>         0.0591
     24 H5         -0.9935    1.7659   -0.5929 H         1 <0>         0.2028
     25 H6          2.0129   -2.5285    0.0083 H         1 <0>         0.4215
     26 H7          0.7260   -4.5145   -0.8959 H         1 <0>         0.1300
     27 H8         -1.3838   -5.7643   -0.6929 H         1 <0>         0.1363
     28 H9         -3.3281   -4.7318    0.4073 H         1 <0>         0.1340
     29 H10        -1.0584   -1.1899    1.1176 H         1 <0>         0.1481
     30 H11         6.3465    0.9816   -1.0252 H         1 <0>         0.0814
     31 H12         6.1578    2.0289    0.4016 H         1 <0>         0.0720
     32 H13         6.3205    0.2681    0.6053 H         1 <0>         0.0887
@<TRIPOS>BOND
     1    1    2 1
     2    1   21 1
     3    1   22 1
     4    1   23 1
     5    2    7 1
     6    2    3 2
     7    3    4 1
     8    3   20 1
     9    4    5 1
    10    4    6 1
    11    6   11 ar
    12    6    7 ar
    13    7    8 ar
    14    8    9 ar
    15    8   12 1
    16    9   10 ar
    17   10   11 ar
    18   10   24 1
    19   12   13 1
    20   12   25 1
    21   13   18 ar
    22   13   14 ar
    23   14   15 ar
    24   14   26 1
    25   15   16 ar
    26   15   27 1
    27   16   17 ar
    28   16   28 1
    29   17   18 ar
    30   17   19 1
    31   18   29 1
    32   20   30 1
    33   20   31 1
    34   20   32 1
@<TRIPOS>MOLECULE
ZINC00007342
   30    32     0     0     0
SMALL
USER_CHARGES

@<TRIPOS>ATOM
      1 C1         -4.6496    0.5077    0.9468 C.ar      1 <0>        -0.1037
      2 C2         -3.4722    1.2281    0.9529 C.ar      1 <0>        -0.0863
      3 C3         -2.4777    0.9417    0.0192 C.ar      1 <0>        -0.0008
      4 C4         -2.6736   -0.0796   -0.9091 C.ar      1 <0>        -0.1087
      5 C5         -3.8531   -0.7978   -0.9025 C.ar      1 <0>        -0.0337
      6 C6         -4.8395   -0.5046    0.0240 C.ar      1 <0>        -0.1117
      7 Cl1        -4.0993   -2.0706   -2.0571 Cl        1 <0>        -0.0709
      8 C7         -1.2135    1.7166    0.0173 C.2       1 <0>        -0.2422
      9 C8         -0.0126    1.0758    0.0080 C.2       1 <0>         0.1790
     10 N1          1.1628    1.7446    0.0003 N.pl3     1 <0>        -0.6094
     11 H1          2.0144    1.2205   -0.0104 H         1 <0>         0.4297
     12 C9          1.2316    3.1202    0.0066 C.ar      1 <0>         0.2277
     13 C10         2.4617    3.7670   -0.0027 C.ar      1 <0>        -0.2173
     14 C11         2.5178    5.1503    0.0038 C.ar      1 <0>         0.1928
     15 C12         1.3508    5.9086    0.0191 C.ar      1 <0>        -0.2163
     16 C13         0.1176    5.2860    0.0280 C.ar      1 <0>         0.2205
     17 C14         0.0505    3.8855    0.0220 C.ar      1 <0>        -0.2382
     18 C15        -1.2415    3.1855    0.0315 C.2       1 <0>         0.4285
     19 O1         -2.2955    3.7997    0.0450 O.2       1 <0>        -0.4613
     20 O2         -1.0207    6.0247    0.0425 O.3       1 <0>        -0.4739
     21 O3          3.7237    5.7736   -0.0045 O.3       1 <0>        -0.4926
     22 H2         -5.4223    0.7322    1.6671 H         1 <0>         0.1343
     23 H3         -3.3236    2.0154    1.6770 H         1 <0>         0.1294
     24 H4         -1.9047   -0.3084   -1.6321 H         1 <0>         0.1316
     25 H5         -5.7604   -1.0688    0.0262 H         1 <0>         0.1334
     26 H6          0.0021   -0.0041    0.0020 H         1 <0>         0.1679
     27 H7          3.3746    3.1900   -0.0146 H         1 <0>         0.1434
     28 H8          1.4095    6.9870    0.0236 H         1 <0>         0.1454
     29 H9         -1.3591    6.2430   -0.8366 H         1 <0>         0.4020
     30 H10         4.0648    5.9587   -0.8902 H         1 <0>         0.4016
@<TRIPOS>BOND
     1    1    6 ar
     2    1    2 ar
     3    1   22 1
     4    2    3 ar
     5    2   23 1
     6    3    4 ar
     7    3    8 1
     8    4    5 ar
     9    4   24 1
    10    5    6 ar
    11    5    7 1
    12    6   25 1
    13    8   18 1
    14    8    9 2
    15    9   10 1
    16    9   26 1
    17   10   11 1
    18   10   12 1
    19   12   17 ar
    20   12   13 ar
    21   13   14 ar
    22   13   27 1
    23   14   15 ar
    24   14   21 1
    25   15   16 ar
    26   15   28 1
    27   16   17 ar
    28   16   20 1
    29   17   18 1
    30   18   19 2
    31   20   29 1
    32   21   30 1
@<TRIPOS>MOLECULE
ZINC00007342
   30    32     0     0     0
SMALL
USER_CHARGES

@<TRIPOS>ATOM
      1 C1         -4.6534    0.5078    0.9232 C.ar      1 <0>        -0.1030
      2 C2         -3.4761    1.2282    0.9340 C.ar      1 <0>        -0.0991
      3 C3         -2.4777    0.9416    0.0044 C.ar      1 <0>        -0.0068
      4 C4         -2.6698   -0.0798   -0.9245 C.ar      1 <0>        -0.1035
      5 C5         -3.8493   -0.7981   -0.9226 C.ar      1 <0>        -0.0311
      6 C6         -4.8395   -0.5047   -0.0002 C.ar      1 <0>        -0.1122
      7 Cl1        -4.0907   -2.0711   -2.0779 Cl        1 <0>        -0.0677
      8 C7         -1.2135    1.7166    0.0075 C.ar      1 <0>        -0.2257
      9 C8         -0.0126    1.0758    0.0081 C.ar      1 <0>         0.2015
     10 N1          1.1628    1.7446    0.0004 N.ar      1 <0>        -0.5340
     11 H1         -2.1089    4.7821    0.0325 H         1 <0>         0.4130
     12 C9          1.2315    3.1202   -0.0047 C.ar      1 <0>         0.2095
     13 C10         2.4616    3.7670   -0.0194 C.ar      1 <0>        -0.1407
     14 C11         2.5177    5.1503   -0.0140 C.ar      1 <0>         0.1599
     15 C12         1.3506    5.9086   -0.0042 C.ar      1 <0>        -0.1767
     16 C13         0.1174    5.2860    0.0051 C.ar      1 <0>         0.1410
     17 C14         0.0504    3.8855    0.0051 C.ar      1 <0>        -0.2547
     18 C15        -1.2416    3.1855    0.0153 C.ar      1 <0>         0.2936
     19 O1         -2.2956    3.7997    0.0295 O.3       1 <0>        -0.3846
     20 O2         -1.0209    6.0247    0.0142 O.3       1 <0>        -0.4799
     21 O3          3.7235    5.7736   -0.0227 O.3       1 <0>        -0.4911
     22 H2         -5.4291    0.7324    1.6402 H         1 <0>         0.1339
     23 H3         -3.3305    2.0157    1.6585 H         1 <0>         0.1262
     24 H4         -1.8979   -0.3088   -1.6443 H         1 <0>         0.1349
     25 H5         -5.7604   -1.0689   -0.0017 H         1 <0>         0.1339
     26 H6          0.0021   -0.0041    0.0068 H         1 <0>         0.1634
     27 H7          3.3745    3.1900   -0.0309 H         1 <0>         0.1485
     28 H8          1.4093    6.9871   -0.0043 H         1 <0>         0.1463
     29 H9         -1.3577    6.2392   -0.8664 H         1 <0>         0.4057
     30 H10         4.0663    5.9549   -0.9086 H         1 <0>         0.3997
@<TRIPOS>BOND
     1    1    6 ar
     2    1    2 ar
     3    1   22 1
     4    2    3 ar
     5    2   23 1
     6    3    4 ar
     7    3    8 1
     8    4    5 ar
     9    4   24 1
    10    5    6 ar
    11    5    7 1
    12    6   25 1
    13    8    9 ar
    14    8   18 ar
    15    9   26 1
    16    9   10 ar
    17   10   12 ar
    18   11   19 1
    19   12   13 ar
    20   12   17 ar
    21   13   14 ar
    22   13   27 1
    23   14   15 ar
    24   14   21 1
    25   15   16 ar
    26   15   28 1
    27   16   17 ar
    28   16   20 1
    29   17   18 ar
    30   18   19 1
    31   20   29 1
    32   21   30 1
@<TRIPOS>MOLECULE
ZINC00007342
   30    32     0     0     0
SMALL
USER_CHARGES

@<TRIPOS>ATOM
      1 C1         -4.6534    0.5078    0.9232 C.ar      1 <0>        -0.1030
      2 C2         -3.4761    1.2282    0.9340 C.ar      1 <0>        -0.0991
      3 C3         -2.4777    0.9416    0.0044 C.ar      1 <0>        -0.0068
      4 C4         -2.6698   -0.0798   -0.9245 C.ar      1 <0>        -0.1035
      5 C5         -3.8493   -0.7981   -0.9226 C.ar      1 <0>        -0.0311
      6 C6         -4.8395   -0.5047   -0.0002 C.ar      1 <0>        -0.1122
      7 Cl1        -4.0907   -2.0711   -2.0779 Cl        1 <0>        -0.0677
      8 C7         -1.2135    1.7166    0.0075 C.ar      1 <0>        -0.2257
      9 C8         -0.0126    1.0758    0.0081 C.ar      1 <0>         0.2015
     10 N1          1.1628    1.7446    0.0004 N.ar      1 <0>        -0.5340
     11 H1         -2.1089    4.7821    0.0325 H         1 <0>         0.4130
     12 C9          1.2315    3.1202   -0.0047 C.ar      1 <0>         0.2095
     13 C10         2.4616    3.7670   -0.0194 C.ar      1 <0>        -0.1407
     14 C11         2.5177    5.1503   -0.0140 C.ar      1 <0>         0.1599
     15 C12         1.3506    5.9086   -0.0042 C.ar      1 <0>        -0.1767
     16 C13         0.1174    5.2860    0.0051 C.ar      1 <0>         0.1410
     17 C14         0.0504    3.8855    0.0051 C.ar      1 <0>        -0.2547
     18 C15        -1.2416    3.1855    0.0153 C.ar      1 <0>         0.2936
     19 O1         -2.2956    3.7997    0.0295 O.3       1 <0>        -0.3846
     20 O2         -1.0209    6.0247    0.0142 O.3       1 <0>        -0.4799
     21 O3          3.7235    5.7736   -0.0227 O.3       1 <0>        -0.4911
     22 H2         -5.4291    0.7324    1.6402 H         1 <0>         0.1339
     23 H3         -3.3305    2.0157    1.6585 H         1 <0>         0.1262
     24 H4         -1.8979   -0.3088   -1.6443 H         1 <0>         0.1349
     25 H5         -5.7604   -1.0689   -0.0017 H         1 <0>         0.1339
     26 H6          0.0021   -0.0041    0.0068 H         1 <0>         0.1634
     27 H7          3.3745    3.1900   -0.0309 H         1 <0>         0.1485
     28 H8          1.4093    6.9871   -0.0043 H         1 <0>         0.1463
     29 H9         -1.3577    6.2392   -0.8664 H         1 <0>         0.4057
     30 H10         4.0663    5.9549   -0.9086 H         1 <0>         0.3997
@<TRIPOS>BOND
     1    1    6 ar
     2    1    2 ar
     3    1   22 1
     4    2    3 ar
     5    2   23 1
     6    3    4 ar
     7    3    8 1
     8    4    5 ar
     9    4   24 1
    10    5    6 ar
    11    5    7 1
    12    6   25 1
    13    8    9 ar
    14    8   18 ar
    15    9   26 1
    16    9   10 ar
    17   10   12 ar
    18   11   19 1
    19   12   13 ar
    20   12   17 ar
    21   13   14 ar
    22   13   27 1
    23   14   15 ar
    24   14   21 1
    25   15   16 ar
    26   15   28 1
    27   16   17 ar
    28   16   20 1
    29   17   18 ar
    30   18   19 1
    31   20   29 1
    32   21   30 1
@<TRIPOS>MOLECULE
ZINC00009851
   37    39     0     0     0
SMALL
USER_CHARGES

@<TRIPOS>ATOM
      1 C1          5.8721    3.2860    0.3141 C.3       1 <0>         0.0217
      2 O1          4.6756    4.0528    0.1639 O.3       1 <0>        -0.3003
      3 C2          3.5152    3.3616    0.0059 C.ar      1 <0>         0.1098
      4 C3          3.5383    1.9957   -0.0028 C.ar      1 <0>        -0.1477
      5 C4          2.3443    1.2832   -0.1653 C.ar      1 <0>        -0.1837
      6 C5          1.1206    1.9808   -0.3196 C.ar      1 <0>         0.2016
      7 C6          1.1203    3.3808   -0.3082 C.ar      1 <0>        -0.1840
      8 C7          2.3086    4.0585   -0.1467 C.ar      1 <0>         0.1635
      9 O2          2.3111    5.4169   -0.1348 O.3       1 <0>        -0.2974
     10 C8          1.0499    6.0695   -0.2949 C.3       1 <0>         0.0202
     11 N1         -0.0098    1.2734   -0.4732 N.ar      1 <0>        -0.5434
     12 C9          0.0220   -0.0380   -0.4799 C.ar      1 <0>         0.3427
     13 N2          1.1404   -0.7317   -0.3394 N.ar      1 <0>        -0.5810
     14 C10         2.3131   -0.1316   -0.1811 C.ar      1 <0>         0.4648
     15 N3          3.4716   -0.8676   -0.0362 N.pl3     1 <0>        -0.6397
     16 C11         3.4070   -2.2626    0.0621 C.ar      1 <0>         0.1431
     17 C12         2.3197   -2.8659    0.6805 C.ar      1 <0>        -0.0935
     18 C13         2.2541   -4.2422    0.7719 C.ar      1 <0>        -0.1240
     19 C14         3.2793   -5.0216    0.2565 C.ar      1 <0>         0.0901
     20 C15         4.3685   -4.4195   -0.3563 C.ar      1 <0>        -0.1245
     21 C16         4.4330   -3.0436   -0.4537 C.ar      1 <0>        -0.1309
     22 O3          3.2168   -6.3766    0.3523 O.3       1 <0>        -0.4987
     23 H1          6.7221    3.9583    0.4312 H         1 <0>         0.1069
     24 H2          5.7878    2.6500    1.1952 H         1 <0>         0.0573
     25 H3          6.0191    2.6651   -0.5696 H         1 <0>         0.0571
     26 H4          4.4732    1.4681    0.1156 H         1 <0>         0.1390
     27 H5          0.1951    3.9255   -0.4251 H         1 <0>         0.1561
     28 H6          1.1935    7.1496   -0.2668 H         1 <0>         0.1074
     29 H7          0.6131    5.7858   -1.2524 H         1 <0>         0.0622
     30 H8          0.3812    5.7707    0.5123 H         1 <0>         0.0622
     31 H9         -0.9060   -0.5758   -0.6060 H         1 <0>         0.1979
     32 H10         4.3306   -0.4182   -0.0024 H         1 <0>         0.4187
     33 H11         1.5238   -2.2590    1.0862 H         1 <0>         0.1419
     34 H12         1.4065   -4.7117    1.2488 H         1 <0>         0.1329
     35 H13         5.1664   -5.0271   -0.7570 H         1 <0>         0.1329
     36 H14         5.2809   -2.5750   -0.9311 H         1 <0>         0.1287
     37 H15         3.6164   -6.7328    1.1576 H         1 <0>         0.3899
@<TRIPOS>BOND
     1    1    2 1
     2    1   23 1
     3    1   24 1
     4    1   25 1
     5    2    3 1
     6    3    8 ar
     7    3    4 ar
     8    4    5 ar
     9    4   26 1
    10    5   14 ar
    11    5    6 ar
    12    6    7 ar
    13    6   11 ar
    14    7    8 ar
    15    7   27 1
    16    8    9 1
    17    9   10 1
    18   10   28 1
    19   10   29 1
    20   10   30 1
    21   11   12 ar
    22   12   13 ar
    23   12   31 1
    24   13   14 ar
    25   14   15 1
    26   15   16 1
    27   15   32 1
    28   16   21 ar
    29   16   17 ar
    30   17   18 ar
    31   17   33 1
    32   18   19 ar
    33   18   34 1
    34   19   20 ar
    35   19   22 1
    36   20   21 ar
    37   20   35 1
    38   21   36 1
    39   22   37 1
@<TRIPOS>MOLECULE
ZINC00016978
   36    38     0     0     0
SMALL
USER_CHARGES

@<TRIPOS>ATOM
      1 C1         -0.1077    7.8043   -0.3043 C.3       1 <0>         0.0213
      2 O1          1.1553    7.1532   -0.1529 O.3       1 <0>        -0.2997
      3 C2          1.1387    5.8027    0.0050 C.ar      1 <0>         0.1127
      4 C3         -0.0547    5.1381    0.0126 C.ar      1 <0>        -0.1498
      5 C4         -0.0730    3.7479    0.1756 C.ar      1 <0>        -0.1807
      6 C5          1.1438    3.0387    0.3316 C.ar      1 <0>         0.2015
      7 C6          2.3555    3.7401    0.3208 C.ar      1 <0>        -0.1836
      8 C7          2.3465    5.1079    0.1588 C.ar      1 <0>         0.1645
      9 O2          3.5207    5.7910    0.1475 O.3       1 <0>        -0.2967
     10 C8          4.7173    5.0267    0.3088 C.3       1 <0>         0.0198
     11 N1          1.0981    1.7061    0.4867 N.ar      1 <0>        -0.5395
     12 C9         -0.0526    1.0764    0.4931 C.ar      1 <0>         0.3425
     13 N2         -1.2130    1.6959    0.3460 N.ar      1 <0>        -0.5817
     14 C10        -1.2816    3.0117    0.1912 C.ar      1 <0>         0.4638
     15 N3         -2.4991    3.6452    0.0437 N.pl3     1 <0>        -0.6386
     16 C11        -3.6729    2.8905   -0.0548 C.ar      1 <0>         0.1586
     17 C12        -3.6501    1.6464   -0.6722 C.ar      1 <0>        -0.0781
     18 C13        -4.8088    0.9005   -0.7643 C.ar      1 <0>        -0.1189
     19 C14        -5.9954    1.3962   -0.2511 C.ar      1 <0>         0.0951
     20 C15        -6.0222    2.6392    0.3606 C.ar      1 <0>        -0.0539
     21 C16        -4.8635    3.3866    0.4595 C.ar      1 <0>        -0.1144
     22 Cl1        -7.5113    3.2580    1.0036 Cl        1 <0>        -0.0424
     23 F1         -7.1286    0.6668   -0.3466 F         1 <0>        -0.1253
     24 H1          0.0480    8.8767   -0.4213 H         1 <0>         0.1075
     25 H2         -0.6150    7.4125   -1.1859 H         1 <0>         0.0578
     26 H3         -0.7195    7.6202    0.5788 H         1 <0>         0.0576
     27 H4         -0.9797    5.6826   -0.1070 H         1 <0>         0.1396
     28 H5          3.2905    3.2125    0.4383 H         1 <0>         0.1568
     29 H6          4.6901    4.5069    1.2665 H         1 <0>         0.0625
     30 H7          4.7946    4.2980   -0.4981 H         1 <0>         0.0626
     31 H8          5.5801    5.6924    0.2811 H         1 <0>         0.1078
     32 H9         -0.0529    0.0039    0.6197 H         1 <0>         0.1993
     33 H10        -2.5408    4.6137    0.0082 H         1 <0>         0.4219
     34 H11        -2.7259    1.2610   -1.0767 H         1 <0>         0.1541
     35 H12        -4.7901   -0.0685   -1.2408 H         1 <0>         0.1508
     36 H13        -4.8843    4.3556    0.9360 H         1 <0>         0.1453
@<TRIPOS>BOND
     1    1    2 1
     2    1   24 1
     3    1   25 1
     4    1   26 1
     5    2    3 1
     6    3    8 ar
     7    3    4 ar
     8    4    5 ar
     9    4   27 1
    10    5   14 ar
    11    5    6 ar
    12    6    7 ar
    13    6   11 ar
    14    7    8 ar
    15    7   28 1
    16    8    9 1
    17    9   10 1
    18   10   29 1
    19   10   30 1
    20   10   31 1
    21   11   12 ar
    22   12   13 ar
    23   12   32 1
    24   13   14 ar
    25   14   15 1
    26   15   16 1
    27   15   33 1
    28   16   21 ar
    29   16   17 ar
    30   17   18 ar
    31   17   34 1
    32   18   19 ar
    33   18   35 1
    34   19   20 ar
    35   19   23 1
    36   20   21 ar
    37   20   22 1
    38   21   36 1
@<TRIPOS>MOLECULE
ZINC00018522
   40    43     0     0     0
SMALL
USER_CHARGES

@<TRIPOS>ATOM
      1 C1          5.8710    3.2866    0.3147 C.3       1 <0>         0.0217
      2 O1          4.6746    4.0530    0.1628 O.3       1 <0>        -0.3010
      3 C2          3.5145    3.3616    0.0036 C.ar      1 <0>         0.1074
      4 C3          3.5379    1.9958   -0.0045 C.ar      1 <0>        -0.1457
      5 C4          2.3443    1.2830   -0.1688 C.ar      1 <0>        -0.1855
      6 C5          1.1208    1.9803   -0.3257 C.ar      1 <0>         0.2018
      7 C6          1.1200    3.3803   -0.3134 C.ar      1 <0>        -0.1848
      8 C7          2.3080    4.0582   -0.1507 C.ar      1 <0>         0.1628
      9 O2          2.3102    5.4167   -0.1392 O.3       1 <0>        -0.2979
     10 C8          1.0491    6.0689   -0.3012 C.3       1 <0>         0.0204
     11 N1         -0.0093    1.2726   -0.4809 N.ar      1 <0>        -0.5471
     12 C9          0.0227   -0.0388   -0.4867 C.ar      1 <0>         0.3429
     13 N2          1.1410   -0.7322   -0.3441 N.ar      1 <0>        -0.5816
     14 C10         2.3133   -0.1319   -0.1841 C.ar      1 <0>         0.4676
     15 N3          3.4716   -0.8676   -0.0362 N.pl3     1 <0>        -0.6366
     16 C11         3.4070   -2.2628    0.0626 C.ar      1 <0>         0.1279
     17 C12         2.3140   -2.8655    0.6841 C.ar      1 <0>        -0.0844
     18 C13         2.2324   -4.2358    0.7839 C.ar      1 <0>        -0.1111
     19 C14         3.2520   -5.0328    0.2732 C.ar      1 <0>         0.0848
     20 C15         4.3589   -4.4287   -0.3493 C.ar      1 <0>        -0.0904
     21 C16         4.4298   -3.0378   -0.4512 C.ar      1 <0>        -0.1024
     22 C17         5.2356   -5.5245   -0.7699 C.2       1 <0>        -0.2086
     23 C18         4.6406   -6.6688   -0.3977 C.2       1 <0>         0.0554
     24 N4          3.4545   -6.3961    0.2270 N.pl3     1 <0>        -0.5971
     25 H1          2.8464   -7.0623    0.5838 H         1 <0>         0.4161
     26 H2          5.7858    2.6508    1.1960 H         1 <0>         0.0573
     27 H3          6.0192    2.6653   -0.5685 H         1 <0>         0.0571
     28 H4          6.7208    3.9590    0.4327 H         1 <0>         0.1063
     29 H5          4.4727    1.4684    0.1155 H         1 <0>         0.1390
     30 H6          0.1947    3.9248   -0.4309 H         1 <0>         0.1552
     31 H7          0.3794    5.7704    0.5054 H         1 <0>         0.0619
     32 H8          1.1925    7.1491   -0.2733 H         1 <0>         0.1067
     33 H9          0.6135    5.7849   -1.2591 H         1 <0>         0.0619
     34 H10        -0.9051   -0.5768   -0.6138 H         1 <0>         0.1963
     35 H11         4.3304   -0.4181   -0.0007 H         1 <0>         0.4174
     36 H12         1.5218   -2.2516    1.0865 H         1 <0>         0.1407
     37 H13         1.3793   -4.6923    1.2636 H         1 <0>         0.1241
     38 H14         5.2782   -2.5705   -0.9289 H         1 <0>         0.1242
     39 H15         6.1814   -5.4296   -1.2828 H         1 <0>         0.1462
     40 H16         5.0391   -7.6582   -0.5667 H         1 <0>         0.1709
@<TRIPOS>BOND
     1    1    2 1
     2    1   26 1
     3    1   27 1
     4    1   28 1
     5    2    3 1
     6    3    8 ar
     7    3    4 ar
     8    4    5 ar
     9    4   29 1
    10    5   14 ar
    11    5    6 ar
    12    6    7 ar
    13    6   11 ar
    14    7    8 ar
    15    7   30 1
    16    8    9 1
    17    9   10 1
    18   10   31 1
    19   10   32 1
    20   10   33 1
    21   11   12 ar
    22   12   13 ar
    23   12   34 1
    24   13   14 ar
    25   14   15 1
    26   15   16 1
    27   15   35 1
    28   16   21 ar
    29   16   17 ar
    30   17   18 ar
    31   17   36 1
    32   18   19 ar
    33   18   37 1
    34   19   24 1
    35   19   20 ar
    36   20   21 ar
    37   20   22 1
    38   21   38 1
    39   22   23 2
    40   22   39 1
    41   23   24 1
    42   23   40 1
    43   24   25 1
@<TRIPOS>MOLECULE
ZINC00020362
   32    34     0     0     0
SMALL
USER_CHARGES

@<TRIPOS>ATOM
      1 C1          7.0221    1.2902    1.0683 C.3       1 <0>         0.0901
      2 N1          5.7658    2.0111    0.8483 N.pl3     1 <0>        -0.7220
      3 C2          4.5909    1.3061    0.6252 C.ar      1 <0>         0.4147
      4 C3          4.6242   -0.0958    0.6130 C.ar      1 <0>        -0.1734
      5 C4          3.4781   -0.8011    0.3946 C.ar      1 <0>        -0.0210
      6 C5          2.2850   -0.0837    0.1862 C.ar      1 <0>         0.0956
      7 C6          2.3203    1.3294    0.2110 C.ar      1 <0>         0.0524
      8 N2          3.4690    1.9692    0.4290 N.ar      1 <0>        -0.5293
      9 C7          1.1044    2.0276   -0.0014 C.ar      1 <0>         0.4641
     10 N3          0.0030    1.3210   -0.2112 N.ar      1 <0>        -0.5645
     11 C8          0.0216   -0.0020   -0.2250 C.ar      1 <0>         0.3233
     12 N4          1.1164   -0.6999   -0.0347 N.ar      1 <0>        -0.5238
     13 N5          1.0690    3.4082    0.0097 N.pl3     1 <0>        -0.6276
     14 C9         -0.1550    4.0765   -0.0810 C.ar      1 <0>         0.1616
     15 C10        -1.2876    3.5395    0.5185 C.ar      1 <0>        -0.0962
     16 C11        -2.4956    4.2023    0.4277 C.ar      1 <0>        -0.0923
     17 C12        -2.5793    5.3999   -0.2587 C.ar      1 <0>        -0.1063
     18 C13        -1.4537    5.9379   -0.8570 C.ar      1 <0>        -0.0705
     19 C14        -0.2407    5.2818   -0.7656 C.ar      1 <0>        -0.1200
     20 Br1        -1.5735    7.5761   -1.7939 Br        1 <0>        -0.0461
     21 H1          6.9262    0.6530    1.9474 H         1 <0>         0.0600
     22 H2          7.2455    0.6752    0.1965 H         1 <0>         0.0600
     23 H3          7.8291    2.0059    1.2245 H         1 <0>         0.0839
     24 H4          5.7550    2.9809    0.8587 H         1 <0>         0.4092
     25 H5          5.5565   -0.6160    0.7764 H         1 <0>         0.1471
     26 H6          3.4853   -1.8810    0.3819 H         1 <0>         0.1554
     27 H7         -0.9040   -0.5301   -0.4009 H         1 <0>         0.2000
     28 H8          1.8937    3.9139    0.0804 H         1 <0>         0.4305
     29 H9         -1.2233    2.6042    1.0548 H         1 <0>         0.1400
     30 H10        -3.3760    3.7850    0.8936 H         1 <0>         0.1366
     31 H11        -3.5252    5.9166   -0.3276 H         1 <0>         0.1343
     32 H12         0.6387    5.7040   -1.2292 H         1 <0>         0.1343
@<TRIPOS>BOND
     1    1    2 1
     2    1   21 1
     3    1   22 1
     4    1   23 1
     5    2    3 1
     6    2   24 1
     7    3    8 ar
     8    3    4 ar
     9    4    5 ar
    10    4   25 1
    11    5    6 ar
    12    5   26 1
    13    6   12 ar
    14    6    7 ar
    15    7    8 ar
    16    7    9 ar
    17    9   10 ar
    18    9   13 1
    19   10   11 ar
    20   11   12 ar
    21   11   27 1
    22   13   14 1
    23   13   28 1
    24   14   19 ar
    25   14   15 ar
    26   15   16 ar
    27   15   29 1
    28   16   17 ar
    29   16   30 1
    30   17   18 ar
    31   17   31 1
    32   18   19 ar
    33   18   20 1
    34   19   32 1
@<TRIPOS>MOLECULE
ZINC00020363
   35    37     0     0     0
SMALL
USER_CHARGES

@<TRIPOS>ATOM
      1 C1          8.3109    6.2038   -0.2549 C.3       1 <0>         0.0868
      2 N1          7.0632    5.4430   -0.3573 N.pl3     1 <0>        -0.6099
      3 C2          7.0937    3.9786   -0.3292 C.3       1 <0>         0.0959
      4 C3          5.8519    6.1098   -0.4812 C.ar      1 <0>         0.4151
      5 C4          5.8508    7.4961   -0.6924 C.ar      1 <0>        -0.1762
      6 C5          4.6686    8.1641   -0.8153 C.ar      1 <0>        -0.0206
      7 C6          3.4741    7.4247   -0.7241 C.ar      1 <0>         0.0952
      8 C7          3.5452    6.0298   -0.5049 C.ar      1 <0>         0.0531
      9 N2          4.7284    5.4259   -0.3972 N.ar      1 <0>        -0.5266
     10 C8          2.3273    5.3080   -0.4225 C.ar      1 <0>         0.4634
     11 N3          1.1906    5.9782   -0.5453 N.ar      1 <0>        -0.5643
     12 C9          1.1765    7.2863   -0.7451 C.ar      1 <0>         0.3223
     13 N4          2.2715    8.0039   -0.8343 N.ar      1 <0>        -0.5233
     14 N5          2.3257    3.9428   -0.2138 N.pl3     1 <0>        -0.6271
     15 C10         1.1219    3.2333   -0.2402 C.ar      1 <0>         0.1617
     16 C11         0.0989    3.6294   -1.0929 C.ar      1 <0>        -0.0975
     17 C12        -1.0896    2.9268   -1.1166 C.ar      1 <0>        -0.0923
     18 C13        -1.2647    1.8327   -0.2890 C.ar      1 <0>        -0.1070
     19 C14        -0.2464    1.4321    0.5577 C.ar      1 <0>        -0.0702
     20 C15         0.9455    2.1311    0.5861 C.ar      1 <0>        -0.1211
     21 Br1        -0.4886   -0.0686    1.6826 Br        1 <0>        -0.0464
     22 H1          8.0877    7.2706   -0.2631 H         1 <0>         0.0806
     23 H2          8.8184    5.9459    0.6747 H         1 <0>         0.0652
     24 H3          8.9551    5.9608   -1.0999 H         1 <0>         0.0637
     25 H4          7.1961    3.5977   -1.3453 H         1 <0>         0.0512
     26 H5          7.9398    3.6443    0.2712 H         1 <0>         0.0676
     27 H6          6.1678    3.6042    0.1076 H         1 <0>         0.0789
     28 H7          6.7851    8.0339   -0.7579 H         1 <0>         0.1498
     29 H8          4.6490    9.2316   -0.9779 H         1 <0>         0.1554
     30 H9          0.2229    7.7846   -0.8384 H         1 <0>         0.1998
     31 H10         3.1601    3.4764   -0.0489 H         1 <0>         0.4299
     32 H11         0.2333    4.4859   -1.7369 H         1 <0>         0.1424
     33 H12        -1.8850    3.2347   -1.7791 H         1 <0>         0.1365
     34 H13        -2.1968    1.2875   -0.3066 H         1 <0>         0.1341
     35 H14         1.7386    1.8209    1.2503 H         1 <0>         0.1340
@<TRIPOS>BOND
     1    1    2 1
     2    1   22 1
     3    1   23 1
     4    1   24 1
     5    2    3 1
     6    2    4 1
     7    3   25 1
     8    3   26 1
     9    3   27 1
    10    4    9 ar
    11    4    5 ar
    12    5    6 ar
    13    5   28 1
    14    6    7 ar
    15    6   29 1
    16    7   13 ar
    17    7    8 ar
    18    8    9 ar
    19    8   10 ar
    20   10   11 ar
    21   10   14 1
    22   11   12 ar
    23   12   13 ar
    24   12   30 1
    25   14   15 1
    26   14   31 1
    27   15   20 ar
    28   15   16 ar
    29   16   17 ar
    30   16   32 1
    31   17   18 ar
    32   17   33 1
    33   18   19 ar
    34   18   34 1
    35   19   20 ar
    36   19   21 1
    37   20   35 1
@<TRIPOS>MOLECULE
ZINC00020368
   37    39     0     0     0
SMALL
USER_CHARGES

@<TRIPOS>ATOM
      1 C1         -4.9561    3.5634   -0.1463 C.3       1 <0>        -0.1712
      2 C2         -3.6060    2.9008   -0.0492 C.2       1 <0>         0.5008
      3 O1         -3.5224    1.6910   -0.0563 O.2       1 <0>        -0.4728
      4 N1         -2.4916    3.6528    0.0455 N.am      1 <0>        -0.6623
      5 C3         -1.2379    3.0454    0.0284 C.ar      1 <0>         0.3883
      6 C4         -0.1050    3.8369    0.0198 C.ar      1 <0>        -0.2129
      7 C5          1.1470    3.2105    0.0026 C.ar      1 <0>         0.2463
      8 C6          1.1877    1.7909   -0.0050 C.ar      1 <0>        -0.2874
      9 C7         -0.0123    1.0761    0.0043 C.ar      1 <0>         0.2156
     10 N2         -1.1599    1.7177    0.0148 N.ar      1 <0>        -0.4873
     11 C8          2.4539    1.1606   -0.0224 C.ar      1 <0>         0.5004
     12 N3          3.5353    1.9310   -0.0309 N.ar      1 <0>        -0.6059
     13 C9          3.4465    3.2512   -0.0237 C.ar      1 <0>         0.3751
     14 N4          2.2997    3.8910   -0.0072 N.ar      1 <0>        -0.5647
     15 N5          2.5620   -0.2125   -0.0307 N.pl3     1 <0>        -0.6868
     16 C10         3.8842   -0.8431   -0.0486 C.3       1 <0>         0.1685
     17 C11         3.7260   -2.3417   -0.0546 C.ar      1 <0>        -0.1191
     18 C12         3.6724   -3.0359    1.1396 C.ar      1 <0>        -0.0981
     19 C13         3.5219   -4.4100    1.1342 C.ar      1 <0>        -0.1216
     20 C14         3.4361   -5.0912   -0.0656 C.ar      1 <0>        -0.1076
     21 C15         3.4954   -4.3976   -1.2600 C.ar      1 <0>        -0.1216
     22 C16         3.6401   -3.0229   -1.2545 C.ar      1 <0>        -0.0982
     23 H1         -5.2023    3.7346   -1.1942 H         1 <0>         0.0990
     24 H2         -5.7107    2.9181    0.3035 H         1 <0>         0.0993
     25 H3         -4.9318    4.5167    0.3817 H         1 <0>         0.0833
     26 H4         -2.5624    4.6169    0.1255 H         1 <0>         0.4214
     27 H5         -0.1836    4.9140    0.0265 H         1 <0>         0.1511
     28 H6          0.0025   -0.0038   -0.0018 H         1 <0>         0.1626
     29 H7          4.3589    3.8290   -0.0313 H         1 <0>         0.1984
     30 H8          1.7627   -0.7620   -0.0246 H         1 <0>         0.4138
     31 H9          4.4234   -0.5311   -0.9431 H         1 <0>         0.0839
     32 H10         4.4432   -0.5403    0.8368 H         1 <0>         0.0839
     33 H11         3.7440   -2.5042    2.0769 H         1 <0>         0.1247
     34 H12         3.4752   -4.9518    2.0673 H         1 <0>         0.1257
     35 H13         3.3223   -6.1651   -0.0699 H         1 <0>         0.1249
     36 H14         3.4283   -4.9298   -2.1973 H         1 <0>         0.1257
     37 H15         3.6865   -2.4810   -2.1875 H         1 <0>         0.1247
@<TRIPOS>BOND
     1    1    2 1
     2    1   23 1
     3    1   24 1
     4    1   25 1
     5    2    3 2
     6    2    4 am
     7    4    5 1
     8    4   26 1
     9    5   10 ar
    10    5    6 ar
    11    6    7 ar
    12    6   27 1
    13    7   14 ar
    14    7    8 ar
    15    8    9 ar
    16    8   11 ar
    17    9   10 ar
    18    9   28 1
    19   11   12 ar
    20   11   15 1
    21   12   13 ar
    22   13   14 ar
    23   13   29 1
    24   15   16 1
    25   15   30 1
    26   16   17 1
    27   16   31 1
    28   16   32 1
    29   17   22 ar
    30   17   18 ar
    31   18   19 ar
    32   18   33 1
    33   19   20 ar
    34   19   34 1
    35   20   21 ar
    36   20   35 1
    37   21   22 ar
    38   21   36 1
    39   22   37 1
@<TRIPOS>MOLECULE
ZINC00020644
   32    34     0     0     0
SMALL
USER_CHARGES

@<TRIPOS>ATOM
      1 C1          4.3515   -1.6234    0.1546 C.3       1 <0>        -0.0843
      2 C2          3.7504   -0.2549   -0.0373 C.2       1 <0>        -0.1401
      3 C3          4.4171    0.9083   -0.1179 C.2       1 <0>         0.0742
      4 N1          3.5316    1.9403   -0.2923 N.pl3     1 <0>        -0.5646
      5 H1          3.7765    2.8750   -0.3777 H         1 <0>         0.4227
      6 C4          2.2520    1.4583   -0.3288 C.ar      1 <0>         0.3472
      7 C5          2.3299    0.0620   -0.1708 C.ar      1 <0>        -0.2471
      8 C6          1.1408   -0.6828   -0.1722 C.ar      1 <0>         0.4775
      9 N2         -0.0102   -0.0336   -0.3233 N.ar      1 <0>        -0.5839
     10 C7         -0.0377    1.2788   -0.4686 C.ar      1 <0>         0.3580
     11 N3          1.0515    2.0167   -0.4733 N.ar      1 <0>        -0.5612
     12 N4          1.1649   -2.0584   -0.0197 N.pl3     1 <0>        -0.6452
     13 C8         -0.0327   -2.7700    0.0939 C.ar      1 <0>         0.1635
     14 C9         -0.1266   -4.0603   -0.4129 C.ar      1 <0>        -0.1373
     15 C10        -1.3109   -4.7612   -0.2988 C.ar      1 <0>        -0.0913
     16 C11        -2.4033   -4.1805    0.3192 C.ar      1 <0>        -0.1109
     17 C12        -2.3136   -2.8960    0.8255 C.ar      1 <0>        -0.0697
     18 C13        -1.1295   -2.1910    0.7187 C.ar      1 <0>        -0.0874
     19 Br1        -3.8101   -2.1068    1.6701 Br        1 <0>        -0.0462
     20 C14         5.9142    1.0568   -0.0304 C.3       1 <0>        -0.0923
     21 H2          4.5673   -2.0651   -0.8183 H         1 <0>         0.0713
     22 H3          5.2748   -1.5377    0.7275 H         1 <0>         0.0744
     23 H4          3.6472   -2.2573    0.6932 H         1 <0>         0.0590
     24 H5         -0.9936    1.7659   -0.5931 H         1 <0>         0.2029
     25 H6          2.0129   -2.5285    0.0082 H         1 <0>         0.4212
     26 H7          0.7258   -4.5145   -0.8960 H         1 <0>         0.1303
     27 H8         -1.3840   -5.7643   -0.6924 H         1 <0>         0.1360
     28 H9         -3.3284   -4.7309    0.4070 H         1 <0>         0.1334
     29 H10        -1.0585   -1.1898    1.1173 H         1 <0>         0.1479
     30 H11         6.3458    0.9814   -1.0284 H         1 <0>         0.0814
     31 H12         6.1585    2.0286    0.3987 H         1 <0>         0.0720
     32 H13         6.3212    0.2678    0.6020 H         1 <0>         0.0887
@<TRIPOS>BOND
     1    1    2 1
     2    1   21 1
     3    1   22 1
     4    1   23 1
     5    2    7 1
     6    2    3 2
     7    3    4 1
     8    3   20 1
     9    4    5 1
    10    4    6 1
    11    6   11 ar
    12    6    7 ar
    13    7    8 ar
    14    8    9 ar
    15    8   12 1
    16    9   10 ar
    17   10   11 ar
    18   10   24 1
    19   12   13 1
    20   12   25 1
    21   13   18 ar
    22   13   14 ar
    23   14   15 ar
    24   14   26 1
    25   15   16 ar
    26   15   27 1
    27   16   17 ar
    28   16   28 1
    29   17   18 ar
    30   17   19 1
    31   18   29 1
    32   20   30 1
    33   20   31 1
    34   20   32 1
@<TRIPOS>MOLECULE
ZINC00020645
   36    39     0     0     0
SMALL
USER_CHARGES

@<TRIPOS>ATOM
      1 C1          3.5645   -0.8444    0.3436 C.ar      1 <0>        -0.0858
      2 C2          2.3658   -0.1686    0.4645 C.ar      1 <0>        -0.1077
      3 C3          1.2163   -0.6859   -0.1187 C.ar      1 <0>         0.1718
      4 C4          1.2746   -1.8850   -0.8175 C.ar      1 <0>        -0.1439
      5 C5          2.4778   -2.5538   -0.9394 C.ar      1 <0>        -0.0138
      6 C6          3.6213   -2.0350   -0.3567 C.ar      1 <0>        -0.1280
      7 Cl1         2.5538   -4.0495   -1.8174 Cl        1 <0>        -0.0668
      8 N1          0.0021   -0.0041    0.0020 N.pl3     1 <0>        -0.6457
      9 C7         -0.0166    1.3800    0.0110 C.ar      1 <0>         0.4797
     10 C8         -1.2084    2.0812    0.2528 C.ar      1 <0>        -0.2421
     11 C9         -2.5874    1.7146    0.5430 C.2       1 <0>        -0.1347
     12 C10        -3.2814    2.8602    0.6876 C.2       1 <0>         0.0743
     13 N2         -2.4425    3.9278    0.5152 N.pl3     1 <0>        -0.5614
     14 H1         -2.7089    4.8588    0.5706 H         1 <0>         0.4221
     15 C11        -1.1723    3.4894    0.2538 C.ar      1 <0>         0.3449
     16 N3         -0.0109    4.0969    0.0169 N.ar      1 <0>        -0.5615
     17 C12         1.0803    3.3980   -0.2084 C.ar      1 <0>         0.3563
     18 N4          1.0927    2.0772   -0.2145 N.ar      1 <0>        -0.5838
     19 C13        -4.7606    2.9113    0.9926 C.3       1 <0>        -0.0548
     20 C14        -5.3690    1.5382    0.6872 C.3       1 <0>        -0.1152
     21 C15        -4.5370    0.4473    1.3675 C.3       1 <0>        -0.1198
     22 C16        -3.1783    0.3338    0.6652 C.3       1 <0>        -0.0539
     23 H2          4.4584   -0.4423    0.7971 H         1 <0>         0.1361
     24 H3          2.3226    0.7614    1.0118 H         1 <0>         0.1401
     25 H4          0.3815   -2.2923   -1.2681 H         1 <0>         0.1339
     26 H5          4.5597   -2.5616   -0.4490 H         1 <0>         0.1341
     27 H6         -0.8275   -0.5008    0.0795 H         1 <0>         0.4208
     28 H7          2.0039    3.9256   -0.3957 H         1 <0>         0.2026
     29 H8         -4.9092    3.1513    2.0454 H         1 <0>         0.0857
     30 H9         -5.2367    3.6694    0.3708 H         1 <0>         0.0814
     31 H10        -5.3719    1.3738   -0.3903 H         1 <0>         0.0702
     32 H11        -6.3916    1.5024    1.0628 H         1 <0>         0.0768
     33 H12        -5.0619   -0.5056    1.3005 H         1 <0>         0.0732
     34 H13        -4.3844    0.7058    2.4154 H         1 <0>         0.0682
     35 H14        -3.3138   -0.0958   -0.3273 H         1 <0>         0.0759
     36 H15        -2.5134   -0.2984    1.2537 H         1 <0>         0.0710
@<TRIPOS>BOND
     1    1    6 ar
     2    1    2 ar
     3    1   23 1
     4    2    3 ar
     5    2   24 1
     6    3    4 ar
     7    3    8 1
     8    4    5 ar
     9    4   25 1
    10    5    6 ar
    11    5    7 1
    12    6   26 1
    13    8    9 1
    14    8   27 1
    15    9   18 ar
    16    9   10 ar
    17   10   15 ar
    18   10   11 1
    19   11   22 1
    20   11   12 2
    21   12   13 1
    22   12   19 1
    23   13   14 1
    24   13   15 1
    25   15   16 ar
    26   16   17 ar
    27   17   18 ar
    28   17   28 1
    29   19   20 1
    30   19   29 1
    31   19   30 1
    32   20   21 1
    33   20   31 1
    34   20   32 1
    35   21   22 1
    36   21   33 1
    37   21   34 1
    38   22   35 1
    39   22   36 1
@<TRIPOS>MOLECULE
ZINC00021592
   37    40     0     0     0
SMALL
USER_CHARGES

@<TRIPOS>ATOM
      1 C1         -0.0268    1.0823    0.1357 C.ar      1 <0>        -0.1328
      2 C2          0.9025    1.7936    0.8724 C.ar      1 <0>        -0.0995
      3 C3          0.8922    3.1745    0.8511 C.ar      1 <0>        -0.1476
      4 C4         -0.0603    3.8488    0.0978 C.ar      1 <0>         0.1464
      5 C5         -0.9959    3.1312   -0.6365 C.ar      1 <0>        -0.1090
      6 C6         -0.9764    1.7505   -0.6153 C.ar      1 <0>        -0.0999
      7 N1         -0.0775    5.2465    0.0789 N.pl3     1 <0>        -0.6421
      8 C7         -1.2769    5.9212   -0.0505 C.ar      1 <0>         0.5118
      9 C8         -1.3062    7.3200   -0.1785 C.ar      1 <0>        -0.3424
     10 C9         -2.5554    7.9573   -0.3117 C.ar      1 <0>         0.3988
     11 N2         -2.3069    9.2917   -0.4231 N.pl3     1 <0>        -0.4755
     12 H1         -3.0019   10.0017   -0.5363 H         1 <0>         0.4572
     13 N3         -0.9274    9.5140   -0.3544 N.2       1 <0>        -0.2849
     14 C10        -0.2982    8.3752   -0.2161 C.2       1 <0>         0.3775
     15 N4          1.0844    8.2010   -0.1213 N.pl3     1 <0>        -0.6400
     16 C11         1.9259    9.3143   -0.0574 C.ar      1 <0>         0.1631
     17 C12         3.2396    9.2205   -0.4997 C.ar      1 <0>        -0.1575
     18 C13         4.0671   10.3245   -0.4400 C.ar      1 <0>        -0.0906
     19 C14         3.5926   11.5195    0.0691 C.ar      1 <0>        -0.1433
     20 C15         2.2871   11.6149    0.5155 C.ar      1 <0>        -0.0893
     21 C16         1.4526   10.5164    0.4539 C.ar      1 <0>        -0.1412
     22 N5         -3.6587    7.2091   -0.3014 N.ar      1 <0>        -0.5709
     23 C17        -3.5821    5.9027   -0.1745 C.ar      1 <0>         0.3908
     24 N6         -2.4323    5.2633   -0.0515 N.ar      1 <0>        -0.5918
     25 H2         -0.0137    0.0025    0.1506 H         1 <0>         0.1239
     26 H3          1.6400    1.2688    1.4615 H         1 <0>         0.1267
     27 H4          1.6208    3.7295    1.4234 H         1 <0>         0.1232
     28 H5         -1.7380    3.6524   -1.2230 H         1 <0>         0.1388
     29 H6         -1.7038    1.1919   -1.1857 H         1 <0>         0.1268
     30 H7          0.7522    5.7428    0.1567 H         1 <0>         0.4108
     31 H8          1.4603    7.3071   -0.0999 H         1 <0>         0.4127
     32 H9          3.6121    8.2863   -0.8933 H         1 <0>         0.1246
     33 H10         5.0872   10.2533   -0.7874 H         1 <0>         0.1272
     34 H11         4.2431   12.3802    0.1185 H         1 <0>         0.1239
     35 H12         1.9200   12.5495    0.9132 H         1 <0>         0.1260
     36 H13         0.4334   10.5915    0.8030 H         1 <0>         0.1391
     37 H14        -4.4968    5.3285   -0.1703 H         1 <0>         0.2090
@<TRIPOS>BOND
     1    1    6 ar
     2    1    2 ar
     3    1   25 1
     4    2    3 ar
     5    2   26 1
     6    3    4 ar
     7    3   27 1
     8    4    5 ar
     9    4    7 1
    10    5    6 ar
    11    5   28 1
    12    6   29 1
    13    7    8 1
    14    7   30 1
    15    8   24 ar
    16    8    9 ar
    17    9   14 1
    18    9   10 ar
    19   10   11 1
    20   10   22 ar
    21   11   12 1
    22   11   13 1
    23   13   14 2
    24   14   15 1
    25   15   16 1
    26   15   31 1
    27   16   21 ar
    28   16   17 ar
    29   17   18 ar
    30   17   32 1
    31   18   19 ar
    32   18   33 1
    33   19   20 ar
    34   19   34 1
    35   20   21 ar
    36   20   35 1
    37   21   36 1
    38   22   23 ar
    39   23   24 ar
    40   23   37 1
@<TRIPOS>MOLECULE
ZINC00023489
   29    31     0     0     0
SMALL
USER_CHARGES

@<TRIPOS>ATOM
      1 C1          5.7243   -1.5218   -0.9838 C.ar      1 <0>        -0.1033
      2 C2          4.5856   -0.7417   -0.9748 C.ar      1 <0>        -0.0839
      3 C3          3.5826   -0.9875   -0.0388 C.ar      1 <0>        -0.0127
      4 C4          3.7309   -2.0273    0.8774 C.ar      1 <0>        -0.1046
      5 C5          4.8722   -2.8047    0.8563 C.ar      1 <0>        -0.0331
      6 C6          5.8674   -2.5521   -0.0727 C.ar      1 <0>        -0.1059
      7 Cl1         5.0591   -4.1008    1.9960 Cl        1 <0>        -0.0656
      8 C7          2.3592   -0.1494   -0.0217 C.2       1 <0>        -0.2469
      9 C8          1.1282   -0.7219   -0.0126 C.2       1 <0>         0.1382
     10 O1          0.0021   -0.0041    0.0020 O.3       1 <0>        -0.2154
     11 C9         -0.0162    1.3440    0.0094 C.ar      1 <0>         0.1802
     12 C10        -1.2210    2.0320    0.0304 C.ar      1 <0>        -0.1828
     13 C11        -1.2303    3.4176    0.0313 C.ar      1 <0>         0.1942
     14 C12        -0.0392    4.1360    0.0238 C.ar      1 <0>        -0.2048
     15 C13         1.1719    3.4700    0.0091 C.ar      1 <0>         0.2200
     16 C14         1.1887    2.0689    0.0018 C.ar      1 <0>        -0.2636
     17 C15         2.4559    1.3211   -0.0147 C.2       1 <0>         0.4308
     18 O2          3.5338    1.8906   -0.0219 O.2       1 <0>        -0.4364
     19 O3          2.3358    4.1677    0.0012 O.3       1 <0>        -0.4724
     20 O4         -2.4145    4.0811    0.0458 O.3       1 <0>        -0.4873
     21 H1          6.5034   -1.3296   -1.7067 H         1 <0>         0.1366
     22 H2          4.4736    0.0602   -1.6894 H         1 <0>         0.1297
     23 H3          2.9552   -2.2245    1.6024 H         1 <0>         0.1347
     24 H4          6.7585   -3.1623   -0.0860 H         1 <0>         0.1360
     25 H5          1.0569   -1.7995   -0.0177 H         1 <0>         0.2055
     26 H6         -2.1531    1.4866    0.0403 H         1 <0>         0.1545
     27 H7         -0.0607    5.2157    0.0291 H         1 <0>         0.1507
     28 H8          2.6645    4.3744   -0.8844 H         1 <0>         0.4032
     29 H9         -2.7659    4.2778   -0.8334 H         1 <0>         0.4045
@<TRIPOS>BOND
     1    1    6 ar
     2    1    2 ar
     3    1   21 1
     4    2    3 ar
     5    2   22 1
     6    3    4 ar
     7    3    8 1
     8    4    5 ar
     9    4   23 1
    10    5    6 ar
    11    5    7 1
    12    6   24 1
    13    8   17 1
    14    8    9 2
    15    9   10 1
    16    9   25 1
    17   10   11 1
    18   11   16 ar
    19   11   12 ar
    20   12   13 ar
    21   12   26 1
    22   13   14 ar
    23   13   20 1
    24   14   15 ar
    25   14   27 1
    26   15   16 ar
    27   15   19 1
    28   16   17 1
    29   17   18 2
    30   19   28 1
    31   20   29 1
@<TRIPOS>MOLECULE
ZINC00104621
   31    33     0     0     0
SMALL
USER_CHARGES

@<TRIPOS>ATOM
      1 C1         -2.3117    3.4078   -1.4699 C.3       1 <0>        -0.1155
      2 C2         -1.1239    2.9155   -0.6839 C.ar      1 <0>        -0.0666
      3 C3         -1.2189    1.7493    0.0536 C.ar      1 <0>        -0.1343
      4 C4         -0.1330    1.2967    0.7801 C.ar      1 <0>        -0.0961
      5 C5          1.0540    2.0028    0.7630 C.ar      1 <0>        -0.1158
      6 C6          1.1544    3.1715    0.0193 C.ar      1 <0>         0.1524
      7 C7          0.0597    3.6263   -0.7052 C.ar      1 <0>        -0.1482
      8 N1          2.3543    3.8883   -0.0005 N.pl3     1 <0>        -0.6380
      9 C8          3.5581    3.2206    0.0886 C.ar      1 <0>         0.4662
     10 C9          4.7790    3.9318    0.1880 C.ar      1 <0>        -0.1920
     11 C10         4.8267    5.3301    0.1998 C.ar      1 <0>        -0.0744
     12 C11         6.0324    5.9603    0.2971 C.ar      1 <0>        -0.1285
     13 C12         7.2150    5.2312    0.3846 C.ar      1 <0>        -0.0737
     14 C13         7.2024    3.8681    0.3756 C.ar      1 <0>        -0.1076
     15 C14         5.9809    3.1881    0.2769 C.ar      1 <0>         0.1868
     16 N2          5.9124    1.8485    0.2633 N.ar      1 <0>        -0.5463
     17 C15         4.7526    1.2428    0.1693 C.ar      1 <0>         0.3442
     18 N3          3.6037    1.8950    0.0891 N.ar      1 <0>        -0.5814
     19 H1         -2.2856    2.9816   -2.4728 H         1 <0>         0.0720
     20 H2         -3.2306    3.1026   -0.9692 H         1 <0>         0.0688
     21 H3         -2.2781    4.4953   -1.5362 H         1 <0>         0.0661
     22 H4         -2.1446    1.1931    0.0653 H         1 <0>         0.1232
     23 H5         -0.2116    0.3877    1.3579 H         1 <0>         0.1264
     24 H6          1.9030    1.6467    1.3277 H         1 <0>         0.1365
     25 H7          0.1346    4.5345   -1.2849 H         1 <0>         0.1232
     26 H8          2.3404    4.8551   -0.0768 H         1 <0>         0.4203
     27 H9          3.9156    5.9061    0.1329 H         1 <0>         0.1257
     28 H10         6.0701    7.0396    0.3063 H         1 <0>         0.1323
     29 H11         8.1572    5.7536    0.4604 H         1 <0>         0.1352
     30 H12         8.1279    3.3156    0.4439 H         1 <0>         0.1418
     31 H13         4.7341    0.1630    0.1611 H         1 <0>         0.1974
@<TRIPOS>BOND
     1    1    2 1
     2    1   19 1
     3    1   20 1
     4    1   21 1
     5    2    7 ar
     6    2    3 ar
     7    3    4 ar
     8    3   22 1
     9    4    5 ar
    10    4   23 1
    11    5    6 ar
    12    5   24 1
    13    6    7 ar
    14    6    8 1
    15    7   25 1
    16    8    9 1
    17    8   26 1
    18    9   18 ar
    19    9   10 ar
    20   10   15 ar
    21   10   11 ar
    22   11   12 ar
    23   11   27 1
    24   12   13 ar
    25   12   28 1
    26   13   14 ar
    27   13   29 1
    28   14   15 ar
    29   14   30 1
    30   15   16 ar
    31   16   17 ar
    32   17   18 ar
    33   17   31 1
@<TRIPOS>MOLECULE
ZINC00104782
   32    34     0     0     0
SMALL
USER_CHARGES

@<TRIPOS>ATOM
      1 C1         -1.2337   -0.4416   -2.2031 C.3       1 <0>         0.0271
      2 O1          0.0134    0.2333   -2.0262 O.3       1 <0>        -0.3145
      3 C2          0.0095    1.3403   -1.2380 C.ar      1 <0>         0.1470
      4 C3         -1.1705    1.7649   -0.6428 C.ar      1 <0>        -0.2220
      5 C4         -1.1773    2.8935    0.1543 C.ar      1 <0>        -0.0595
      6 C5         -0.0080    3.5967    0.3708 C.ar      1 <0>        -0.1824
      7 C6          1.1771    3.1735   -0.2180 C.ar      1 <0>         0.1890
      8 C7          1.1845    2.0430   -1.0238 C.ar      1 <0>        -0.1434
      9 N1          2.3603    3.8848    0.0008 N.pl3     1 <0>        -0.6383
     10 C8          3.5622    3.2135    0.0894 C.ar      1 <0>         0.4650
     11 C9          4.7852    3.9211    0.1892 C.ar      1 <0>        -0.1909
     12 C10         4.8368    5.3193    0.2025 C.ar      1 <0>        -0.0746
     13 C11         6.0444    5.9459    0.2997 C.ar      1 <0>        -0.1281
     14 C12         7.2249    5.2133    0.3866 C.ar      1 <0>        -0.0741
     15 C13         7.2084    3.8503    0.3763 C.ar      1 <0>        -0.1071
     16 C14         5.9849    3.1739    0.2771 C.ar      1 <0>         0.1865
     17 N2          5.9125    1.8345    0.2622 N.ar      1 <0>        -0.5450
     18 C15         4.7510    1.2322    0.1678 C.ar      1 <0>         0.3451
     19 N3          3.6039    1.8878    0.0890 N.ar      1 <0>        -0.5781
     20 H1         -1.6081   -0.7730   -1.2346 H         1 <0>         0.0568
     21 H2         -1.9538    0.2389   -2.6575 H         1 <0>         0.0561
     22 H3         -1.0905   -1.3054   -2.8522 H         1 <0>         0.1012
     23 H4         -2.0854    1.2148   -0.8065 H         1 <0>         0.1296
     24 H5         -2.0977    3.2241    0.6126 H         1 <0>         0.1303
     25 H6         -0.0151    4.4760    0.9978 H         1 <0>         0.1265
     26 H7          2.1044    1.7116   -1.4825 H         1 <0>         0.1421
     27 H8          2.3362    4.8503    0.0905 H         1 <0>         0.4227
     28 H9          3.9274    5.8980    0.1357 H         1 <0>         0.1262
     29 H10         6.0852    7.0251    0.3093 H         1 <0>         0.1323
     30 H11         8.1686    5.7330    0.4631 H         1 <0>         0.1352
     31 H12         8.1323    3.2951    0.4437 H         1 <0>         0.1417
     32 H13         4.7294    0.1525    0.1586 H         1 <0>         0.1976
@<TRIPOS>BOND
     1    1    2 1
     2    1   20 1
     3    1   21 1
     4    1   22 1
     5    2    3 1
     6    3    8 ar
     7    3    4 ar
     8    4    5 ar
     9    4   23 1
    10    5    6 ar
    11    5   24 1
    12    6    7 ar
    13    6   25 1
    14    7    8 ar
    15    7    9 1
    16    8   26 1
    17    9   10 1
    18    9   27 1
    19   10   19 ar
    20   10   11 ar
    21   11   16 ar
    22   11   12 ar
    23   12   13 ar
    24   12   28 1
    25   13   14 ar
    26   13   29 1
    27   14   15 ar
    28   14   30 1
    29   15   16 ar
    30   15   31 1
    31   16   17 ar
    32   17   18 ar
    33   18   19 ar
    34   18   32 1
@<TRIPOS>MOLECULE
ZINC00109589
   31    33     0     0     0
SMALL
USER_CHARGES

@<TRIPOS>ATOM
      1 C1          1.9252    8.3882    0.0266 C.ar      1 <0>        -0.1088
      2 C2          2.0395    7.6988    1.2193 C.ar      1 <0>        -0.1217
      3 C3          2.2453    6.3319    1.2105 C.ar      1 <0>        -0.0991
      4 C4          2.3372    5.6544    0.0091 C.ar      1 <0>        -0.1169
      5 C5          2.2286    6.3447   -1.1837 C.ar      1 <0>        -0.0990
      6 C6          2.0171    7.7108   -1.1749 C.ar      1 <0>        -0.1217
      7 C7          2.5620    4.1643   -0.0005 C.3       1 <0>         0.1698
      8 N1          1.2691    3.4754    0.0081 N.pl3     1 <0>        -0.6925
      9 C8          1.2222    2.0977    0.0017 C.ar      1 <0>         0.4741
     10 C9         -0.0171    1.4118    0.0098 C.ar      1 <0>        -0.1986
     11 C10        -1.2418    2.0883    0.0308 C.ar      1 <0>        -0.0706
     12 C11        -2.4037    1.3741    0.0333 C.ar      1 <0>        -0.1343
     13 C12        -2.3871   -0.0179    0.0257 C.ar      1 <0>        -0.0743
     14 C13        -1.2107   -0.7064    0.0103 C.ar      1 <0>        -0.1106
     15 C14         0.0021   -0.0041    0.0020 C.ar      1 <0>         0.1875
     16 N2          1.1872   -0.6324   -0.0127 N.ar      1 <0>        -0.5556
     17 C15         2.3043    0.0549   -0.0196 C.ar      1 <0>         0.3496
     18 N3          2.3361    1.3782   -0.0128 N.ar      1 <0>        -0.5982
     19 H1          1.7637    9.4560    0.0335 H         1 <0>         0.1248
     20 H2          1.9677    8.2280    2.1580 H         1 <0>         0.1256
     21 H3          2.3346    5.7932    2.1424 H         1 <0>         0.1244
     22 H4          2.3048    5.8161   -2.1224 H         1 <0>         0.1244
     23 H5          1.9274    8.2493   -2.1067 H         1 <0>         0.1256
     24 H6          3.1325    3.8773    0.8827 H         1 <0>         0.0811
     25 H7          3.1159    3.8862   -0.8971 H         1 <0>         0.0812
     26 H8          0.4461    3.9886    0.0184 H         1 <0>         0.4121
     27 H9         -1.2668    3.1680    0.0369 H         1 <0>         0.1241
     28 H10        -3.3494    1.8955    0.0455 H         1 <0>         0.1301
     29 H11        -3.3207   -0.5607    0.0324 H         1 <0>         0.1333
     30 H12        -1.2132   -1.7864    0.0048 H         1 <0>         0.1399
     31 H13         3.2407   -0.4832   -0.0318 H         1 <0>         0.1946
@<TRIPOS>BOND
     1    1    6 ar
     2    1    2 ar
     3    1   19 1
     4    2    3 ar
     5    2   20 1
     6    3    4 ar
     7    3   21 1
     8    4    5 ar
     9    4    7 1
    10    5    6 ar
    11    5   22 1
    12    6   23 1
    13    7    8 1
    14    7   24 1
    15    7   25 1
    16    8    9 1
    17    8   26 1
    18    9   18 ar
    19    9   10 ar
    20   10   15 ar
    21   10   11 ar
    22   11   12 ar
    23   11   27 1
    24   12   13 ar
    25   12   28 1
    26   13   14 ar
    27   13   29 1
    28   14   15 ar
    29   14   30 1
    30   15   16 ar
    31   16   17 ar
    32   17   18 ar
    33   17   31 1
@<TRIPOS>MOLECULE
ZINC00116727
   36    38     0     0     0
SMALL
USER_CHARGES

@<TRIPOS>ATOM
      1 C1         -4.6770    0.4787    0.7932 C.3       1 <0>         0.0217
      2 O1         -4.4927   -0.9267    0.6119 O.3       1 <0>        -0.3004
      3 C2         -3.2323   -1.3528    0.3304 C.ar      1 <0>         0.1094
      4 C3         -2.2176   -0.4433    0.2345 C.ar      1 <0>        -0.1474
      5 C4         -0.9198   -0.8808   -0.0558 C.ar      1 <0>        -0.1842
      6 C5         -0.6661   -2.2616   -0.2481 C.ar      1 <0>         0.2014
      7 C6         -1.7211   -3.1762   -0.1446 C.ar      1 <0>        -0.1841
      8 C7         -2.9890   -2.7203    0.1415 C.ar      1 <0>         0.1634
      9 O2         -4.0145   -3.6055    0.2420 O.3       1 <0>        -0.2974
     10 C8         -3.7029   -4.9852    0.0390 C.3       1 <0>         0.0202
     11 N1          0.5870   -2.6544   -0.5259 N.ar      1 <0>        -0.5440
     12 C9          1.5552   -1.7740   -0.6165 C.ar      1 <0>         0.3423
     13 N2          1.3647   -0.4749   -0.4497 N.ar      1 <0>        -0.5801
     14 C10         0.1666    0.0194   -0.1666 C.ar      1 <0>         0.4651
     15 N3         -0.0166    1.3763    0.0096 N.pl3     1 <0>        -0.6402
     16 C11         1.0855    2.2360    0.0115 C.ar      1 <0>         0.1503
     17 C12         2.3067    1.8010    0.5105 C.ar      1 <0>        -0.1107
     18 C13         3.3952    2.6511    0.5056 C.ar      1 <0>        -0.0999
     19 C14         3.2675    3.9376    0.0146 C.ar      1 <0>        -0.1347
     20 C15         2.0516    4.3758   -0.4772 C.ar      1 <0>        -0.0999
     21 C16         0.9606    3.5290   -0.4805 C.ar      1 <0>        -0.1488
     22 H1         -4.3869    1.0036   -0.1169 H         1 <0>         0.0570
     23 H2         -5.7253    0.6824    1.0117 H         1 <0>         0.1069
     24 H3         -4.0596    0.8220    1.6233 H         1 <0>         0.0573
     25 H4         -2.4154    0.6081    0.3821 H         1 <0>         0.1389
     26 H5         -1.5422   -4.2315   -0.2884 H         1 <0>         0.1560
     27 H6         -2.9673   -5.3041    0.7774 H         1 <0>         0.0622
     28 H7         -4.6086   -5.5820    0.1471 H         1 <0>         0.1073
     29 H8         -3.2951   -5.1220   -0.9626 H         1 <0>         0.0621
     30 H9          2.5517   -2.1244   -0.8417 H         1 <0>         0.1976
     31 H10        -0.9106    1.7337    0.1281 H         1 <0>         0.4181
     32 H11         2.4060    0.7979    0.8982 H         1 <0>         0.1367
     33 H12         4.3461    2.3121    0.8893 H         1 <0>         0.1259
     34 H13         4.1192    4.6016    0.0157 H         1 <0>         0.1233
     35 H14         1.9552    5.3812   -0.8596 H         1 <0>         0.1260
     36 H15         0.0113    3.8719   -0.8648 H         1 <0>         0.1229
@<TRIPOS>BOND
     1    1    2 1
     2    1   22 1
     3    1   23 1
     4    1   24 1
     5    2    3 1
     6    3    8 ar
     7    3    4 ar
     8    4    5 ar
     9    4   25 1
    10    5   14 ar
    11    5    6 ar
    12    6    7 ar
    13    6   11 ar
    14    7    8 ar
    15    7   26 1
    16    8    9 1
    17    9   10 1
    18   10   27 1
    19   10   28 1
    20   10   29 1
    21   11   12 ar
    22   12   13 ar
    23   12   30 1
    24   13   14 ar
    25   14   15 1
    26   15   16 1
    27   15   31 1
    28   16   21 ar
    29   16   17 ar
    30   17   18 ar
    31   17   32 1
    32   18   19 ar
    33   18   33 1
    34   19   20 ar
    35   19   34 1
    36   20   21 ar
    37   20   35 1
    38   21   36 1
@<TRIPOS>MOLECULE
ZINC00116937
   36    38     0     0     0
SMALL
USER_CHARGES

@<TRIPOS>ATOM
      1 C1         -0.1079    7.8042   -0.3042 C.3       1 <0>         0.0215
      2 O1          1.1552    7.1532   -0.1529 O.3       1 <0>        -0.3000
      3 C2          1.1386    5.8027    0.0050 C.ar      1 <0>         0.1112
      4 C3         -0.0548    5.1381    0.0126 C.ar      1 <0>        -0.1487
      5 C4         -0.0731    3.7478    0.1756 C.ar      1 <0>        -0.1822
      6 C5          1.1438    3.0386    0.3315 C.ar      1 <0>         0.2015
      7 C6          2.3555    3.7401    0.3207 C.ar      1 <0>        -0.1835
      8 C7          2.3464    5.1079    0.1587 C.ar      1 <0>         0.1638
      9 O2          3.5206    5.7910    0.1478 O.3       1 <0>        -0.2971
     10 C8          4.7172    5.0268    0.3091 C.3       1 <0>         0.0200
     11 N1          1.0982    1.7061    0.4865 N.ar      1 <0>        -0.5409
     12 C9         -0.0526    1.0764    0.4930 C.ar      1 <0>         0.3431
     13 N2         -1.2129    1.6958    0.3459 N.ar      1 <0>        -0.5796
     14 C10        -1.2816    3.0116    0.1912 C.ar      1 <0>         0.4629
     15 N3         -2.4993    3.6452    0.0441 N.pl3     1 <0>        -0.6397
     16 C11        -3.6722    2.8912   -0.0543 C.ar      1 <0>         0.1657
     17 C12        -4.8637    3.3869    0.4605 C.ar      1 <0>        -0.1447
     18 C13        -6.0210    2.6402    0.3616 C.ar      1 <0>        -0.0853
     19 C14        -5.9957    1.3999   -0.2495 C.ar      1 <0>        -0.1266
     20 C15        -4.8109    0.9027   -0.7635 C.ar      1 <0>        -0.0144
     21 C16        -3.6500    1.6476   -0.6718 C.ar      1 <0>        -0.1050
     22 Cl1        -4.7840   -0.6546   -1.5303 Cl        1 <0>        -0.0633
     23 H1          0.0478    8.8767   -0.4212 H         1 <0>         0.1071
     24 H2         -0.6153    7.4124   -1.1858 H         1 <0>         0.0575
     25 H3         -0.7197    7.6201    0.5789 H         1 <0>         0.0572
     26 H4         -0.9799    5.6825   -0.1069 H         1 <0>         0.1392
     27 H5          3.2905    3.2125    0.4381 H         1 <0>         0.1564
     28 H6          4.6899    4.5066    1.2665 H         1 <0>         0.0623
     29 H7          4.7947    4.2984   -0.4981 H         1 <0>         0.0623
     30 H8          5.5799    5.6925    0.2817 H         1 <0>         0.1075
     31 H9         -0.0529    0.0038    0.6195 H         1 <0>         0.1984
     32 H10        -2.5410    4.6137    0.0090 H         1 <0>         0.4210
     33 H11        -4.8846    4.3554    0.9380 H         1 <0>         0.1308
     34 H12        -6.9472    3.0254    0.7618 H         1 <0>         0.1374
     35 H13        -6.9025    0.8183   -0.3261 H         1 <0>         0.1352
     36 H14        -2.7264    1.2614   -1.0769 H         1 <0>         0.1488
@<TRIPOS>BOND
     1    1    2 1
     2    1   23 1
     3    1   24 1
     4    1   25 1
     5    2    3 1
     6    3    8 ar
     7    3    4 ar
     8    4    5 ar
     9    4   26 1
    10    5   14 ar
    11    5    6 ar
    12    6    7 ar
    13    6   11 ar
    14    7    8 ar
    15    7   27 1
    16    8    9 1
    17    9   10 1
    18   10   28 1
    19   10   29 1
    20   10   30 1
    21   11   12 ar
    22   12   13 ar
    23   12   31 1
    24   13   14 ar
    25   14   15 1
    26   15   16 1
    27   15   32 1
    28   16   21 ar
    29   16   17 ar
    30   17   18 ar
    31   17   33 1
    32   18   19 ar
    33   18   34 1
    34   19   20 ar
    35   19   35 1
    36   20   21 ar
    37   20   22 1
    38   21   36 1
@<TRIPOS>MOLECULE
ZINC00118570
   28    30     0     0     0
SMALL
USER_CHARGES

@<TRIPOS>ATOM
      1 C1          7.0203    5.6369   -0.3506 C.ar      1 <0>        -0.1339
      2 C2          7.0800    4.3908    0.2462 C.ar      1 <0>        -0.1002
      3 C3          5.9382    3.6222    0.3593 C.ar      1 <0>        -0.1473
      4 C4          4.7289    4.1019   -0.1276 C.ar      1 <0>         0.1482
      5 C5          4.6736    5.3514   -0.7320 C.ar      1 <0>        -0.1106
      6 C6          5.8180    6.1174   -0.8364 C.ar      1 <0>        -0.1002
      7 N1          3.5713    3.3265   -0.0147 N.pl3     1 <0>        -0.6383
      8 C7          2.3467    3.9369    0.1604 C.ar      1 <0>         0.4659
      9 C8          1.1496    3.1797    0.1602 C.ar      1 <0>        -0.1920
     10 C9          1.1473    1.7916   -0.0156 C.ar      1 <0>        -0.0745
     11 C10        -0.0373    1.1155   -0.0070 C.ar      1 <0>        -0.1284
     12 C11        -1.2431    1.7884    0.1687 C.ar      1 <0>        -0.0737
     13 C12        -1.2742    3.1394    0.3484 C.ar      1 <0>        -0.1075
     14 C13        -0.0755    3.8655    0.3449 C.ar      1 <0>         0.1868
     15 N2         -0.0504    5.1964    0.5113 N.ar      1 <0>        -0.5461
     16 C14         1.0890    5.8464    0.5024 C.ar      1 <0>         0.3441
     17 N3          2.2579    5.2489    0.3339 N.ar      1 <0>        -0.5818
     18 H1          7.9146    6.2360   -0.4378 H         1 <0>         0.1237
     19 H2          8.0206    4.0185    0.6245 H         1 <0>         0.1264
     20 H3          5.9856    2.6492    0.8254 H         1 <0>         0.1236
     21 H4          3.7359    5.7253   -1.1156 H         1 <0>         0.1364
     22 H5          5.7748    7.0909   -1.3022 H         1 <0>         0.1261
     23 H6          3.6292    2.3593   -0.0595 H         1 <0>         0.4204
     24 H7          2.0764    1.2595   -0.1568 H         1 <0>         0.1258
     25 H8         -0.0400    0.0441   -0.1427 H         1 <0>         0.1323
     26 H9         -2.1682    1.2310    0.1669 H         1 <0>         0.1353
     27 H10        -2.2169    3.6475    0.4880 H         1 <0>         0.1418
     28 H11         1.0725    6.9176    0.6392 H         1 <0>         0.1975
@<TRIPOS>BOND
     1    1    6 ar
     2    1    2 ar
     3    1   18 1
     4    2    3 ar
     5    2   19 1
     6    3    4 ar
     7    3   20 1
     8    4    5 ar
     9    4    7 1
    10    5    6 ar
    11    5   21 1
    12    6   22 1
    13    7    8 1
    14    7   23 1
    15    8   17 ar
    16    8    9 ar
    17    9   14 ar
    18    9   10 ar
    19   10   11 ar
    20   10   24 1
    21   11   12 ar
    22   11   25 1
    23   12   13 ar
    24   12   26 1
    25   13   14 ar
    26   13   27 1
    27   14   15 ar
    28   15   16 ar
    29   16   17 ar
    30   16   28 1
@<TRIPOS>MOLECULE
ZINC00118581
   28    30     0     0     0
SMALL
USER_CHARGES

@<TRIPOS>ATOM
      1 C1         -0.0373    1.1156   -0.0069 C.ar      1 <0>        -0.1267
      2 C2         -1.2432    1.7885    0.1690 C.ar      1 <0>        -0.0734
      3 C3         -1.2744    3.1394    0.3489 C.ar      1 <0>        -0.1067
      4 C4         -0.0757    3.8657    0.3455 C.ar      1 <0>         0.1869
      5 C5          1.1497    3.1798    0.1605 C.ar      1 <0>        -0.1903
      6 C6          1.1472    1.7917   -0.0156 C.ar      1 <0>        -0.0753
      7 C7          2.3464    3.9368    0.1606 C.ar      1 <0>         0.4638
      8 N1          2.2575    5.2491    0.3340 N.ar      1 <0>        -0.5809
      9 C8          1.0890    5.8463    0.5031 C.ar      1 <0>         0.3449
     10 N2         -0.0507    5.1962    0.5120 N.ar      1 <0>        -0.5429
     11 N3          3.5711    3.3264   -0.0143 N.pl3     1 <0>        -0.6378
     12 C9          4.7286    4.1018   -0.1272 C.ar      1 <0>         0.1641
     13 C10         5.9381    3.6221    0.3603 C.ar      1 <0>        -0.1435
     14 C11         7.0802    4.3898    0.2471 C.ar      1 <0>        -0.0853
     15 C12         7.0219    5.6352   -0.3512 C.ar      1 <0>        -0.1260
     16 C13         5.8193    6.1164   -0.8384 C.ar      1 <0>        -0.0146
     17 C14         4.6733    5.3506   -0.7319 C.ar      1 <0>        -0.1051
     18 Cl1         5.7511    7.6799   -1.5897 Cl        1 <0>        -0.0630
     19 H1         -0.0401    0.0442   -0.1428 H         1 <0>         0.1328
     20 H2         -2.1682    1.2310    0.1672 H         1 <0>         0.1358
     21 H3         -2.2171    3.6474    0.4887 H         1 <0>         0.1423
     22 H4          2.0763    1.2595   -0.1570 H         1 <0>         0.1263
     23 H5          1.0725    6.9174    0.6405 H         1 <0>         0.1984
     24 H6          3.6289    2.3592   -0.0589 H         1 <0>         0.4233
     25 H7          5.9848    2.6496    0.8277 H         1 <0>         0.1315
     26 H8          8.0204    4.0170    0.6259 H         1 <0>         0.1378
     27 H9          7.9168    6.2334   -0.4388 H         1 <0>         0.1355
     28 H10         3.7355    5.7246   -1.1154 H         1 <0>         0.1482
@<TRIPOS>BOND
     1    1    6 ar
     2    1    2 ar
     3    1   19 1
     4    2    3 ar
     5    2   20 1
     6    3    4 ar
     7    3   21 1
     8    4   10 ar
     9    4    5 ar
    10    5    6 ar
    11    5    7 ar
    12    6   22 1
    13    7    8 ar
    14    7   11 1
    15    8    9 ar
    16    9   10 ar
    17    9   23 1
    18   11   12 1
    19   11   24 1
    20   12   17 ar
    21   12   13 ar
    22   13   14 ar
    23   13   25 1
    24   14   15 ar
    25   14   26 1
    26   15   16 ar
    27   15   27 1
    28   16   17 ar
    29   16   18 1
    30   17   28 1
@<TRIPOS>MOLECULE
ZINC00118594
   31    33     0     0     0
SMALL
USER_CHARGES

@<TRIPOS>ATOM
      1 C1         -0.0156    9.4578    0.3713 C.ar      1 <0>        -0.1257
      2 C2          1.2085   10.1140    0.4653 C.ar      1 <0>        -0.0727
      3 C3          2.3813    9.4194    0.4482 C.ar      1 <0>        -0.1066
      4 C4          2.3566    8.0227    0.3347 C.ar      1 <0>         0.1870
      5 C5          1.1100    7.3570    0.2395 C.ar      1 <0>        -0.1896
      6 C6         -0.0756    8.0998    0.2601 C.ar      1 <0>        -0.0757
      7 C7          1.1126    5.9456    0.1252 C.ar      1 <0>         0.4653
      8 N1          2.2823    5.3198    0.1182 N.ar      1 <0>        -0.5832
      9 C8          3.4227    5.9853    0.2047 C.ar      1 <0>         0.3441
     10 N2          3.4808    7.2916    0.3125 N.ar      1 <0>        -0.5421
     11 N3         -0.0691    5.2402    0.0295 N.pl3     1 <0>        -0.6385
     12 C9         -0.0510    3.8425    0.0345 C.ar      1 <0>         0.1535
     13 C10         0.9104    3.1613    0.7705 C.ar      1 <0>        -0.0794
     14 C11         0.9256    1.7805    0.7729 C.ar      1 <0>        -0.0980
     15 C12        -0.0145    1.0758    0.0432 C.ar      1 <0>        -0.0864
     16 C13        -0.9692    1.7506   -0.6949 C.ar      1 <0>        -0.1619
     17 C14        -0.9939    3.1317   -0.6968 C.ar      1 <0>        -0.0994
     18 C15        -1.9874    0.9786   -1.4938 C.3       1 <0>         0.5097
     19 F1         -1.7650   -0.3931   -1.3313 F         1 <0>        -0.1747
     20 F2         -3.2730    1.2990   -1.0446 F         1 <0>        -0.1762
     21 F3         -1.8694    1.3130   -2.8471 F         1 <0>        -0.1755
     22 H1         -0.9303   10.0319    0.3869 H         1 <0>         0.1333
     23 H2          1.2294   11.1903    0.5529 H         1 <0>         0.1362
     24 H3          3.3236    9.9421    0.5214 H         1 <0>         0.1427
     25 H4         -1.0311    7.6015    0.1878 H         1 <0>         0.1266
     26 H5          4.3475    5.4276    0.1904 H         1 <0>         0.1989
     27 H6         -0.9124    5.7141   -0.0413 H         1 <0>         0.4234
     28 H7          1.6448    3.7110    1.3405 H         1 <0>         0.1472
     29 H8          1.6727    1.2503    1.3448 H         1 <0>         0.1409
     30 H9         -0.0002   -0.0041    0.0465 H         1 <0>         0.1411
     31 H10        -1.7426    3.6582   -1.2700 H         1 <0>         0.1360
@<TRIPOS>BOND
     1    1    6 ar
     2    1    2 ar
     3    1   22 1
     4    2    3 ar
     5    2   23 1
     6    3    4 ar
     7    3   24 1
     8    4   10 ar
     9    4    5 ar
    10    5    6 ar
    11    5    7 ar
    12    6   25 1
    13    7    8 ar
    14    7   11 1
    15    8    9 ar
    16    9   10 ar
    17    9   26 1
    18   11   12 1
    19   11   27 1
    20   12   17 ar
    21   12   13 ar
    22   13   14 ar
    23   13   28 1
    24   14   15 ar
    25   14   29 1
    26   15   16 ar
    27   15   30 1
    28   16   17 ar
    29   16   18 1
    30   17   31 1
    31   18   19 1
    32   18   20 1
    33   18   21 1
@<TRIPOS>MOLECULE
ZINC00151212
   28    30     0     0     0
SMALL
USER_CHARGES

@<TRIPOS>ATOM
      1 C1         -0.0373    1.1157   -0.0070 C.ar      1 <0>        -0.1264
      2 C2         -1.2432    1.7885    0.1691 C.ar      1 <0>        -0.0733
      3 C3         -1.2744    3.1395    0.3482 C.ar      1 <0>        -0.1065
      4 C4         -0.0758    3.8658    0.3448 C.ar      1 <0>         0.1866
      5 C5          1.1496    3.1799    0.1601 C.ar      1 <0>        -0.1900
      6 C6          1.1472    1.7917   -0.0156 C.ar      1 <0>        -0.0754
      7 C7          2.3464    3.9369    0.1602 C.ar      1 <0>         0.4637
      8 N1          2.2575    5.2491    0.3332 N.ar      1 <0>        -0.5812
      9 C8          1.0889    5.8465    0.5021 C.ar      1 <0>         0.3444
     10 N2         -0.0507    5.1963    0.5110 N.ar      1 <0>        -0.5425
     11 N3          3.5711    3.3264   -0.0143 N.pl3     1 <0>        -0.6379
     12 C9          4.7287    4.1017   -0.1272 C.ar      1 <0>         0.1812
     13 C10         5.9380    3.6220    0.3607 C.ar      1 <0>        -0.1583
     14 C11         7.0806    4.3892    0.2477 C.ar      1 <0>        -0.0685
     15 C12         7.0234    5.6344   -0.3507 C.ar      1 <0>        -0.1695
     16 C13         5.8203    6.1164   -0.8389 C.ar      1 <0>         0.1208
     17 C14         4.6733    5.3502   -0.7323 C.ar      1 <0>        -0.1499
     18 F1          5.7676    7.3332   -1.4235 F         1 <0>        -0.1351
     19 H1         -0.0402    0.0443   -0.1429 H         1 <0>         0.1330
     20 H2         -2.1682    1.2309    0.1680 H         1 <0>         0.1360
     21 H3         -2.2172    3.6476    0.4878 H         1 <0>         0.1424
     22 H4          2.0763    1.2595   -0.1568 H         1 <0>         0.1266
     23 H5          1.0725    6.9176    0.6392 H         1 <0>         0.1986
     24 H6          3.6289    2.3592   -0.0587 H         1 <0>         0.4239
     25 H7          5.9842    2.6496    0.8284 H         1 <0>         0.1321
     26 H8          8.0203    4.0160    0.6271 H         1 <0>         0.1386
     27 H9          7.9187    6.2321   -0.4380 H         1 <0>         0.1375
     28 H10         3.7356    5.7240   -1.1162 H         1 <0>         0.1492
@<TRIPOS>BOND
     1    1    6 ar
     2    1    2 ar
     3    1   19 1
     4    2    3 ar
     5    2   20 1
     6    3    4 ar
     7    3   21 1
     8    4   10 ar
     9    4    5 ar
    10    5    6 ar
    11    5    7 ar
    12    6   22 1
    13    7    8 ar
    14    7   11 1
    15    8    9 ar
    16    9   10 ar
    17    9   23 1
    18   11   12 1
    19   11   24 1
    20   12   17 ar
    21   12   13 ar
    22   13   14 ar
    23   13   25 1
    24   14   15 ar
    25   14   26 1
    26   15   16 ar
    27   15   27 1
    28   16   17 ar
    29   16   18 1
    30   17   28 1
@<TRIPOS>MOLECULE
ZINC00151213
   28    30     0     0     0
SMALL
USER_CHARGES

@<TRIPOS>ATOM
      1 C1         -0.0373    1.1156   -0.0069 C.ar      1 <0>        -0.1267
      2 C2         -1.2432    1.7885    0.1689 C.ar      1 <0>        -0.0734
      3 C3         -1.2744    3.1394    0.3488 C.ar      1 <0>        -0.1066
      4 C4         -0.0757    3.8657    0.3454 C.ar      1 <0>         0.1870
      5 C5          1.1497    3.1798    0.1604 C.ar      1 <0>        -0.1901
      6 C6          1.1472    1.7917   -0.0156 C.ar      1 <0>        -0.0754
      7 C7          2.3464    3.9368    0.1606 C.ar      1 <0>         0.4637
      8 N1          2.2575    5.2491    0.3339 N.ar      1 <0>        -0.5813
      9 C8          1.0890    5.8463    0.5030 C.ar      1 <0>         0.3451
     10 N2         -0.0507    5.1962    0.5119 N.ar      1 <0>        -0.5427
     11 N3          3.5711    3.3264   -0.0143 N.pl3     1 <0>        -0.6379
     12 C9          4.7286    4.1017   -0.1272 C.ar      1 <0>         0.1573
     13 C10         5.9381    3.6221    0.3603 C.ar      1 <0>        -0.1326
     14 C11         7.0801    4.3900    0.2470 C.ar      1 <0>        -0.0919
     15 C12         7.0215    5.6356   -0.3510 C.ar      1 <0>        -0.1064
     16 C13         5.8190    6.1167   -0.8376 C.ar      1 <0>        -0.0708
     17 C14         4.6734    5.3506   -0.7319 C.ar      1 <0>        -0.0847
     18 Br1         5.7442    7.8203   -1.6549 Br        1 <0>        -0.0432
     19 H1         -0.0401    0.0442   -0.1428 H         1 <0>         0.1328
     20 H2         -2.1682    1.2310    0.1671 H         1 <0>         0.1357
     21 H3         -2.2172    3.6475    0.4882 H         1 <0>         0.1423
     22 H4          2.0763    1.2595   -0.1570 H         1 <0>         0.1262
     23 H5          1.0725    6.9174    0.6403 H         1 <0>         0.1984
     24 H6          3.6289    2.3592   -0.0589 H         1 <0>         0.4230
     25 H7          5.9849    2.6496    0.8277 H         1 <0>         0.1318
     26 H8          8.0204    4.0172    0.6254 H         1 <0>         0.1375
     27 H9          7.9163    6.2339   -0.4386 H         1 <0>         0.1350
     28 H10         3.7356    5.7246   -1.1155 H         1 <0>         0.1480
@<TRIPOS>BOND
     1    1    6 ar
     2    1    2 ar
     3    1   19 1
     4    2    3 ar
     5    2   20 1
     6    3    4 ar
     7    3   21 1
     8    4   10 ar
     9    4    5 ar
    10    5    6 ar
    11    5    7 ar
    12    6   22 1
    13    7    8 ar
    14    7   11 1
    15    8    9 ar
    16    9   10 ar
    17    9   23 1
    18   11   12 1
    19   11   24 1
    20   12   17 ar
    21   12   13 ar
    22   13   14 ar
    23   13   25 1
    24   14   15 ar
    25   14   26 1
    26   15   16 ar
    27   15   27 1
    28   16   17 ar
    29   16   18 1
    30   17   28 1
@<TRIPOS>MOLECULE
ZINC00151214
   28    30     0     0     0
SMALL
USER_CHARGES

@<TRIPOS>ATOM
      1 C1         -0.0373    1.1156   -0.0070 C.ar      1 <0>        -0.1268
      2 C2         -1.2432    1.7884    0.1687 C.ar      1 <0>        -0.0734
      3 C3         -1.2745    3.1395    0.3475 C.ar      1 <0>        -0.1066
      4 C4         -0.0758    3.8658    0.3440 C.ar      1 <0>         0.1870
      5 C5          1.1496    3.1799    0.1598 C.ar      1 <0>        -0.1902
      6 C6          1.1472    1.7916   -0.0157 C.ar      1 <0>        -0.0753
      7 C7          2.3464    3.9369    0.1599 C.ar      1 <0>         0.4639
      8 N1          2.2574    5.2492    0.3329 N.ar      1 <0>        -0.5815
      9 C8          1.0888    5.8465    0.5010 C.ar      1 <0>         0.3451
     10 N2         -0.0508    5.1964    0.5099 N.ar      1 <0>        -0.5427
     11 N3          3.5711    3.3264   -0.0143 N.pl3     1 <0>        -0.6381
     12 C9          4.7287    4.1017   -0.1272 C.ar      1 <0>         0.1551
     13 C10         5.9380    3.6223    0.3605 C.ar      1 <0>        -0.1294
     14 C11         7.0800    4.3903    0.2471 C.ar      1 <0>        -0.0935
     15 C12         7.0212    5.6355   -0.3517 C.ar      1 <0>        -0.1009
     16 C13         5.8191    6.1159   -0.8389 C.ar      1 <0>        -0.0810
     17 C14         4.6735    5.3505   -0.7324 C.ar      1 <0>        -0.0790
     18 I1          5.7364    8.0027   -1.7457 I         1 <0>        -0.0352
     19 H1         -0.0401    0.0441   -0.1427 H         1 <0>         0.1327
     20 H2         -2.1682    1.2309    0.1672 H         1 <0>         0.1357
     21 H3         -2.2173    3.6476    0.4867 H         1 <0>         0.1423
     22 H4          2.0764    1.2594   -0.1565 H         1 <0>         0.1261
     23 H5          1.0723    6.9178    0.6375 H         1 <0>         0.1980
     24 H6          3.6290    2.3592   -0.0584 H         1 <0>         0.4228
     25 H7          5.9848    2.6500    0.8283 H         1 <0>         0.1314
     26 H8          8.0202    4.0179    0.6262 H         1 <0>         0.1366
     27 H9          7.9160    6.2340   -0.4395 H         1 <0>         0.1313
     28 H10         3.7359    5.7242   -1.1166 H         1 <0>         0.1456
@<TRIPOS>BOND
     1    1    6 ar
     2    1    2 ar
     3    1   19 1
     4    2    3 ar
     5    2   20 1
     6    3    4 ar
     7    3   21 1
     8    4   10 ar
     9    4    5 ar
    10    5    6 ar
    11    5    7 ar
    12    6   22 1
    13    7    8 ar
    14    7   11 1
    15    8    9 ar
    16    9   10 ar
    17    9   23 1
    18   11   12 1
    19   11   24 1
    20   12   17 ar
    21   12   13 ar
    22   13   14 ar
    23   13   25 1
    24   14   15 ar
    25   14   26 1
    26   15   16 ar
    27   15   27 1
    28   16   17 ar
    29   16   18 1
    30   17   28 1
@<TRIPOS>MOLECULE
ZINC00327021
   35    38     0     0     0
SMALL
USER_CHARGES

@<TRIPOS>ATOM
      1 C1         -0.0167    1.3781    0.0096 C.ar      1 <0>        -0.1097
      2 C2          1.1709    2.0855    0.0021 C.ar      1 <0>        -0.1219
      3 C3          2.3773    1.4107   -0.0141 C.ar      1 <0>        -0.0998
      4 C4          2.3960    0.0285   -0.0217 C.ar      1 <0>        -0.1150
      5 C5          1.2084   -0.6789   -0.0136 C.ar      1 <0>        -0.0998
      6 C6          0.0021   -0.0041    0.0020 C.ar      1 <0>        -0.1219
      7 C7          3.7112   -0.7071   -0.0392 C.3       1 <0>         0.1749
      8 N1          4.1233   -0.9376   -1.4260 N.pl3     1 <0>        -0.7109
      9 C8          5.3102   -1.6016   -1.6953 C.ar      1 <0>         0.4482
     10 C9          5.7176   -1.8295   -3.0168 C.ar      1 <0>        -0.0241
     11 C10         6.9263   -2.5056   -3.2245 C.ar      1 <0>         0.1703
     12 C11         7.1027   -2.6043   -4.6817 C.ar      1 <0>        -0.1109
     13 C12         8.0924   -3.1571   -5.4936 C.ar      1 <0>        -0.0354
     14 C13         7.9710   -3.0884   -6.8636 C.ar      1 <0>        -0.1566
     15 C14         6.8689   -2.4718   -7.4381 C.ar      1 <0>        -0.0666
     16 C15         5.8831   -1.9217   -6.6491 C.ar      1 <0>        -0.1500
     17 C16         5.9868   -1.9800   -5.2618 C.ar      1 <0>         0.1605
     18 N2          5.1684   -1.5222   -4.2472 N.pl3     1 <0>        -0.5977
     19 H1          4.3297   -1.0530   -4.3794 H         1 <0>         0.4167
     20 N3          7.6396   -2.9042   -2.1714 N.ar      1 <0>        -0.5187
     21 C17         7.2169   -2.6673   -0.9484 C.ar      1 <0>         0.3162
     22 N4          6.0864   -2.0294   -0.7057 N.ar      1 <0>        -0.5588
     23 H2         -0.9592    1.9054    0.0170 H         1 <0>         0.1246
     24 H3          1.1563    3.1654    0.0081 H         1 <0>         0.1252
     25 H4          3.3051    1.9634   -0.0207 H         1 <0>         0.1240
     26 H5          1.2231   -1.7587   -0.0199 H         1 <0>         0.1240
     27 H6         -0.9258   -0.5567    0.0079 H         1 <0>         0.1252
     28 H7          4.4679   -0.1107    0.4703 H         1 <0>         0.0783
     29 H8          3.5990   -1.6641    0.4703 H         1 <0>         0.0782
     30 H9          3.5657   -0.6257   -2.1559 H         1 <0>         0.4063
     31 H10         8.9513   -3.6380   -5.0494 H         1 <0>         0.1327
     32 H11         8.7367   -3.5165   -7.4935 H         1 <0>         0.1312
     33 H12         6.7830   -2.4232   -8.5136 H         1 <0>         0.1327
     34 H13         5.0290   -1.4447   -7.1067 H         1 <0>         0.1275
     35 H14         7.8166   -3.0021   -0.1150 H         1 <0>         0.2011
@<TRIPOS>BOND
     1    1    6 ar
     2    1    2 ar
     3    1   23 1
     4    2    3 ar
     5    2   24 1
     6    3    4 ar
     7    3   25 1
     8    4    5 ar
     9    4    7 1
    10    5    6 ar
    11    5   26 1
    12    6   27 1
    13    7    8 1
    14    7   28 1
    15    7   29 1
    16    8    9 1
    17    8   30 1
    18    9   22 ar
    19    9   10 ar
    20   10   18 1
    21   10   11 ar
    22   11   12 1
    23   11   20 ar
    24   12   17 ar
    25   12   13 ar
    26   13   14 ar
    27   13   31 1
    28   14   15 ar
    29   14   32 1
    30   15   16 ar
    31   15   33 1
    32   16   17 ar
    33   16   34 1
    34   17   18 1
    35   18   19 1
    36   20   21 ar
    37   21   22 ar
    38   21   35 1
@<TRIPOS>MOLECULE
ZINC00600292
   36    38     0     0     0
SMALL
USER_CHARGES

@<TRIPOS>ATOM
      1 C1         -0.1078    7.8042   -0.3033 C.3       1 <0>         0.0216
      2 O1          1.1552    7.1532   -0.1517 O.3       1 <0>        -0.3000
      3 C2          1.1386    5.8027    0.0065 C.ar      1 <0>         0.1112
      4 C3         -0.0548    5.1381    0.0140 C.ar      1 <0>        -0.1487
      5 C4         -0.0731    3.7477    0.1768 C.ar      1 <0>        -0.1821
      6 C5          1.1438    3.0386    0.3325 C.ar      1 <0>         0.2016
      7 C6          2.3555    3.7400    0.3217 C.ar      1 <0>        -0.1835
      8 C7          2.3464    5.1079    0.1604 C.ar      1 <0>         0.1638
      9 O2          3.5205    5.7911    0.1500 O.3       1 <0>        -0.2971
     10 C8          4.7172    5.0269    0.3114 C.3       1 <0>         0.0200
     11 N1          1.0981    1.7060    0.4872 N.ar      1 <0>        -0.5409
     12 C9         -0.0526    1.0763    0.4937 C.ar      1 <0>         0.3434
     13 N2         -1.2129    1.6957    0.3464 N.ar      1 <0>        -0.5800
     14 C10        -1.2816    3.0116    0.1923 C.ar      1 <0>         0.4629
     15 N3         -2.4993    3.6452    0.0450 N.pl3     1 <0>        -0.6399
     16 C11        -3.6722    2.8912   -0.0533 C.ar      1 <0>         0.1589
     17 C12        -4.8637    3.3868    0.4615 C.ar      1 <0>        -0.1338
     18 C13        -6.0209    2.6400    0.3625 C.ar      1 <0>        -0.0918
     19 C14        -5.9953    1.3995   -0.2484 C.ar      1 <0>        -0.1070
     20 C15        -4.8108    0.9028   -0.7627 C.ar      1 <0>        -0.0706
     21 C16        -3.6501    1.6476   -0.6710 C.ar      1 <0>        -0.0846
     22 Br1        -4.7812   -0.7937   -1.5975 Br        1 <0>        -0.0436
     23 H1          0.0479    8.8766   -0.4204 H         1 <0>         0.1071
     24 H2         -0.6151    7.4123   -1.1848 H         1 <0>         0.0575
     25 H3         -0.7197    7.6202    0.5798 H         1 <0>         0.0572
     26 H4         -0.9799    5.6826   -0.1054 H         1 <0>         0.1391
     27 H5          3.2905    3.2124    0.4389 H         1 <0>         0.1565
     28 H6          4.6896    4.5065    1.2688 H         1 <0>         0.0623
     29 H7          4.7949    4.2986   -0.4958 H         1 <0>         0.0624
     30 H8          5.5799    5.6926    0.2845 H         1 <0>         0.1076
     31 H9         -0.0529    0.0038    0.6204 H         1 <0>         0.1985
     32 H10        -2.5410    4.6137    0.0098 H         1 <0>         0.4207
     33 H11        -4.8847    4.3553    0.9390 H         1 <0>         0.1311
     34 H12        -6.9473    3.0252    0.7623 H         1 <0>         0.1371
     35 H13        -6.9018    0.8175   -0.3244 H         1 <0>         0.1346
     36 H14        -2.7263    1.2613   -1.0758 H         1 <0>         0.1486
@<TRIPOS>BOND
     1    1    2 1
     2    1   23 1
     3    1   24 1
     4    1   25 1
     5    2    3 1
     6    3    8 ar
     7    3    4 ar
     8    4    5 ar
     9    4   26 1
    10    5   14 ar
    11    5    6 ar
    12    6    7 ar
    13    6   11 ar
    14    7    8 ar
    15    7   27 1
    16    8    9 1
    17    9   10 1
    18   10   28 1
    19   10   29 1
    20   10   30 1
    21   11   12 ar
    22   12   13 ar
    23   12   31 1
    24   13   14 ar
    25   14   15 1
    26   15   16 1
    27   15   32 1
    28   16   21 ar
    29   16   17 ar
    30   17   18 ar
    31   17   33 1
    32   18   19 ar
    33   18   34 1
    34   19   20 ar
    35   19   35 1
    36   20   21 ar
    37   20   22 1
    38   21   36 1
@<TRIPOS>MOLECULE
ZINC00600430
   40    43     0     0     0
SMALL
USER_CHARGES

@<TRIPOS>ATOM
      1 C1          3.6562    5.0514   -1.8671 C.ar      1 <0>        -0.1534
      2 C2          4.0289    5.3863   -3.1540 C.ar      1 <0>        -0.1065
      3 C3          4.9329    6.4131   -3.3692 C.ar      1 <0>         0.0526
      4 C4          5.4608    7.1101   -2.2953 C.ar      1 <0>        -0.1073
      5 C5          5.0867    6.7824   -1.0069 C.ar      1 <0>        -0.1529
      6 C6          4.1800    5.7529   -0.7887 C.ar      1 <0>         0.1853
      7 N1          3.7998    5.4194    0.5147 N.pl3     1 <0>        -0.6937
      8 C7          2.9987    4.3014    0.7427 C.ar      1 <0>         0.0937
      9 C8          1.6566    4.4655    1.0683 C.ar      1 <0>         0.0032
     10 C9          0.8625    3.3522    1.2949 C.ar      1 <0>        -0.1860
     11 C10         1.4171    2.0570    1.1947 C.ar      1 <0>        -0.0911
     12 C11         2.7554    1.8994    0.8698 C.ar      1 <0>        -0.1091
     13 C12         3.5473    3.0201    0.6436 C.ar      1 <0>         0.2280
     14 N2          4.8937    2.8645    0.3166 N.pl3     1 <0>        -0.6616
     15 C13         5.4839    1.5983    0.3691 C.ar      1 <0>         0.1398
     16 C14         5.1996    0.7414    1.4249 C.ar      1 <0>        -0.1210
     17 C15         5.7795   -0.5111    1.4715 C.ar      1 <0>        -0.1254
     18 C16         6.6526   -0.9088    0.4730 C.ar      1 <0>         0.0871
     19 C17         6.9420   -0.0541   -0.5775 C.ar      1 <0>        -0.1257
     20 C18         6.3601    1.1972   -0.6314 C.ar      1 <0>        -0.1119
     21 F1          7.2226   -2.1326    0.5234 F         1 <0>        -0.1358
     22 C19         0.3148    1.1224    1.4926 C.2       1 <0>         0.5778
     23 O1          0.3970   -0.0896    1.5061 O.2       1 <0>        -0.4571
     24 N3         -0.7976    1.8366    1.7411 N.am      1 <0>        -0.6794
     25 C20        -0.5563    3.1568    1.6500 C.2       1 <0>         0.5825
     26 O2         -1.3713    4.0404    1.8260 O.2       1 <0>        -0.4639
     27 F2          5.3000    6.7356   -4.6287 F         1 <0>        -0.1420
     28 H1          2.9548    4.2474   -1.6996 H         1 <0>         0.1300
     29 H2          3.6185    4.8442   -3.9931 H         1 <0>         0.1364
     30 H3          6.1654    7.9107   -2.4655 H         1 <0>         0.1382
     31 H4          5.4984    7.3265   -0.1697 H         1 <0>         0.1351
     32 H5          4.0933    5.9659    1.2604 H         1 <0>         0.4151
     33 H6          1.2347    5.4568    1.1447 H         1 <0>         0.1493
     34 H7          3.1816    0.9101    0.7927 H         1 <0>         0.1547
     35 H8          5.4208    3.6348    0.0527 H         1 <0>         0.4192
     36 H9          4.5224    1.0530    2.2064 H         1 <0>         0.1402
     37 H10         5.5553   -1.1794    2.2898 H         1 <0>         0.1434
     38 H11         7.6229   -0.3665   -1.3553 H         1 <0>         0.1426
     39 H12         6.5858    1.8633   -1.4511 H         1 <0>         0.1379
     40 H13        -1.6600    1.4504    1.9598 H         1 <0>         0.4316
@<TRIPOS>BOND
     1    1    6 ar
     2    1    2 ar
     3    1   28 1
     4    2    3 ar
     5    2   29 1
     6    3    4 ar
     7    3   27 1
     8    4    5 ar
     9    4   30 1
    10    5    6 ar
    11    5   31 1
    12    6    7 1
    13    7    8 1
    14    7   32 1
    15    8   13 ar
    16    8    9 ar
    17    9   10 ar
    18    9   33 1
    19   10   25 1
    20   10   11 ar
    21   11   12 ar
    22   11   22 1
    23   12   13 ar
    24   12   34 1
    25   13   14 1
    26   14   15 1
    27   14   35 1
    28   15   20 ar
    29   15   16 ar
    30   16   17 ar
    31   16   36 1
    32   17   18 ar
    33   17   37 1
    34   18   19 ar
    35   18   21 1
    36   19   20 ar
    37   19   38 1
    38   20   39 1
    39   22   23 2
    40   22   24 am
    41   24   25 am
    42   24   40 1
    43   25   26 2
@<TRIPOS>MOLECULE
ZINC00601499
   34    36     0     0     0
SMALL
USER_CHARGES

@<TRIPOS>ATOM
      1 C1          3.8137   -6.0939   -0.2664 C.3       1 <0>        -0.1697
      2 C2          3.7273   -4.5941   -0.1471 C.2       1 <0>         0.5014
      3 O1          4.7383   -3.9368   -0.0179 O.2       1 <0>        -0.4726
      4 N1          2.5265   -3.9832   -0.1840 N.am      1 <0>        -0.6614
      5 C3          2.4523   -2.5921   -0.1788 C.ar      1 <0>         0.3904
      6 C4          1.2215   -1.9816   -0.3294 C.ar      1 <0>        -0.2098
      7 C5          1.1645   -0.5828   -0.3219 C.ar      1 <0>         0.2455
      8 C6          2.3776    0.1379   -0.1595 C.ar      1 <0>        -0.2807
      9 C7          3.5739   -0.5682   -0.0147 C.ar      1 <0>         0.2152
     10 N2          3.5676   -1.8829   -0.0294 N.ar      1 <0>        -0.4822
     11 C8          2.3173    1.5511   -0.1523 C.ar      1 <0>         0.4946
     12 N3          1.1295    2.1266   -0.2986 N.ar      1 <0>        -0.5917
     13 C9          0.0261    1.4119   -0.4469 C.ar      1 <0>         0.3705
     14 N4          0.0207    0.0986   -0.4610 N.ar      1 <0>        -0.5532
     15 N5          3.4584    2.3089    0.0012 N.pl3     1 <0>        -0.6327
     16 C10         3.3642    3.6988    0.1161 C.ar      1 <0>         0.1543
     17 C11         2.2578    4.2732    0.7295 C.ar      1 <0>        -0.0941
     18 C12         2.1673    5.6465    0.8417 C.ar      1 <0>        -0.0928
     19 C13         3.1766    6.4507    0.3443 C.ar      1 <0>        -0.1025
     20 C14         4.2802    5.8823   -0.2667 C.ar      1 <0>        -0.0716
     21 C15         4.3791    4.5082   -0.3774 C.ar      1 <0>        -0.1179
     22 Br1         5.6580    6.9863   -0.9440 Br        1 <0>        -0.0430
     23 H1          2.8113   -6.5081   -0.3746 H         1 <0>         0.0795
     24 H2          4.4110   -6.3551   -1.1399 H         1 <0>         0.1014
     25 H3          4.2812   -6.5032    0.6291 H         1 <0>         0.1011
     26 H4          1.7140   -4.5121   -0.2143 H         1 <0>         0.4222
     27 H5          0.3241   -2.5702   -0.4505 H         1 <0>         0.1536
     28 H6          4.5044   -0.0342    0.1093 H         1 <0>         0.1650
     29 H7         -0.9127    1.9323   -0.5662 H         1 <0>         0.2022
     30 H8          4.3268    1.8776    0.0294 H         1 <0>         0.4243
     31 H9          1.4689    3.6461    1.1179 H         1 <0>         0.1456
     32 H10         1.3075    6.0932    1.3187 H         1 <0>         0.1378
     33 H11         3.1033    7.5245    0.4334 H         1 <0>         0.1354
     34 H12         5.2425    4.0646   -0.8507 H         1 <0>         0.1361
@<TRIPOS>BOND
     1    1    2 1
     2    1   23 1
     3    1   24 1
     4    1   25 1
     5    2    3 2
     6    2    4 am
     7    4    5 1
     8    4   26 1
     9    5   10 ar
    10    5    6 ar
    11    6    7 ar
    12    6   27 1
    13    7   14 ar
    14    7    8 ar
    15    8    9 ar
    16    8   11 ar
    17    9   10 ar
    18    9   28 1
    19   11   12 ar
    20   11   15 1
    21   12   13 ar
    22   13   14 ar
    23   13   29 1
    24   15   16 1
    25   15   30 1
    26   16   21 ar
    27   16   17 ar
    28   17   18 ar
    29   17   31 1
    30   18   19 ar
    31   18   32 1
    32   19   20 ar
    33   19   33 1
    34   20   21 ar
    35   20   22 1
    36   21   34 1
@<TRIPOS>MOLECULE
ZINC00601820
   40    43     0     0     0
SMALL
USER_CHARGES

@<TRIPOS>ATOM
      1 C1          0.0591    1.0896    0.1025 C.3       1 <0>         0.0693
      2 N1         -0.4512    1.5807    1.3849 N.am      1 <0>        -0.5058
      3 C2         -0.5646    2.9313    1.5982 C.ar      1 <0>         0.4657
      4 C3         -1.0598    3.4211    2.8262 C.ar      1 <0>        -0.2716
      5 C4         -1.4333    2.5225    3.8517 C.2       1 <0>         0.0285
      6 C5         -1.3114    1.1768    3.6318 C.2       1 <0>        -0.1597
      7 C6         -0.7992    0.7020    2.3445 C.2       1 <0>         0.5572
      8 O1         -0.6876   -0.4937    2.1405 O.2       1 <0>        -0.5003
      9 C7         -1.6939    0.2094    4.6868 C.ar      1 <0>        -0.0120
     10 C8         -0.7486   -0.2216    5.6184 C.ar      1 <0>        -0.0062
     11 C9         -1.1129   -1.1199    6.6022 C.ar      1 <0>        -0.1062
     12 C10        -2.4088   -1.6003    6.6589 C.ar      1 <0>        -0.0866
     13 C11        -3.3493   -1.1811    5.7353 C.ar      1 <0>        -0.1061
     14 C12        -2.9995   -0.2791    4.7496 C.ar      1 <0>        -0.0062
     15 Cl1        -4.1812    0.2452    3.5911 Cl        1 <0>        -0.0500
     16 Cl2         0.8802    0.3746    5.5445 Cl        1 <0>        -0.0501
     17 C13        -1.1651    4.8089    3.0016 C.ar      1 <0>         0.2644
     18 N2         -0.8015    5.6004    2.0099 N.ar      1 <0>        -0.5677
     19 C14        -0.3442    5.1038    0.8660 C.ar      1 <0>         0.6075
     20 N3         -0.2270    3.8022    0.6537 N.ar      1 <0>        -0.5907
     21 N4          0.0231    5.9781   -0.1398 N.pl3     1 <0>        -0.6248
     22 C15        -0.1964    7.3460    0.0113 C.ar      1 <0>         0.2029
     23 C16        -1.3017    7.8194    0.7175 C.ar      1 <0>        -0.1666
     24 C17        -1.4807    9.1807    0.8480 C.ar      1 <0>         0.1183
     25 N5         -0.6279   10.0303    0.3069 N.ar      1 <0>        -0.4967
     26 C18         0.4274    9.6218   -0.3726 C.ar      1 <0>         0.1208
     27 C19         0.6804    8.2770   -0.5446 C.ar      1 <0>        -0.2009
     28 H1          0.0840   -0.0001    0.1147 H         1 <0>         0.1015
     29 H2          1.0660    1.4743   -0.0592 H         1 <0>         0.0806
     30 H3         -0.5932    1.4291   -0.7022 H         1 <0>         0.0808
     31 H4         -1.8093    2.8921    4.7943 H         1 <0>         0.1520
     32 H5         -0.3832   -1.4511    7.3264 H         1 <0>         0.1441
     33 H6         -2.6874   -2.3060    7.4275 H         1 <0>         0.1458
     34 H7         -4.3594   -1.5602    5.7848 H         1 <0>         0.1442
     35 H8         -1.5356    5.2210    3.9287 H         1 <0>         0.1903
     36 H9          0.4337    5.6395   -0.9508 H         1 <0>         0.4296
     37 H10        -2.0057    7.1297    1.1593 H         1 <0>         0.1460
     38 H11        -2.3320    9.5564    1.3964 H         1 <0>         0.1597
     39 H12         1.1010   10.3500   -0.7996 H         1 <0>         0.1605
     40 H13         1.5454    7.9496   -1.1023 H         1 <0>         0.1380
@<TRIPOS>BOND
     1    1    2 1
     2    1   28 1
     3    1   29 1
     4    1   30 1
     5    2    7 am
     6    2    3 1
     7    3   20 ar
     8    3    4 ar
     9    4    5 1
    10    4   17 ar
    11    5    6 2
    12    5   31 1
    13    6    7 1
    14    6    9 1
    15    7    8 2
    16    9   14 ar
    17    9   10 ar
    18   10   11 ar
    19   10   16 1
    20   11   12 ar
    21   11   32 1
    22   12   13 ar
    23   12   33 1
    24   13   14 ar
    25   13   34 1
    26   14   15 1
    27   17   18 ar
    28   17   35 1
    29   18   19 ar
    30   19   20 ar
    31   19   21 1
    32   21   22 1
    33   21   36 1
    34   22   27 ar
    35   22   23 ar
    36   23   24 ar
    37   23   37 1
    38   24   25 ar
    39   24   38 1
    40   25   26 ar
    41   26   27 ar
    42   26   39 1
    43   27   40 1
@<TRIPOS>MOLECULE
ZINC00837641
   42    45     0     0     0
SMALL
USER_CHARGES

@<TRIPOS>ATOM
      1 C1          0.0103    0.0262    2.3593 C.ar      1 <0>        -0.1489
      2 C2         -0.5208   -0.7915    3.3374 C.ar      1 <0>        -0.1070
      3 C3         -1.6386   -1.5622    3.0652 C.ar      1 <0>         0.0526
      4 C4         -2.2305   -1.5099    1.8144 C.ar      1 <0>        -0.1081
      5 C5         -1.7066   -0.6890    0.8351 C.ar      1 <0>        -0.1535
      6 C6         -0.5851    0.0846    1.1057 C.ar      1 <0>         0.1865
      7 N1         -0.0529    0.9165    0.1159 N.pl3     1 <0>        -0.6931
      8 C7          1.1543    1.5780    0.3362 C.ar      1 <0>         0.0966
      9 C8          1.1648    2.9547    0.5185 C.ar      1 <0>        -0.0184
     10 C9          2.3686    3.6095    0.7380 C.ar      1 <0>        -0.1492
     11 C10         3.5751    2.8763    0.7753 C.ar      1 <0>        -0.0603
     12 C11         3.5574    1.5006    0.5924 C.ar      1 <0>        -0.1277
     13 C12         2.3487    0.8510    0.3784 C.ar      1 <0>         0.2214
     14 N2          2.3261   -0.5314    0.1995 N.pl3     1 <0>        -0.6634
     15 C13         3.4902   -1.2807    0.3952 C.ar      1 <0>         0.1434
     16 C14         3.8139   -2.3055   -0.4848 C.ar      1 <0>        -0.1145
     17 C15         4.9675   -3.0402   -0.2930 C.ar      1 <0>        -0.1261
     18 C16         5.7949   -2.7640    0.7825 C.ar      1 <0>         0.0851
     19 C17         5.4713   -1.7465    1.6643 C.ar      1 <0>        -0.1235
     20 C18         4.3219   -1.0051    1.4731 C.ar      1 <0>        -0.1184
     21 F1          6.9197   -3.4880    0.9715 F         1 <0>        -0.1367
     22 C19         4.8368    3.6063    1.0117 C.2       1 <0>         0.5632
     23 O1          5.8936    3.0065    1.0495 O.2       1 <0>        -0.5082
     24 N3          4.8079    4.9419    1.1846 N.am      1 <0>        -0.5074
     25 H1          5.6666    5.4288    1.3445 H         1 <0>         0.4382
     26 N4          3.6159    5.6665    1.1473 N.am      1 <0>        -0.5116
     27 H2          3.6462    6.6571    1.2806 H         1 <0>         0.4375
     28 C20         2.4256    5.0716    0.9371 C.2       1 <0>         0.5699
     29 O2          1.4062    5.7335    0.9108 O.2       1 <0>        -0.5153
     30 F2         -2.1529   -2.3659    4.0216 F         1 <0>        -0.1424
     31 H3          0.8853    0.6232    2.5704 H         1 <0>         0.1288
     32 H4         -0.0613   -0.8334    4.3138 H         1 <0>         0.1357
     33 H5         -3.1027   -2.1113    1.6046 H         1 <0>         0.1378
     34 H6         -2.1687   -0.6483   -0.1402 H         1 <0>         0.1347
     35 H7         -0.5257    1.0366   -0.7225 H         1 <0>         0.4142
     36 H8          0.2408    3.5130    0.4891 H         1 <0>         0.1525
     37 H9          4.4786    0.9376    0.6201 H         1 <0>         0.1585
     38 H10         1.5028   -0.9734   -0.0607 H         1 <0>         0.4176
     39 H11         3.1663   -2.5247   -1.3208 H         1 <0>         0.1366
     40 H12         5.2223   -3.8338   -0.9799 H         1 <0>         0.1417
     41 H13         6.1184   -1.5324    2.5020 H         1 <0>         0.1426
     42 H14         4.0701   -0.2114    2.1609 H         1 <0>         0.1387
@<TRIPOS>BOND
     1    1    6 ar
     2    1    2 ar
     3    1   31 1
     4    2    3 ar
     5    2   32 1
     6    3    4 ar
     7    3   30 1
     8    4    5 ar
     9    4   33 1
    10    5    6 ar
    11    5   34 1
    12    6    7 1
    13    7    8 1
    14    7   35 1
    15    8   13 ar
    16    8    9 ar
    17    9   10 ar
    18    9   36 1
    19   10   28 1
    20   10   11 ar
    21   11   12 ar
    22   11   22 1
    23   12   13 ar
    24   12   37 1
    25   13   14 1
    26   14   15 1
    27   14   38 1
    28   15   20 ar
    29   15   16 ar
    30   16   17 ar
    31   16   39 1
    32   17   18 ar
    33   17   40 1
    34   18   19 ar
    35   18   21 1
    36   19   20 ar
    37   19   41 1
    38   20   42 1
    39   22   23 2
    40   22   24 am
    41   24   25 1
    42   24   26 1
    43   26   27 1
    44   26   28 am
    45   28   29 2
@<TRIPOS>MOLECULE
ZINC00838734
   41    44     0     0     0
SMALL
USER_CHARGES

@<TRIPOS>ATOM
      1 C1          0.0685    1.0902    0.1116 C.3       1 <0>         0.0700
      2 N1         -0.4262    1.5833    1.3993 N.am      1 <0>        -0.5062
      3 C2         -0.5385    2.9342    1.6114 C.ar      1 <0>         0.4666
      4 C3         -1.0181    3.4258    2.8448 C.ar      1 <0>        -0.2773
      5 C4         -1.3769    2.5290    3.8769 C.2       1 <0>         0.0314
      6 C5         -1.2565    1.1829    3.6581 C.2       1 <0>        -0.1644
      7 C6         -0.7608    0.7061    2.3651 C.2       1 <0>         0.5577
      8 O1         -0.6510   -0.4900    2.1618 O.2       1 <0>        -0.5028
      9 C7         -1.6239    0.2172    4.7199 C.ar      1 <0>        -0.0100
     10 C8         -0.6659   -0.2109    5.6398 C.ar      1 <0>        -0.0065
     11 C9         -1.0162   -1.1072    6.6305 C.ar      1 <0>        -0.1064
     12 C10        -2.3108   -1.5889    6.7053 C.ar      1 <0>        -0.0874
     13 C11        -3.2639   -1.1726    5.7933 C.ar      1 <0>        -0.1064
     14 C12        -2.9280   -0.2726    4.8010 C.ar      1 <0>        -0.0065
     15 Cl1        -4.1254    0.2477    3.6568 Cl        1 <0>        -0.0502
     16 Cl2         0.9613    0.3864    5.5428 Cl        1 <0>        -0.0503
     17 C13        -1.1230    4.8140    3.0188 C.ar      1 <0>         0.2641
     18 N2         -0.7738    5.6039    2.0208 N.ar      1 <0>        -0.5672
     19 C14        -0.3311    5.1056    0.8717 C.ar      1 <0>         0.6086
     20 N3         -0.2145    3.8035    0.6608 N.ar      1 <0>        -0.5951
     21 N4          0.0210    5.9779   -0.1404 N.pl3     1 <0>        -0.6261
     22 C15        -0.1997    7.3500    0.0111 C.ar      1 <0>         0.1544
     23 C16        -1.3057    7.8032    0.7189 C.ar      1 <0>        -0.1097
     24 C17        -1.5178    9.1593    0.8713 C.ar      1 <0>        -0.1005
     25 C18        -0.6364   10.0658    0.3112 C.ar      1 <0>        -0.1327
     26 C19         0.4626    9.6181   -0.3989 C.ar      1 <0>        -0.0995
     27 C20         0.6834    8.2633   -0.5505 C.ar      1 <0>        -0.1436
     28 H1          0.0950    0.0006    0.1257 H         1 <0>         0.1007
     29 H2          1.0729    1.4758   -0.0636 H         1 <0>         0.0801
     30 H3         -0.5942    1.4272   -0.6854 H         1 <0>         0.0803
     31 H4         -1.7408    2.9001    4.8236 H         1 <0>         0.1507
     32 H5         -0.2768   -1.4359    7.3458 H         1 <0>         0.1438
     33 H6         -2.5784   -2.2933    7.4789 H         1 <0>         0.1454
     34 H7         -4.2729   -1.5525    5.8572 H         1 <0>         0.1438
     35 H8         -1.4816    5.2275    3.9499 H         1 <0>         0.1883
     36 H9          0.4212    5.6382   -0.9561 H         1 <0>         0.4264
     37 H10        -1.9966    7.0958    1.1531 H         1 <0>         0.1341
     38 H11        -2.3753    9.5123    1.4249 H         1 <0>         0.1262
     39 H12        -0.8068   11.1258    0.4283 H         1 <0>         0.1239
     40 H13         1.1490   10.3287   -0.8350 H         1 <0>         0.1271
     41 H14         1.5417    7.9142   -1.1055 H         1 <0>         0.1251
@<TRIPOS>BOND
     1    1    2 1
     2    1   28 1
     3    1   29 1
     4    1   30 1
     5    2    7 am
     6    2    3 1
     7    3   20 ar
     8    3    4 ar
     9    4    5 1
    10    4   17 ar
    11    5    6 2
    12    5   31 1
    13    6    7 1
    14    6    9 1
    15    7    8 2
    16    9   14 ar
    17    9   10 ar
    18   10   11 ar
    19   10   16 1
    20   11   12 ar
    21   11   32 1
    22   12   13 ar
    23   12   33 1
    24   13   14 ar
    25   13   34 1
    26   14   15 1
    27   17   18 ar
    28   17   35 1
    29   18   19 ar
    30   19   20 ar
    31   19   21 1
    32   21   22 1
    33   21   36 1
    34   22   27 ar
    35   22   23 ar
    36   23   24 ar
    37   23   37 1
    38   24   25 ar
    39   24   38 1
    40   25   26 ar
    41   25   39 1
    42   26   27 ar
    43   26   40 1
    44   27   41 1
@<TRIPOS>MOLECULE
ZINC00839389
   37    40     0     0     0
SMALL
USER_CHARGES

@<TRIPOS>ATOM
      1 C1         -0.7948   -8.5643    0.3902 C.ar      1 <0>        -0.0852
      2 C2          0.0364   -7.4628    0.3290 C.ar      1 <0>        -0.1051
      3 C3         -0.4480   -6.2546   -0.1556 C.ar      1 <0>         0.1624
      4 C4         -1.7693   -6.1565   -0.5727 C.ar      1 <0>        -0.1412
      5 C5         -2.5945   -7.2635   -0.5140 C.ar      1 <0>        -0.0144
      6 C6         -2.1080   -8.4658   -0.0303 C.ar      1 <0>        -0.1229
      7 Cl1        -4.2443   -7.1444   -1.0410 Cl        1 <0>        -0.0630
      8 N1          0.3909   -5.1382   -0.2181 N.pl3     1 <0>        -0.6413
      9 C7          1.7416   -5.3014   -0.4626 C.ar      1 <0>         0.5124
     10 C8          2.6187   -4.2047   -0.4208 C.ar      1 <0>        -0.3398
     11 C9          3.9860   -4.4266   -0.6773 C.ar      1 <0>         0.4000
     12 N2          4.6068   -3.2188   -0.5762 N.pl3     1 <0>        -0.4734
     13 H1          5.5858   -3.0595   -0.7038 H         1 <0>         0.4584
     14 N3          3.6611   -2.2356   -0.2660 N.2       1 <0>        -0.2828
     15 C10         2.4741   -2.7757   -0.1601 C.2       1 <0>         0.3772
     16 N4          1.2856   -2.1067    0.1412 N.pl3     1 <0>        -0.6391
     17 C11         1.2772   -0.7144    0.2543 C.ar      1 <0>         0.1775
     18 C12         2.1860    0.0485   -0.4690 C.ar      1 <0>        -0.1338
     19 C13         2.1752    1.4246   -0.3557 C.ar      1 <0>        -0.0756
     20 C14         1.2611    2.0445    0.4766 C.ar      1 <0>        -0.1318
     21 C15         0.3544    1.2884    1.1986 C.ar      1 <0>        -0.0066
     22 C16         0.3601   -0.0896    1.0896 C.ar      1 <0>        -0.1490
     23 Cl2        -0.7908    2.0711    2.2425 Cl        1 <0>        -0.0622
     24 N5          4.3919   -5.6670   -0.9490 N.ar      1 <0>        -0.5683
     25 C17         3.5336   -6.6627   -0.9770 C.ar      1 <0>         0.3924
     26 N6          2.2434   -6.5003   -0.7428 N.ar      1 <0>        -0.5917
     27 H2         -0.4183   -9.5037    0.7673 H         1 <0>         0.1384
     28 H3          1.0623   -7.5410    0.6575 H         1 <0>         0.1460
     29 H4         -2.1501   -5.2174   -0.9462 H         1 <0>         0.1350
     30 H5         -2.7558   -9.3286    0.0189 H         1 <0>         0.1360
     31 H6          0.0253   -4.2490   -0.0899 H         1 <0>         0.4126
     32 H7          0.4661   -2.6089    0.2719 H         1 <0>         0.4146
     33 H8          2.9005   -0.4346   -1.1190 H         1 <0>         0.1434
     34 H9          2.8844    2.0173   -0.9143 H         1 <0>         0.1378
     35 H10         1.2549    3.1210    0.5632 H         1 <0>         0.1362
     36 H11        -0.3473   -0.6796    1.6533 H         1 <0>         0.1365
     37 H12         3.8983   -7.6543   -1.2011 H         1 <0>         0.2104
@<TRIPOS>BOND
     1    1    6 ar
     2    1    2 ar
     3    1   27 1
     4    2    3 ar
     5    2   28 1
     6    3    4 ar
     7    3    8 1
     8    4    5 ar
     9    4   29 1
    10    5    6 ar
    11    5    7 1
    12    6   30 1
    13    8    9 1
    14    8   31 1
    15    9   26 ar
    16    9   10 ar
    17   10   15 1
    18   10   11 ar
    19   11   12 1
    20   11   24 ar
    21   12   13 1
    22   12   14 1
    23   14   15 2
    24   15   16 1
    25   16   17 1
    26   16   32 1
    27   17   22 ar
    28   17   18 ar
    29   18   19 ar
    30   18   33 1
    31   19   20 ar
    32   19   34 1
    33   20   21 ar
    34   20   35 1
    35   21   22 ar
    36   21   23 1
    37   22   36 1
    38   24   25 ar
    39   25   26 ar
    40   25   37 1
@<TRIPOS>MOLECULE
ZINC00839395
   41    44     0     0     0
SMALL
USER_CHARGES

@<TRIPOS>ATOM
      1 C1         10.4962    1.5307    1.4830 C.3       1 <0>         0.0265
      2 O1          9.9199    2.7178    0.9346 O.3       1 <0>        -0.3175
      3 C2          8.5745    2.7163    0.7364 C.ar      1 <0>         0.1082
      4 C3          7.9506    3.8364    0.2071 C.ar      1 <0>        -0.1233
      5 C4          6.5846    3.8357    0.0050 C.ar      1 <0>        -0.1125
      6 C5          5.8353    2.7128    0.3318 C.ar      1 <0>         0.1244
      7 C6          6.4601    1.5938    0.8671 C.ar      1 <0>        -0.0951
      8 C7          7.8271    1.5944    1.0631 C.ar      1 <0>        -0.1782
      9 N1          4.4509    2.7111    0.1274 N.pl3     1 <0>        -0.6388
     10 C8          3.7844    1.5108   -0.1286 C.2       1 <0>         0.3797
     11 C9          2.3405    1.3335   -0.2497 C.ar      1 <0>        -0.3405
     12 C10         2.1274   -0.0353   -0.5072 C.ar      1 <0>         0.3992
     13 N2          3.3541   -0.6261   -0.5367 N.pl3     1 <0>        -0.4750
     14 H1          3.5238   -1.5980   -0.6997 H         1 <0>         0.4572
     15 N3          4.3397    0.3390   -0.3034 N.2       1 <0>        -0.2877
     16 N4          0.8767   -0.4690   -0.6621 N.ar      1 <0>        -0.5693
     17 C11        -0.1376    0.3637   -0.5763 C.ar      1 <0>         0.3913
     18 N5          0.0159    1.6537   -0.3369 N.ar      1 <0>        -0.5926
     19 C12         1.2244    2.1823   -0.1678 C.ar      1 <0>         0.5117
     20 N6          1.3783    3.5330    0.0820 N.pl3     1 <0>        -0.6413
     21 C13         0.2536    4.3419    0.2687 C.ar      1 <0>         0.1636
     22 C14        -0.8888    3.8194    0.8620 C.ar      1 <0>        -0.1054
     23 C15        -1.9983    4.6207    1.0457 C.ar      1 <0>        -0.0853
     24 C16        -1.9738    5.9425    0.6399 C.ar      1 <0>        -0.1236
     25 C17        -0.8376    6.4668    0.0490 C.ar      1 <0>        -0.0144
     26 C18         0.2780    5.6709   -0.1333 C.ar      1 <0>        -0.1418
     27 Cl1        -0.8110    8.1268   -0.4584 Cl        1 <0>        -0.0636
     28 H2         10.2992    0.6903    0.8175 H         1 <0>         0.0560
     29 H3         11.5727    1.6652    1.5896 H         1 <0>         0.1010
     30 H4         10.0564    1.3312    2.4602 H         1 <0>         0.0557
     31 H5          8.5335    4.7093   -0.0473 H         1 <0>         0.1368
     32 H6          6.0990    4.7078   -0.4074 H         1 <0>         0.1332
     33 H7          5.8776    0.7220    1.1260 H         1 <0>         0.1399
     34 H8          8.3137    0.7226    1.4748 H         1 <0>         0.1322
     35 H9          3.9543    3.5435    0.1634 H         1 <0>         0.4120
     36 H10        -1.1374   -0.0231   -0.7073 H         1 <0>         0.2096
     37 H11         2.2668    3.9196    0.1277 H         1 <0>         0.4128
     38 H12        -0.9093    2.7872    1.1790 H         1 <0>         0.1459
     39 H13        -2.8864    4.2147    1.5073 H         1 <0>         0.1381
     40 H14        -2.8429    6.5669    0.7848 H         1 <0>         0.1357
     41 H15         1.1661    6.0812   -0.5908 H         1 <0>         0.1349
@<TRIPOS>BOND
     1    1    2 1
     2    1   28 1
     3    1   29 1
     4    1   30 1
     5    2    3 1
     6    3    8 ar
     7    3    4 ar
     8    4    5 ar
     9    4   31 1
    10    5    6 ar
    11    5   32 1
    12    6    7 ar
    13    6    9 1
    14    7    8 ar
    15    7   33 1
    16    8   34 1
    17    9   10 1
    18    9   35 1
    19   10   15 2
    20   10   11 1
    21   11   19 ar
    22   11   12 ar
    23   12   13 1
    24   12   16 ar
    25   13   14 1
    26   13   15 1
    27   16   17 ar
    28   17   18 ar
    29   17   36 1
    30   18   19 ar
    31   19   20 1
    32   20   21 1
    33   20   37 1
    34   21   26 ar
    35   21   22 ar
    36   22   23 ar
    37   22   38 1
    38   23   24 ar
    39   23   39 1
    40   24   25 ar
    41   24   40 1
    42   25   26 ar
    43   25   27 1
    44   26   41 1
@<TRIPOS>MOLECULE
ZINC00839396
   38    41     0     0     0
SMALL
USER_CHARGES

@<TRIPOS>ATOM
      1 C1         -1.9995    4.6198    1.0453 C.ar      1 <0>        -0.0851
      2 C2         -0.8894    3.8185    0.8616 C.ar      1 <0>        -0.1053
      3 C3          0.2526    4.3412    0.2685 C.ar      1 <0>         0.1632
      4 C4          0.2766    5.6705   -0.1337 C.ar      1 <0>        -0.1417
      5 C5         -0.8390    6.4657    0.0480 C.ar      1 <0>        -0.0143
      6 C6         -1.9753    5.9411    0.6395 C.ar      1 <0>        -0.1234
      7 Cl1        -0.8131    8.1256   -0.4599 Cl        1 <0>        -0.0634
      8 N1          1.3776    3.5326    0.0819 N.pl3     1 <0>        -0.6414
      9 C7          1.2240    2.1818   -0.1679 C.ar      1 <0>         0.5120
     10 C8          2.3407    1.3331   -0.2497 C.ar      1 <0>        -0.3401
     11 C9          2.1280   -0.0355   -0.5068 C.ar      1 <0>         0.3992
     12 N2          3.3548   -0.6260   -0.5363 N.pl3     1 <0>        -0.4738
     13 H1          3.5248   -1.5979   -0.6990 H         1 <0>         0.4580
     14 N3          4.3401    0.3394   -0.3034 N.2       1 <0>        -0.2842
     15 C10         3.7845    1.5111   -0.1289 C.2       1 <0>         0.3775
     16 N4          4.4506    2.7116    0.1267 N.pl3     1 <0>        -0.6401
     17 C11         5.8350    2.7140    0.3310 C.ar      1 <0>         0.1548
     18 C12         6.4602    1.5954    0.8665 C.ar      1 <0>        -0.1205
     19 C13         7.8272    1.5965    1.0624 C.ar      1 <0>        -0.1142
     20 C14         8.5742    2.7186    0.7352 C.ar      1 <0>         0.0835
     21 C15         7.9499    3.8384    0.2057 C.ar      1 <0>        -0.1158
     22 C16         6.5838    3.8370    0.0037 C.ar      1 <0>        -0.1377
     23 O1          9.9195    2.7210    0.9342 O.3       1 <0>        -0.4982
     24 N5          0.8771   -0.4696   -0.6618 N.ar      1 <0>        -0.5684
     25 C17        -0.1372    0.3627   -0.5765 C.ar      1 <0>         0.3917
     26 N6          0.0160    1.6531   -0.3371 N.ar      1 <0>        -0.5922
     27 H2         -2.8874    4.2135    1.5068 H         1 <0>         0.1383
     28 H3         -0.9095    2.7863    1.1787 H         1 <0>         0.1460
     29 H4          1.1645    6.0810   -0.5914 H         1 <0>         0.1348
     30 H5         -2.8445    6.5654    0.7847 H         1 <0>         0.1359
     31 H6          2.2659    3.9195    0.1276 H         1 <0>         0.4125
     32 H7          3.9536    3.5439    0.1625 H         1 <0>         0.4129
     33 H8          5.8781    0.7234    1.1257 H         1 <0>         0.1414
     34 H9          8.3143    0.7250    1.4743 H         1 <0>         0.1332
     35 H10         8.5324    4.7114   -0.0490 H         1 <0>         0.1343
     36 H11         6.0979    4.7088   -0.4089 H         1 <0>         0.1306
     37 H12        10.1875    3.0397    1.8070 H         1 <0>         0.3899
     38 H13        -1.1369   -0.0244   -0.7079 H         1 <0>         0.2101
@<TRIPOS>BOND
     1    1    6 ar
     2    1    2 ar
     3    1   27 1
     4    2    3 ar
     5    2   28 1
     6    3    4 ar
     7    3    8 1
     8    4    5 ar
     9    4   29 1
    10    5    6 ar
    11    5    7 1
    12    6   30 1
    13    8    9 1
    14    8   31 1
    15    9   26 ar
    16    9   10 ar
    17   10   15 1
    18   10   11 ar
    19   11   12 1
    20   11   24 ar
    21   12   13 1
    22   12   14 1
    23   14   15 2
    24   15   16 1
    25   16   17 1
    26   16   32 1
    27   17   22 ar
    28   17   18 ar
    29   18   19 ar
    30   18   33 1
    31   19   20 ar
    32   19   34 1
    33   20   21 ar
    34   20   23 1
    35   21   22 ar
    36   21   35 1
    37   22   36 1
    38   23   37 1
    39   24   25 ar
    40   25   26 ar
    41   25   38 1
@<TRIPOS>MOLECULE
ZINC01386782
   36    38     0     0     0
SMALL
USER_CHARGES

@<TRIPOS>ATOM
      1 C1          5.8723    3.2858    0.3129 C.3       1 <0>         0.0215
      2 O1          4.6758    4.0525    0.1633 O.3       1 <0>        -0.2999
      3 C2          3.5153    3.3614    0.0059 C.ar      1 <0>         0.1117
      4 C3          3.5384    1.9956   -0.0028 C.ar      1 <0>        -0.1491
      5 C4          2.3443    1.2831   -0.1652 C.ar      1 <0>        -0.1821
      6 C5          1.1206    1.9807   -0.3194 C.ar      1 <0>         0.2014
      7 C6          1.1203    3.3808   -0.3075 C.ar      1 <0>        -0.1836
      8 C7          2.3086    4.0584   -0.1462 C.ar      1 <0>         0.1640
      9 O2          2.3111    5.4168   -0.1338 O.3       1 <0>        -0.2970
     10 C8          1.0499    6.0694   -0.2934 C.3       1 <0>         0.0200
     11 N1         -0.0098    1.2734   -0.4729 N.ar      1 <0>        -0.5407
     12 C9          0.0220   -0.0380   -0.4796 C.ar      1 <0>         0.3422
     13 N2          1.1404   -0.7316   -0.3392 N.ar      1 <0>        -0.5797
     14 C10         2.3130   -0.1317   -0.1810 C.ar      1 <0>         0.4634
     15 N3          3.4718   -0.8678   -0.0362 N.pl3     1 <0>        -0.6408
     16 C11         3.4073   -2.2611    0.0620 C.ar      1 <0>         0.1700
     17 C12         2.3202   -2.8655    0.6804 C.ar      1 <0>        -0.1063
     18 C13         2.2568   -4.2420    0.7712 C.ar      1 <0>        -0.0687
     19 C14         3.2801   -5.0186    0.2571 C.ar      1 <0>        -0.1074
     20 C15         4.3667   -4.4191   -0.3547 C.ar      1 <0>        -0.0687
     21 C16         4.4329   -3.0432   -0.4536 C.ar      1 <0>        -0.1437
     22 Br1         3.1932   -6.9029    0.3905 Br        1 <0>        -0.0497
     23 H1          6.7224    3.9580    0.4296 H         1 <0>         0.1073
     24 H2          5.7884    2.6497    1.1941 H         1 <0>         0.0576
     25 H3          6.0188    2.6648   -0.5708 H         1 <0>         0.0573
     26 H4          4.4733    1.4679    0.1155 H         1 <0>         0.1393
     27 H5          0.1951    3.9255   -0.4244 H         1 <0>         0.1565
     28 H6          0.3814    5.7704    0.5140 H         1 <0>         0.0624
     29 H7          1.1935    7.1495   -0.2650 H         1 <0>         0.1076
     30 H8          0.6128    5.7860   -1.2508 H         1 <0>         0.0624
     31 H9         -0.9061   -0.5758   -0.6057 H         1 <0>         0.1987
     32 H10         4.3308   -0.4185   -0.0025 H         1 <0>         0.4205
     33 H11         1.5235   -2.2597    1.0860 H         1 <0>         0.1462
     34 H12         1.4095   -4.7127    1.2476 H         1 <0>         0.1368
     35 H13         5.1637   -5.0277   -0.7557 H         1 <0>         0.1371
     36 H14         5.2811   -2.5758   -0.9316 H         1 <0>         0.1335
@<TRIPOS>BOND
     1    1    2 1
     2    1   23 1
     3    1   24 1
     4    1   25 1
     5    2    3 1
     6    3    8 ar
     7    3    4 ar
     8    4    5 ar
     9    4   26 1
    10    5   14 ar
    11    5    6 ar
    12    6    7 ar
    13    6   11 ar
    14    7    8 ar
    15    7   27 1
    16    8    9 1
    17    9   10 1
    18   10   28 1
    19   10   29 1
    20   10   30 1
    21   11   12 ar
    22   12   13 ar
    23   12   31 1
    24   13   14 ar
    25   14   15 1
    26   15   16 1
    27   15   32 1
    28   16   21 ar
    29   16   17 ar
    30   17   18 ar
    31   17   33 1
    32   18   19 ar
    33   18   34 1
    34   19   20 ar
    35   19   22 1
    36   20   21 ar
    37   20   35 1
    38   21   36 1
@<TRIPOS>MOLECULE
ZINC01386812
   39    41     0     0     0
SMALL
USER_CHARGES

@<TRIPOS>ATOM
      1 C1          3.4473   -0.5592   -6.1732 C.3       1 <0>         0.0228
      2 O1          4.6695   -1.2435   -6.4563 O.3       1 <0>        -0.3018
      3 C2          5.4070   -1.6562   -5.3910 C.ar      1 <0>         0.1028
      4 C3          4.9617   -1.4071   -4.1239 C.ar      1 <0>        -0.1421
      5 C4          5.7205   -1.8311   -3.0264 C.ar      1 <0>        -0.1915
      6 C5          6.9436   -2.5153   -3.2351 C.ar      1 <0>         0.2017
      7 C6          7.3807   -2.7603   -4.5425 C.ar      1 <0>        -0.1859
      8 C7          6.6158   -2.3329   -5.6052 C.ar      1 <0>         0.1620
      9 O2          7.0376   -2.5694   -6.8747 O.3       1 <0>        -0.2986
     10 C8          8.2775   -3.2631   -7.0277 C.3       1 <0>         0.0207
     11 N1          7.6513   -2.9112   -2.1655 N.ar      1 <0>        -0.5536
     12 C9          7.2157   -2.6676   -0.9525 C.ar      1 <0>         0.3478
     13 N2          6.0829   -2.0274   -0.7095 N.ar      1 <0>        -0.5964
     14 C10         5.3044   -1.5983   -1.6939 C.ar      1 <0>         0.4741
     15 N3          4.1233   -0.9376   -1.4260 N.pl3     1 <0>        -0.6947
     16 C11         3.7112   -0.7071   -0.0392 C.3       1 <0>         0.1705
     17 C12         2.3960    0.0285   -0.0217 C.ar      1 <0>        -0.1165
     18 C13         1.2084   -0.6789   -0.0136 C.ar      1 <0>        -0.0993
     19 C14         0.0021   -0.0041    0.0020 C.ar      1 <0>        -0.1217
     20 C15        -0.0167    1.3781    0.0096 C.ar      1 <0>        -0.1091
     21 C16         1.1709    2.0855    0.0021 C.ar      1 <0>        -0.1217
     22 C17         2.3773    1.4107   -0.0141 C.ar      1 <0>        -0.0993
     23 H1          2.7907   -1.2115   -5.5974 H         1 <0>         0.0562
     24 H2          3.6602    0.3417   -5.5978 H         1 <0>         0.0562
     25 H3          2.9588   -0.2860   -7.1085 H         1 <0>         0.1057
     26 H4          4.0290   -0.8849   -3.9695 H         1 <0>         0.1375
     27 H5          8.3111   -3.2804   -4.7164 H         1 <0>         0.1542
     28 H6          8.2064   -4.2428   -6.5554 H         1 <0>         0.0615
     29 H7          8.4966   -3.3860   -8.0884 H         1 <0>         0.1063
     30 H8          9.0754   -2.6894   -6.5561 H         1 <0>         0.0615
     31 H9          7.8104   -2.9998   -0.1144 H         1 <0>         0.1947
     32 H10         3.5657   -0.6257   -2.1559 H         1 <0>         0.4098
     33 H11         4.4679   -0.1107    0.4703 H         1 <0>         0.0811
     34 H12         3.5990   -1.6641    0.4703 H         1 <0>         0.0810
     35 H13         1.2231   -1.7587   -0.0199 H         1 <0>         0.1244
     36 H14        -0.9258   -0.5567    0.0079 H         1 <0>         0.1254
     37 H15        -0.9592    1.9054    0.0170 H         1 <0>         0.1247
     38 H16         1.1563    3.1654    0.0077 H         1 <0>         0.1254
     39 H17         3.3051    1.9634   -0.0207 H         1 <0>         0.1244
@<TRIPOS>BOND
     1    1    2 1
     2    1   23 1
     3    1   24 1
     4    1   25 1
     5    2    3 1
     6    3    8 ar
     7    3    4 ar
     8    4    5 ar
     9    4   26 1
    10    5   14 ar
    11    5    6 ar
    12    6    7 ar
    13    6   11 ar
    14    7    8 ar
    15    7   27 1
    16    8    9 1
    17    9   10 1
    18   10   28 1
    19   10   29 1
    20   10   30 1
    21   11   12 ar
    22   12   13 ar
    23   12   31 1
    24   13   14 ar
    25   14   15 1
    26   15   16 1
    27   15   32 1
    28   16   17 1
    29   16   33 1
    30   16   34 1
    31   17   22 ar
    32   17   18 ar
    33   18   19 ar
    34   18   35 1
    35   19   20 ar
    36   19   36 1
    37   20   21 ar
    38   20   37 1
    39   21   22 ar
    40   21   38 1
    41   22   39 1
@<TRIPOS>MOLECULE
ZINC01386818
   36    38     0     0     0
SMALL
USER_CHARGES

@<TRIPOS>ATOM
      1 C1         -0.1079    7.8042   -0.3024 C.3       1 <0>         0.0214
      2 O1          1.1552    7.1532   -0.1512 O.3       1 <0>        -0.2999
      3 C2          1.1386    5.8026    0.0065 C.ar      1 <0>         0.1116
      4 C3         -0.0548    5.1380    0.0140 C.ar      1 <0>        -0.1488
      5 C4         -0.0730    3.7477    0.1768 C.ar      1 <0>        -0.1818
      6 C5          1.1438    3.0385    0.3325 C.ar      1 <0>         0.2012
      7 C6          2.3555    3.7400    0.3216 C.ar      1 <0>        -0.1834
      8 C7          2.3464    5.1078    0.1599 C.ar      1 <0>         0.1639
      9 O2          3.5206    5.7909    0.1486 O.3       1 <0>        -0.2970
     10 C8          4.7173    5.0266    0.3096 C.3       1 <0>         0.0199
     11 N1          1.0982    1.7060    0.4872 N.ar      1 <0>        -0.5405
     12 C9         -0.0525    1.0763    0.4937 C.ar      1 <0>         0.3426
     13 N2         -1.2129    1.6957    0.3464 N.ar      1 <0>        -0.5799
     14 C10        -1.2816    3.0115    0.1923 C.ar      1 <0>         0.4628
     15 N3         -2.4993    3.6452    0.0454 N.pl3     1 <0>        -0.6398
     16 C11        -3.6722    2.8912   -0.0529 C.ar      1 <0>         0.1828
     17 C12        -4.8635    3.3869    0.4623 C.ar      1 <0>        -0.1595
     18 C13        -6.0212    2.6405    0.3642 C.ar      1 <0>        -0.0684
     19 C14        -5.9969    1.4003   -0.2466 C.ar      1 <0>        -0.1702
     20 C15        -4.8117    0.9024   -0.7620 C.ar      1 <0>         0.1209
     21 C16        -3.6500    1.6480   -0.6708 C.ar      1 <0>        -0.1499
     22 F1         -4.7913   -0.3093   -1.3591 F         1 <0>        -0.1352
     23 H1          0.0479    8.8767   -0.4192 H         1 <0>         0.1072
     24 H2         -0.6153    7.4126   -1.1840 H         1 <0>         0.0576
     25 H3         -0.7196    7.6199    0.5808 H         1 <0>         0.0574
     26 H4         -0.9798    5.6825   -0.1054 H         1 <0>         0.1395
     27 H5          3.2905    3.2124    0.4396 H         1 <0>         0.1566
     28 H6          4.6902    4.5066    1.2672 H         1 <0>         0.0624
     29 H7          4.7945    4.2981   -0.4974 H         1 <0>         0.0624
     30 H8          5.5800    5.6923    0.2819 H         1 <0>         0.1076
     31 H9         -0.0529    0.0037    0.6204 H         1 <0>         0.1987
     32 H10        -2.5410    4.6137    0.0105 H         1 <0>         0.4216
     33 H11        -4.8841    4.3555    0.9397 H         1 <0>         0.1314
     34 H12        -6.9470    3.0262    0.7649 H         1 <0>         0.1382
     35 H13        -6.9039    0.8188   -0.3223 H         1 <0>         0.1371
     36 H14        -2.7264    1.2620   -1.0762 H         1 <0>         0.1498
@<TRIPOS>BOND
     1    1    2 1
     2    1   23 1
     3    1   24 1
     4    1   25 1
     5    2    3 1
     6    3    8 ar
     7    3    4 ar
     8    4    5 ar
     9    4   26 1
    10    5   14 ar
    11    5    6 ar
    12    6    7 ar
    13    6   11 ar
    14    7    8 ar
    15    7   27 1
    16    8    9 1
    17    9   10 1
    18   10   28 1
    19   10   29 1
    20   10   30 1
    21   11   12 ar
    22   12   13 ar
    23   12   31 1
    24   13   14 ar
    25   14   15 1
    26   15   16 1
    27   15   32 1
    28   16   21 ar
    29   16   17 ar
    30   17   18 ar
    31   17   33 1
    32   18   19 ar
    33   18   34 1
    34   19   20 ar
    35   19   35 1
    36   20   21 ar
    37   20   22 1
    38   21   36 1
@<TRIPOS>MOLECULE
ZINC01609260
   36    39     0     0     0
SMALL
USER_CHARGES

@<TRIPOS>ATOM
      1 C1         -0.8018   -5.5010   -0.0193 C.ar      1 <0>        -0.1197
      2 C2          0.2183   -5.3887   -0.9469 C.ar      1 <0>        -0.1112
      3 C3          1.0287   -4.2719   -0.9536 C.ar      1 <0>        -0.1080
      4 C4          0.8181   -3.2556   -0.0226 C.ar      1 <0>        -0.0116
      5 C5         -0.2077   -3.3771    0.9139 C.ar      1 <0>        -0.1264
      6 C6         -1.0156   -4.4958    0.9069 C.ar      1 <0>        -0.1125
      7 C7          1.6851   -2.0534   -0.0246 C.2       1 <0>        -0.0946
      8 C8          3.0408   -2.0315   -0.0372 C.2       1 <0>         0.0606
      9 N1          3.4801   -0.7343   -0.0347 N.pl3     1 <0>        -0.4086
     10 C9          2.4135    0.1274   -0.0203 C.ar      1 <0>         0.3514
     11 C10         1.2440   -0.6524   -0.0133 C.ar      1 <0>        -0.2510
     12 C11         0.0021   -0.0041    0.0020 C.ar      1 <0>         0.4945
     13 N2         -0.0160    1.3262    0.0093 N.ar      1 <0>        -0.5987
     14 C12         1.1067    2.0214    0.0023 C.ar      1 <0>         0.3635
     15 N3          2.2936    1.4540   -0.0124 N.ar      1 <0>        -0.5643
     16 N4         -1.1762   -0.7291    0.0089 N.pl3     1 <0>        -0.8301
     17 C13         4.8254   -0.3439   -0.0444 C.ar      1 <0>         0.1198
     18 C14         5.2714    0.5924   -0.9676 C.ar      1 <0>        -0.0990
     19 C15         6.5970    0.9802   -0.9703 C.ar      1 <0>        -0.1026
     20 C16         7.4824    0.4276   -0.0631 C.ar      1 <0>        -0.1139
     21 C17         7.0425   -0.5097    0.8535 C.ar      1 <0>        -0.1045
     22 C18         5.7168   -0.8967    0.8656 C.ar      1 <0>        -0.1183
     23 H1         -1.4340   -6.3766   -0.0183 H         1 <0>         0.1248
     24 H2          0.3805   -6.1766   -1.6676 H         1 <0>         0.1262
     25 H3          1.8243   -4.1850   -1.6787 H         1 <0>         0.1252
     26 H4         -0.3724   -2.5952    1.6404 H         1 <0>         0.1246
     27 H5         -1.8133   -4.5891    1.6290 H         1 <0>         0.1266
     28 H6          3.6772   -2.9041   -0.0473 H         1 <0>         0.1819
     29 H7          1.0482    3.0998    0.0083 H         1 <0>         0.2016
     30 H8         -2.0294   -0.2679    0.0192 H         1 <0>         0.4080
     31 H9         -1.1490   -1.6987    0.0035 H         1 <0>         0.4124
     32 H10         4.5815    1.0209   -1.6795 H         1 <0>         0.1292
     33 H11         6.9435    1.7123   -1.6847 H         1 <0>         0.1327
     34 H12         8.5195    0.7288   -0.0703 H         1 <0>         0.1301
     35 H13         7.7363   -0.9393    1.5610 H         1 <0>         0.1326
     36 H14         5.3736   -1.6282    1.5822 H         1 <0>         0.1292
@<TRIPOS>BOND
     1    1    6 ar
     2    1    2 ar
     3    1   23 1
     4    2    3 ar
     5    2   24 1
     6    3    4 ar
     7    3   25 1
     8    4    5 ar
     9    4    7 1
    10    5    6 ar
    11    5   26 1
    12    6   27 1
    13    7   11 1
    14    7    8 2
    15    8    9 1
    16    8   28 1
    17    9   10 1
    18    9   17 1
    19   10   15 ar
    20   10   11 ar
    21   11   12 ar
    22   12   13 ar
    23   12   16 1
    24   13   14 ar
    25   14   15 ar
    26   14   29 1
    27   16   30 1
    28   16   31 1
    29   17   22 ar
    30   17   18 ar
    31   18   19 ar
    32   18   32 1
    33   19   20 ar
    34   19   33 1
    35   20   21 ar
    36   20   34 1
    37   21   22 ar
    38   21   35 1
    39   22   36 1
@<TRIPOS>MOLECULE
ZINC01609268
   40    43     0     0     0
SMALL
USER_CHARGES

@<TRIPOS>ATOM
      1 C1         -2.6307   -6.6583    0.9712 C.3       1 <0>         0.0252
      2 O1         -1.5977   -6.6056   -0.0148 O.3       1 <0>        -0.3158
      3 C2         -0.8031   -5.5028   -0.0177 C.ar      1 <0>         0.1292
      4 C3          0.2194   -5.3885   -0.9494 C.ar      1 <0>        -0.1432
      5 C4          1.0281   -4.2712   -0.9546 C.ar      1 <0>        -0.0662
      6 C5          0.8172   -3.2556   -0.0228 C.ar      1 <0>        -0.0504
      7 C6         -0.2077   -3.3758    0.9148 C.ar      1 <0>        -0.0839
      8 C7         -1.0158   -4.4936    0.9113 C.ar      1 <0>        -0.2017
      9 C8          1.6848   -2.0534   -0.0251 C.2       1 <0>        -0.0869
     10 C9          3.0402   -2.0322   -0.0379 C.2       1 <0>         0.0571
     11 N1          3.4801   -0.7341   -0.0351 N.pl3     1 <0>        -0.4090
     12 C10         2.4136    0.1274   -0.0203 C.ar      1 <0>         0.3514
     13 C11         1.2440   -0.6525   -0.0133 C.ar      1 <0>        -0.2518
     14 C12         0.0021   -0.0041    0.0020 C.ar      1 <0>         0.4942
     15 N2         -0.0160    1.3262    0.0093 N.ar      1 <0>        -0.5991
     16 C13         1.1068    2.0215    0.0023 C.ar      1 <0>         0.3631
     17 N3          2.2937    1.4541   -0.0120 N.ar      1 <0>        -0.5643
     18 N4         -1.1762   -0.7291    0.0089 N.pl3     1 <0>        -0.8306
     19 C14         4.8253   -0.3438   -0.0458 C.ar      1 <0>         0.1205
     20 C15         5.2708    0.5925   -0.9694 C.ar      1 <0>        -0.0992
     21 C16         6.5967    0.9791   -0.9740 C.ar      1 <0>        -0.1027
     22 C17         7.4827    0.4266   -0.0674 C.ar      1 <0>        -0.1141
     23 C18         7.0434   -0.5103    0.8499 C.ar      1 <0>        -0.1046
     24 C19         5.7175   -0.8968    0.8633 C.ar      1 <0>        -0.1184
     25 H1         -2.1864   -6.6147    1.9656 H         1 <0>         0.0571
     26 H2         -3.3046   -5.8121    0.8369 H         1 <0>         0.0569
     27 H3         -3.1890   -7.5882    0.8631 H         1 <0>         0.1022
     28 H4          0.3822   -6.1755   -1.6709 H         1 <0>         0.1354
     29 H5          1.8239   -4.1832   -1.6793 H         1 <0>         0.1334
     30 H6         -0.3709   -2.5930    1.6407 H         1 <0>         0.1279
     31 H7         -1.8125   -4.5855    1.6347 H         1 <0>         0.1325
     32 H8          3.6763   -2.9049   -0.0481 H         1 <0>         0.1818
     33 H9          1.0482    3.0998    0.0087 H         1 <0>         0.2011
     34 H10        -2.0294   -0.2678    0.0192 H         1 <0>         0.4077
     35 H11        -1.1490   -1.6987    0.0035 H         1 <0>         0.4118
     36 H12         4.5802    1.0214   -1.6805 H         1 <0>         0.1292
     37 H13         6.9428    1.7107   -1.6892 H         1 <0>         0.1325
     38 H14         8.5198    0.7278   -0.0755 H         1 <0>         0.1299
     39 H15         7.7377   -0.9401    1.5567 H         1 <0>         0.1324
     40 H16         5.3748   -1.6281    1.5804 H         1 <0>         0.1292
@<TRIPOS>BOND
     1    1    2 1
     2    1   25 1
     3    1   26 1
     4    1   27 1
     5    2    3 1
     6    3    8 ar
     7    3    4 ar
     8    4    5 ar
     9    4   28 1
    10    5    6 ar
    11    5   29 1
    12    6    7 ar
    13    6    9 1
    14    7    8 ar
    15    7   30 1
    16    8   31 1
    17    9   13 1
    18    9   10 2
    19   10   11 1
    20   10   32 1
    21   11   12 1
    22   11   19 1
    23   12   17 ar
    24   12   13 ar
    25   13   14 ar
    26   14   15 ar
    27   14   18 1
    28   15   16 ar
    29   16   17 ar
    30   16   33 1
    31   18   34 1
    32   18   35 1
    33   19   24 ar
    34   19   20 ar
    35   20   21 ar
    36   20   36 1
    37   21   22 ar
    38   21   37 1
    39   22   23 ar
    40   22   38 1
    41   23   24 ar
    42   23   39 1
    43   24   40 1
@<TRIPOS>MOLECULE
ZINC02005174
   44    46     0     0     0
SMALL
USER_CHARGES

@<TRIPOS>ATOM
      1 C1         -3.3805   -3.8586    5.9527 C.3       1 <0>        -0.1524
      2 C2         -2.1593   -2.9388    5.8946 C.3       1 <0>         0.0510
      3 O1         -1.4114   -3.2144    4.7084 O.3       1 <0>        -0.2972
      4 C3         -0.2867   -2.4782    4.5027 C.ar      1 <0>         0.1309
      5 C4          0.0792   -1.5323    5.4167 C.ar      1 <0>        -0.1606
      6 C5          1.2351   -0.7670    5.2039 C.ar      1 <0>        -0.0985
      7 C6          2.0221   -0.9820    4.0466 C.ar      1 <0>         0.1669
      8 C7          1.6287   -1.9645    3.1252 C.ar      1 <0>        -0.1780
      9 C8          0.4897   -2.7017    3.3573 C.ar      1 <0>         0.1589
     10 O2          0.1108   -3.6523    2.4637 O.3       1 <0>        -0.2949
     11 C9          0.9402   -3.8286    1.3134 C.3       1 <0>         0.0477
     12 C10         0.3582   -4.9337    0.4297 C.3       1 <0>        -0.1530
     13 N1          3.1290   -0.2541    3.8378 N.ar      1 <0>        -0.4615
     14 C11         3.5214    0.6684    4.6788 C.ar      1 <0>         0.1786
     15 C12         2.8020    0.9491    5.8516 C.ar      1 <0>        -0.0882
     16 C13         1.6339    0.2238    6.1308 C.ar      1 <0>         0.2631
     17 N2          0.8981    0.4692    7.2731 N.pl3     1 <0>        -0.7038
     18 C14         1.1827   -0.2271    8.4506 C.ar      1 <0>         0.2093
     19 C15         2.1172   -1.2554    8.4428 C.ar      1 <0>        -0.1653
     20 C16         2.4000   -1.9386    9.6090 C.ar      1 <0>        -0.0668
     21 C17         1.7467   -1.6076   10.7821 C.ar      1 <0>        -0.1340
     22 C18         0.8118   -0.5877   10.7928 C.ar      1 <0>        -0.0460
     23 C19         0.5281    0.1034    9.6300 C.ar      1 <0>        -0.1524
     24 Br1        -0.0790   -0.1395   12.3995 Br        1 <0>        -0.0441
     25 C20         3.2555    1.9653    6.7528 C.1       1 <0>         0.2539
     26 N3          3.6153    2.7715    7.4678 N.1       1 <0>        -0.3938
     27 H1         -4.0083   -3.6847    5.0788 H         1 <0>         0.0684
     28 H2         -3.0524   -4.8979    5.9634 H         1 <0>         0.0687
     29 H3         -3.9509   -3.6483    6.8575 H         1 <0>         0.0811
     30 H4         -1.5315   -3.1127    6.7685 H         1 <0>         0.0653
     31 H5         -2.4874   -1.8994    5.8839 H         1 <0>         0.0642
     32 H6         -0.5230   -1.3699    6.2984 H         1 <0>         0.1475
     33 H7          2.2176   -2.1418    2.2374 H         1 <0>         0.1568
     34 H8          1.9453   -4.1078    1.6295 H         1 <0>         0.0691
     35 H9          0.9823   -2.8968    0.7495 H         1 <0>         0.0690
     36 H10         0.9907   -5.0682   -0.4477 H         1 <0>         0.0821
     37 H11         0.3161   -5.8656    0.9936 H         1 <0>         0.0682
     38 H12        -0.6470   -4.6546    0.1136 H         1 <0>         0.0681
     39 H13         4.4203    1.2277    4.4655 H         1 <0>         0.1739
     40 H14         0.1835    1.1250    7.2581 H         1 <0>         0.4189
     41 H15         2.6249   -1.5174    7.5262 H         1 <0>         0.1261
     42 H16         3.1292   -2.7352    9.6040 H         1 <0>         0.1351
     43 H17         1.9671   -2.1461   11.6920 H         1 <0>         0.1336
     44 H18        -0.2020    0.8992    9.6385 H         1 <0>         0.1343
@<TRIPOS>BOND
     1    1    2 1
     2    1   27 1
     3    1   28 1
     4    1   29 1
     5    2    3 1
     6    2   30 1
     7    2   31 1
     8    3    4 1
     9    4    9 ar
    10    4    5 ar
    11    5    6 ar
    12    5   32 1
    13    6   16 ar
    14    6    7 ar
    15    7    8 ar
    16    7   13 ar
    17    8    9 ar
    18    8   33 1
    19    9   10 1
    20   10   11 1
    21   11   12 1
    22   11   34 1
    23   11   35 1
    24   12   36 1
    25   12   37 1
    26   12   38 1
    27   13   14 ar
    28   14   15 ar
    29   14   39 1
    30   15   16 ar
    31   15   25 1
    32   16   17 1
    33   17   18 1
    34   17   40 1
    35   18   23 ar
    36   18   19 ar
    37   19   20 ar
    38   19   41 1
    39   20   21 ar
    40   20   42 1
    41   21   22 ar
    42   21   43 1
    43   22   23 ar
    44   22   24 1
    45   23   44 1
    46   25   26 3
@<TRIPOS>MOLECULE
ZINC02047503
   45    48     0     0     0
SMALL
USER_CHARGES

@<TRIPOS>ATOM
      1 C1          0.0685    1.0902    0.1116 C.3       1 <0>         0.0699
      2 N1         -0.4262    1.5833    1.3993 N.am      1 <0>        -0.5062
      3 C2         -0.5386    2.9342    1.6113 C.ar      1 <0>         0.4668
      4 C3         -1.0182    3.4258    2.8448 C.ar      1 <0>        -0.2772
      5 C4         -1.3770    2.5290    3.8769 C.2       1 <0>         0.0314
      6 C5         -1.2566    1.1828    3.6580 C.2       1 <0>        -0.1643
      7 C6         -0.7609    0.7061    2.3650 C.2       1 <0>         0.5577
      8 O1         -0.6511   -0.4900    2.1618 O.2       1 <0>        -0.5027
      9 C7         -1.6241    0.2171    4.7198 C.ar      1 <0>        -0.0102
     10 C8         -0.6661   -0.2109    5.6397 C.ar      1 <0>        -0.0065
     11 C9         -1.0165   -1.1073    6.6304 C.ar      1 <0>        -0.1064
     12 C10        -2.3111   -1.5889    6.7051 C.ar      1 <0>        -0.0874
     13 C11        -3.2642   -1.1726    5.7932 C.ar      1 <0>        -0.1064
     14 C12        -2.9282   -0.2726    4.8008 C.ar      1 <0>        -0.0064
     15 Cl1        -4.1255    0.2477    3.6566 Cl        1 <0>        -0.0501
     16 Cl2         0.9610    0.3864    5.5428 Cl        1 <0>        -0.0503
     17 C13        -1.1231    4.8140    3.0188 C.ar      1 <0>         0.2643
     18 N2         -0.7739    5.6039    2.0208 N.ar      1 <0>        -0.5677
     19 C14        -0.3311    5.1056    0.8717 C.ar      1 <0>         0.6091
     20 N3         -0.2145    3.8035    0.6608 N.ar      1 <0>        -0.5948
     21 N4          0.0210    5.9779   -0.1404 N.pl3     1 <0>        -0.6255
     22 C15        -0.1997    7.3500    0.0111 C.ar      1 <0>         0.1535
     23 C16        -1.3058    7.8032    0.7190 C.ar      1 <0>        -0.1019
     24 C17        -1.5179    9.1592    0.8714 C.ar      1 <0>        -0.1022
     25 C18        -0.6364   10.0658    0.3112 C.ar      1 <0>        -0.1107
     26 C19         0.4624    9.6181   -0.3988 C.ar      1 <0>        -0.0740
     27 C20         0.6833    8.2631   -0.5504 C.ar      1 <0>        -0.1226
     28 C21         1.4197   10.6097   -1.0082 C.3       1 <0>         0.1166
     29 O2          0.9930   10.9310   -2.3336 O.3       1 <0>        -0.5676
     30 H1          0.0950    0.0006    0.1256 H         1 <0>         0.1008
     31 H2          1.0728    1.4758   -0.0636 H         1 <0>         0.0801
     32 H3         -0.5942    1.4272   -0.6855 H         1 <0>         0.0804
     33 H4         -1.7410    2.9000    4.8236 H         1 <0>         0.1507
     34 H5         -0.2771   -1.4360    7.3457 H         1 <0>         0.1438
     35 H6         -2.5787   -2.2934    7.4788 H         1 <0>         0.1454
     36 H7         -4.2732   -1.5525    5.8570 H         1 <0>         0.1438
     37 H8         -1.4817    5.2275    3.9498 H         1 <0>         0.1884
     38 H9          0.4212    5.6382   -0.9561 H         1 <0>         0.4268
     39 H10        -1.9968    7.0958    1.1532 H         1 <0>         0.1360
     40 H11        -2.3754    9.5121    1.4250 H         1 <0>         0.1294
     41 H12        -0.8068   11.1258    0.4283 H         1 <0>         0.1250
     42 H13         1.5416    7.9141   -1.1054 H         1 <0>         0.1259
     43 H14         1.4384   11.5159   -0.4028 H         1 <0>         0.0579
     44 H15         2.4189   10.1755   -1.0434 H         1 <0>         0.0551
     45 H16         1.5640   11.5657   -2.7877 H         1 <0>         0.3824
@<TRIPOS>BOND
     1    1    2 1
     2    1   30 1
     3    1   31 1
     4    1   32 1
     5    2    7 am
     6    2    3 1
     7    3   20 ar
     8    3    4 ar
     9    4    5 1
    10    4   17 ar
    11    5    6 2
    12    5   33 1
    13    6    7 1
    14    6    9 1
    15    7    8 2
    16    9   14 ar
    17    9   10 ar
    18   10   11 ar
    19   10   16 1
    20   11   12 ar
    21   11   34 1
    22   12   13 ar
    23   12   35 1
    24   13   14 ar
    25   13   36 1
    26   14   15 1
    27   17   18 ar
    28   17   37 1
    29   18   19 ar
    30   19   20 ar
    31   19   21 1
    32   21   22 1
    33   21   38 1
    34   22   27 ar
    35   22   23 ar
    36   23   24 ar
    37   23   39 1
    38   24   25 ar
    39   24   40 1
    40   25   26 ar
    41   25   41 1
    42   26   27 ar
    43   26   28 1
    44   27   42 1
    45   28   29 1
    46   28   43 1
    47   28   44 1
    48   29   45 1
@<TRIPOS>MOLECULE
ZINC02391775
   34    37     0     0     0
SMALL
USER_CHARGES

@<TRIPOS>ATOM
      1 C1         -1.1914   -0.8057    0.9837 C.3       1 <0>         0.0787
      2 N1         -0.0211    0.0718    0.9018 N.pl3     1 <0>        -0.5128
      3 C2          1.2804   -0.3033    1.0457 C.2       1 <0>         0.2914
      4 N2          2.0637    0.7255    0.9133 N.2       1 <0>        -0.4975
      5 C3          1.3204    1.8399    0.6739 C.ar      1 <0>         0.0392
      6 C4         -0.0336    1.4336    0.6632 C.ar      1 <0>         0.1036
      7 C5         -1.0416    2.3479    0.4378 C.ar      1 <0>        -0.1114
      8 C6         -0.7213    3.6912    0.2268 C.ar      1 <0>         0.1930
      9 C7          0.6377    4.1027    0.2368 C.ar      1 <0>        -0.1873
     10 C8          1.6510    3.1715    0.4609 C.ar      1 <0>        -0.0127
     11 C9          0.9213    5.4740    0.0136 C.ar      1 <0>         0.4798
     12 N3         -0.0957    6.2996   -0.1922 N.ar      1 <0>        -0.5895
     13 C10        -1.3479    5.8693   -0.1930 C.ar      1 <0>         0.3496
     14 N4         -1.6722    4.6149    0.0073 N.ar      1 <0>        -0.5468
     15 N5          2.2207    5.9371    0.0115 N.pl3     1 <0>        -0.6369
     16 C11         2.4739    7.3080   -0.0900 C.ar      1 <0>         0.1582
     17 C12         1.6176    8.2206    0.5135 C.ar      1 <0>        -0.0917
     18 C13         1.8702    9.5743    0.4116 C.ar      1 <0>        -0.0933
     19 C14         2.9742   10.0226   -0.2902 C.ar      1 <0>        -0.1033
     20 C15         3.8293    9.1169   -0.8925 C.ar      1 <0>        -0.0718
     21 C16         3.5851    7.7604   -0.7894 C.ar      1 <0>        -0.1182
     22 Br1         5.3379    9.7350   -1.8506 Br        1 <0>        -0.0447
     23 H1         -1.4201   -1.1997   -0.0065 H         1 <0>         0.0780
     24 H2         -0.9796   -1.6312    1.6633 H         1 <0>         0.0926
     25 H3         -2.0451   -0.2390    1.3553 H         1 <0>         0.0866
     26 H4          1.6139   -1.3117    1.2415 H         1 <0>         0.2205
     27 H5         -2.0729    2.0274    0.4267 H         1 <0>         0.1409
     28 H6          2.6849    3.4836    0.4691 H         1 <0>         0.1361
     29 H7         -2.1384    6.5846   -0.3662 H         1 <0>         0.1978
     30 H8          2.9586    5.3113    0.0804 H         1 <0>         0.4232
     31 H9          0.7549    7.8715    1.0616 H         1 <0>         0.1416
     32 H10         1.2048   10.2839    0.8810 H         1 <0>         0.1372
     33 H11         3.1696   11.0820   -0.3680 H         1 <0>         0.1348
     34 H12         4.2551    7.0534   -1.2558 H         1 <0>         0.1352
@<TRIPOS>BOND
     1    1    2 1
     2    1   23 1
     3    1   24 1
     4    1   25 1
     5    2    6 1
     6    2    3 1
     7    3    4 2
     8    3   26 1
     9    4    5 1
    10    5   10 ar
    11    5    6 ar
    12    6    7 ar
    13    7    8 ar
    14    7   27 1
    15    8   14 ar
    16    8    9 ar
    17    9   10 ar
    18    9   11 ar
    19   10   28 1
    20   11   12 ar
    21   11   15 1
    22   12   13 ar
    23   13   14 ar
    24   13   29 1
    25   15   16 1
    26   15   30 1
    27   16   21 ar
    28   16   17 ar
    29   17   18 ar
    30   17   31 1
    31   18   19 ar
    32   18   32 1
    33   19   20 ar
    34   19   33 1
    35   20   21 ar
    36   20   22 1
    37   21   34 1
@<TRIPOS>MOLECULE
ZINC02391776
   32    34     0     0     0
SMALL
USER_CHARGES

@<TRIPOS>ATOM
      1 C1          4.3677   -4.4184   -0.3538 C.ar      1 <0>        -0.0922
      2 C2          4.4339   -3.0422   -0.4526 C.ar      1 <0>        -0.1371
      3 C3          3.4082   -2.2600    0.0624 C.ar      1 <0>         0.1641
      4 C4          2.3210   -2.8645    0.6808 C.ar      1 <0>        -0.0857
      5 C5          2.2584   -4.2418    0.7723 C.ar      1 <0>        -0.0701
      6 C6          3.2822   -5.0179    0.2574 C.ar      1 <0>        -0.1106
      7 Br1         0.7762   -5.0667    1.6079 Br        1 <0>        -0.0459
      8 N1          3.4724   -0.8672   -0.0362 N.pl3     1 <0>        -0.6426
      9 C7          2.3131   -0.1310   -0.1813 C.ar      1 <0>         0.4552
     10 C8          2.3444    1.2832   -0.1658 C.ar      1 <0>        -0.1800
     11 C9          3.5398    1.9953   -0.0043 C.ar      1 <0>        -0.1411
     12 C10         3.5180    3.3616    0.0042 C.ar      1 <0>         0.1640
     13 C11         2.3079    4.0604   -0.1474 C.ar      1 <0>         0.2149
     14 C12         1.1192    3.3810   -0.3073 C.ar      1 <0>        -0.1751
     15 C13         1.1206    1.9808   -0.3196 C.ar      1 <0>         0.1975
     16 N2         -0.0100    1.2733   -0.4721 N.ar      1 <0>        -0.5425
     17 C14         0.0217   -0.0381   -0.4781 C.ar      1 <0>         0.3328
     18 N3          1.1404   -0.7314   -0.3384 N.ar      1 <0>        -0.5845
     19 N4          2.3098    5.4553   -0.1356 N.pl3     1 <0>        -0.8684
     20 N5          4.7125    4.0723    0.1661 N.pl3     1 <0>        -0.8791
     21 H1          5.1652   -5.0268   -0.7542 H         1 <0>         0.1356
     22 H2          5.2823   -2.5748   -0.9303 H         1 <0>         0.1300
     23 H3          1.5242   -2.2589    1.0866 H         1 <0>         0.1488
     24 H4          3.2332   -6.0941    0.3337 H         1 <0>         0.1332
     25 H5          4.3314   -0.4177   -0.0028 H         1 <0>         0.4205
     26 H6          4.4744    1.4669    0.1132 H         1 <0>         0.1248
     27 H7          0.1932    3.9249   -0.4225 H         1 <0>         0.1410
     28 H8         -0.9064   -0.5761   -0.6029 H         1 <0>         0.1932
     29 H9          3.1435    5.9382   -0.0231 H         1 <0>         0.3959
     30 H10         1.4775    5.9423   -0.2398 H         1 <0>         0.4067
     31 H11         5.5503    3.5950    0.2714 H         1 <0>         0.4028
     32 H12         4.7026    5.0422    0.1729 H         1 <0>         0.3939
@<TRIPOS>BOND
     1    1    6 ar
     2    1    2 ar
     3    1   21 1
     4    2    3 ar
     5    2   22 1
     6    3    4 ar
     7    3    8 1
     8    4    5 ar
     9    4   23 1
    10    5    6 ar
    11    5    7 1
    12    6   24 1
    13    8    9 1
    14    8   25 1
    15    9   18 ar
    16    9   10 ar
    17   10   15 ar
    18   10   11 ar
    19   11   12 ar
    20   11   26 1
    21   12   13 ar
    22   12   20 1
    23   13   14 ar
    24   13   19 1
    25   14   15 ar
    26   14   27 1
    27   15   16 ar
    28   16   17 ar
    29   17   18 ar
    30   17   28 1
    31   19   29 1
    32   19   30 1
    33   20   31 1
    34   20   32 1
@<TRIPOS>MOLECULE
ZINC02391785
   35    37     0     0     0
SMALL
USER_CHARGES

@<TRIPOS>ATOM
      1 C1          4.8202    5.0911    0.3084 C.3       1 <0>         0.0892
      2 N1          3.5536    5.8098    0.1488 N.pl3     1 <0>        -0.7443
      3 C2          2.3477    5.1088    0.1599 C.ar      1 <0>         0.2105
      4 C3          2.3556    3.7395    0.3215 C.ar      1 <0>        -0.1740
      5 C4          1.1437    3.0388    0.3322 C.ar      1 <0>         0.1973
      6 C5         -0.0735    3.7479    0.1767 C.ar      1 <0>        -0.1795
      7 C6         -0.0565    5.1388    0.0139 C.ar      1 <0>        -0.1426
      8 C7          1.1369    5.8051    0.0062 C.ar      1 <0>         0.1669
      9 N2          1.1530    7.1949   -0.1560 N.pl3     1 <0>        -0.8790
     10 C8         -1.2815    3.0118    0.1922 C.ar      1 <0>         0.4548
     11 N3         -1.2128    1.6958    0.3462 N.ar      1 <0>        -0.5846
     12 C9         -0.0525    1.0763    0.4933 C.ar      1 <0>         0.3322
     13 N4          1.0982    1.7061    0.4869 N.ar      1 <0>        -0.5424
     14 N5         -2.4996    3.6455    0.0451 N.pl3     1 <0>        -0.6427
     15 C10        -3.6724    2.8914   -0.0533 C.ar      1 <0>         0.1642
     16 C11        -4.8639    3.3870    0.4615 C.ar      1 <0>        -0.1370
     17 C12        -6.0211    2.6400    0.3625 C.ar      1 <0>        -0.0923
     18 C13        -5.9954    1.3998   -0.2488 C.ar      1 <0>        -0.1107
     19 C14        -4.8109    0.9031   -0.7630 C.ar      1 <0>        -0.0701
     20 C15        -3.6502    1.6478   -0.6710 C.ar      1 <0>        -0.0858
     21 Br1        -4.7813   -0.7931   -1.5985 Br        1 <0>        -0.0461
     22 H1          4.8256    4.5730    1.2674 H         1 <0>         0.0590
     23 H2          4.9301    4.3653   -0.4973 H         1 <0>         0.0590
     24 H3          5.6472    5.8003    0.2739 H         1 <0>         0.0768
     25 H4          3.5536    6.7732    0.0354 H         1 <0>         0.3978
     26 H5          3.2902    3.2113    0.4394 H         1 <0>         0.1418
     27 H6         -0.9821    5.6824   -0.1053 H         1 <0>         0.1246
     28 H7          0.3201    7.6805   -0.2622 H         1 <0>         0.4028
     29 H8          1.9972    7.6727   -0.1622 H         1 <0>         0.3934
     30 H9         -0.0529    0.0037    0.6200 H         1 <0>         0.1929
     31 H10        -2.5413    4.6140    0.0099 H         1 <0>         0.4205
     32 H11        -4.8850    4.3554    0.9391 H         1 <0>         0.1300
     33 H12        -6.9474    3.0250    0.7626 H         1 <0>         0.1355
     34 H13        -6.9020    0.8178   -0.3252 H         1 <0>         0.1331
     35 H14        -2.7265    1.2617   -1.0761 H         1 <0>         0.1489
@<TRIPOS>BOND
     1    1    2 1
     2    1   22 1
     3    1   23 1
     4    1   24 1
     5    2    3 1
     6    2   25 1
     7    3    8 ar
     8    3    4 ar
     9    4    5 ar
    10    4   26 1
    11    5   13 ar
    12    5    6 ar
    13    6    7 ar
    14    6   10 ar
    15    7    8 ar
    16    7   27 1
    17    8    9 1
    18    9   28 1
    19    9   29 1
    20   10   11 ar
    21   10   14 1
    22   11   12 ar
    23   12   13 ar
    24   12   30 1
    25   14   15 1
    26   14   31 1
    27   15   20 ar
    28   15   16 ar
    29   16   17 ar
    30   16   32 1
    31   17   18 ar
    32   17   33 1
    33   18   19 ar
    34   18   34 1
    35   19   20 ar
    36   19   21 1
    37   20   35 1
@<TRIPOS>MOLECULE
ZINC02572485
   42    44     0     0     0
SMALL
USER_CHARGES

@<TRIPOS>ATOM
      1 C1          7.0657    4.2294    0.4737 C.3       1 <0>        -0.1526
      2 C2          5.8725    3.2858    0.3104 C.3       1 <0>         0.0499
      3 O1          4.6759    4.0526    0.1608 O.3       1 <0>        -0.2987
      4 C3          3.5154    3.3614    0.0039 C.ar      1 <0>         0.1146
      5 C4          3.5385    1.9956   -0.0045 C.ar      1 <0>        -0.1500
      6 C5          2.3443    1.2830   -0.1660 C.ar      1 <0>        -0.1818
      7 C6          1.1206    1.9806   -0.3200 C.ar      1 <0>         0.2015
      8 C7          1.1201    3.3807   -0.3075 C.ar      1 <0>        -0.1846
      9 C8          2.3085    4.0583   -0.1471 C.ar      1 <0>         0.1670
     10 O2          2.3110    5.4167   -0.1347 O.3       1 <0>        -0.2958
     11 C9          1.0496    6.0693   -0.2931 C.3       1 <0>         0.0479
     12 C10         1.2511    7.5854   -0.2533 C.3       1 <0>        -0.1523
     13 N1         -0.0100    1.2732   -0.4726 N.ar      1 <0>        -0.5407
     14 C11         0.0218   -0.0382   -0.4786 C.ar      1 <0>         0.3428
     15 N2          1.1403   -0.7318   -0.3387 N.ar      1 <0>        -0.5799
     16 C12         2.3130   -0.1318   -0.1814 C.ar      1 <0>         0.4626
     17 N3          3.4719   -0.8679   -0.0362 N.pl3     1 <0>        -0.6400
     18 C13         3.4074   -2.2607    0.0624 C.ar      1 <0>         0.1594
     19 C14         4.4332   -3.0433   -0.4528 C.ar      1 <0>        -0.1340
     20 C15         4.3671   -4.4190   -0.3535 C.ar      1 <0>        -0.0917
     21 C16         3.2815   -5.0185    0.2584 C.ar      1 <0>        -0.1073
     22 C17         2.2581   -4.2425    0.7730 C.ar      1 <0>        -0.0705
     23 C18         2.3205   -2.8649    0.6807 C.ar      1 <0>        -0.0847
     24 Br1         0.7761   -5.0671    1.6093 Br        1 <0>        -0.0436
     25 H1          7.9785    3.6446    0.5877 H         1 <0>         0.0807
     26 H2          7.1494    4.8653   -0.4077 H         1 <0>         0.0686
     27 H3          6.9194    4.8506    1.3573 H         1 <0>         0.0687
     28 H4          5.7888    2.6500    1.1917 H         1 <0>         0.0634
     29 H5          6.0188    2.6646   -0.5733 H         1 <0>         0.0631
     30 H6          4.4735    1.4680    0.1133 H         1 <0>         0.1381
     31 H7          0.1948    3.9253   -0.4232 H         1 <0>         0.1554
     32 H8          0.6117    5.7859   -1.2503 H         1 <0>         0.0685
     33 H9          0.3818    5.7702    0.5147 H         1 <0>         0.0685
     34 H10         1.9190    7.8845   -1.0612 H         1 <0>         0.0680
     35 H11         0.2890    8.0831   -0.3742 H         1 <0>         0.0819
     36 H12         1.6890    7.8687    0.7038 H         1 <0>         0.0680
     37 H13        -0.9064   -0.5760   -0.6035 H         1 <0>         0.1983
     38 H14         4.3309   -0.4186   -0.0026 H         1 <0>         0.4206
     39 H15         5.2815   -2.5761   -0.9308 H         1 <0>         0.1310
     40 H16         5.1645   -5.0276   -0.7539 H         1 <0>         0.1370
     41 H17         3.2325   -6.0947    0.3350 H         1 <0>         0.1346
     42 H18         1.5236   -2.2591    1.0862 H         1 <0>         0.1484
@<TRIPOS>BOND
     1    1    2 1
     2    1   25 1
     3    1   26 1
     4    1   27 1
     5    2    3 1
     6    2   28 1
     7    2   29 1
     8    3    4 1
     9    4    9 ar
    10    4    5 ar
    11    5    6 ar
    12    5   30 1
    13    6   16 ar
    14    6    7 ar
    15    7    8 ar
    16    7   13 ar
    17    8    9 ar
    18    8   31 1
    19    9   10 1
    20   10   11 1
    21   11   12 1
    22   11   32 1
    23   11   33 1
    24   12   34 1
    25   12   35 1
    26   12   36 1
    27   13   14 ar
    28   14   15 ar
    29   14   37 1
    30   15   16 ar
    31   16   17 1
    32   17   18 1
    33   17   38 1
    34   18   23 ar
    35   18   19 ar
    36   19   20 ar
    37   19   39 1
    38   20   21 ar
    39   20   40 1
    40   21   22 ar
    41   21   41 1
    42   22   23 ar
    43   22   24 1
    44   23   42 1
@<TRIPOS>MOLECULE
ZINC02640583
   25    27     0     0     0
SMALL
USER_CHARGES

@<TRIPOS>ATOM
      1 C1         -1.1116    2.9174   -0.7433 C.ar      1 <0>        -0.0921
      2 C2          0.0726    3.6286   -0.7419 C.ar      1 <0>        -0.0974
      3 C3          1.1560    3.1698   -0.0036 C.ar      1 <0>         0.1589
      4 C4          1.0449    1.9964    0.7315 C.ar      1 <0>        -0.1210
      5 C5         -0.1423    1.2896    0.7260 C.ar      1 <0>        -0.0704
      6 C6         -1.2215    1.7529   -0.0063 C.ar      1 <0>        -0.1053
      7 Br1        -0.2955   -0.3077    1.7267 Br        1 <0>        -0.0441
      8 N1          2.3553    3.8876   -0.0000 N.pl3     1 <0>        -0.6416
      9 C7          2.3359    5.2683   -0.0969 C.ar      1 <0>         0.4815
     10 C8          3.5506    5.9991   -0.2126 C.ar      1 <0>        -0.2445
     11 C9          4.9217    5.5220   -0.2500 C.2       1 <0>        -0.1204
     12 C10         5.9210    6.4093   -0.3647 C.2       1 <0>        -0.1614
     13 S1          5.0785    7.9791   -0.4321 S.3       1 <0>         0.1147
     14 C11         3.4070    7.4010   -0.3045 C.ar      1 <0>         0.1474
     15 N2          2.2194    7.9732   -0.2830 N.ar      1 <0>        -0.5143
     16 C12         1.1278    7.2412   -0.1741 C.ar      1 <0>         0.3634
     17 N3          1.1868    5.9242   -0.0885 N.ar      1 <0>        -0.5757
     18 H1         -1.9541    3.2739   -1.3173 H         1 <0>         0.1373
     19 H2          0.1561    4.5403   -1.3147 H         1 <0>         0.1427
     20 H3          1.8853    1.6372    1.3069 H         1 <0>         0.1344
     21 H4         -2.1500    1.2014   -0.0053 H         1 <0>         0.1351
     22 H5          3.2013    3.4182    0.0704 H         1 <0>         0.4234
     23 H6          5.1343    4.4650   -0.1858 H         1 <0>         0.1384
     24 H7          6.9832    6.2183   -0.4063 H         1 <0>         0.1988
     25 H8          0.1643    7.7288   -0.1584 H         1 <0>         0.2120
@<TRIPOS>BOND
     1    1    6 ar
     2    1    2 ar
     3    1   18 1
     4    2    3 ar
     5    2   19 1
     6    3    4 ar
     7    3    8 1
     8    4    5 ar
     9    4   20 1
    10    5    6 ar
    11    5    7 1
    12    6   21 1
    13    8    9 1
    14    8   22 1
    15    9   17 ar
    16    9   10 ar
    17   10   14 ar
    18   10   11 1
    19   11   12 2
    20   11   23 1
    21   12   13 1
    22   12   24 1
    23   13   14 1
    24   14   15 ar
    25   15   16 ar
    26   16   17 ar
    27   16   25 1
@<TRIPOS>MOLECULE
ZINC03813424
   33    35     0     0     0
SMALL
USER_CHARGES

@<TRIPOS>ATOM
      1 C1         -3.6357   -2.0147   -0.3098 C.3       1 <0>         0.0718
      2 N1         -3.5888   -0.5619   -0.1270 N.pl3     1 <0>        -0.7121
      3 C2         -2.3630    0.0818    0.0237 C.ar      1 <0>         0.3983
      4 C3         -1.1975   -0.6654   -0.0016 C.ar      1 <0>        -0.1374
      5 C4          0.0199    0.0007    0.1514 C.ar      1 <0>        -0.0648
      6 C5          0.0114    1.4088    0.3255 C.ar      1 <0>         0.1198
      7 C6         -1.2200    2.0755    0.3424 C.ar      1 <0>         0.2215
      8 N2          1.1832    2.0418    0.4722 N.ar      1 <0>        -0.5243
      9 C7          2.3130    1.3791    0.4558 C.ar      1 <0>         0.3829
     10 N3          2.3968    0.0675    0.2981 N.ar      1 <0>        -0.5475
     11 C8          1.3108   -0.6806    0.1421 C.ar      1 <0>         0.4692
     12 N4          1.3992   -2.0476   -0.0228 N.pl3     1 <0>        -0.6087
     13 C9          2.6510   -2.6575   -0.1435 C.ar      1 <0>         0.1280
     14 C10         2.8501   -3.9416    0.3485 C.ar      1 <0>        -0.1179
     15 C11         4.0878   -4.5418    0.2275 C.ar      1 <0>        -0.0898
     16 C12         5.1289   -3.8668   -0.3832 C.ar      1 <0>        -0.0883
     17 C13         4.9344   -2.5882   -0.8748 C.ar      1 <0>        -0.0739
     18 C14         3.6967   -1.9836   -0.7606 C.ar      1 <0>        -0.0786
     19 Br1         6.3609   -1.6700   -1.7100 Br        1 <0>        -0.0289
     20 H1         -4.6728   -2.3350   -0.4095 H         1 <0>         0.1060
     21 H2         -3.0837   -2.2856   -1.2098 H         1 <0>         0.0791
     22 H3         -3.1856   -2.5043    0.5537 H         1 <0>         0.0789
     23 H4         -4.4115   -0.0483   -0.1109 H         1 <0>         0.4211
     24 H5         -1.2293   -1.7366   -0.1359 H         1 <0>         0.1800
     25 H6         -1.2516    3.1470    0.4735 H         1 <0>         0.2176
     26 H7          3.2304    1.9358    0.5779 H         1 <0>         0.2193
     27 H8          0.5925   -2.5854   -0.0548 H         1 <0>         0.4269
     28 H9          2.0377   -4.4696    0.8256 H         1 <0>         0.1359
     29 H10         4.2428   -5.5399    0.6098 H         1 <0>         0.1444
     30 H11         6.0958   -4.3388   -0.4768 H         1 <0>         0.1419
     31 H12         3.5441   -0.9870   -1.1477 H         1 <0>         0.1476
     32 N5         -2.4116    1.4433    0.1898 N.ar      1 <0>        -0.4961
     33 H13        -3.3012    1.9560    0.1983 H         1 <0>         0.4778
@<TRIPOS>BOND
     1    1    2 1
     2    1   20 1
     3    1   21 1
     4    1   22 1
     5    2    3 1
     6    2   23 1
     7    3    4 ar
     8    3   32 ar
     9    4    5 ar
    10    4   24 1
    11    5   11 ar
    12    5    6 ar
    13    6    7 ar
    14    6    8 ar
    15    7   25 1
    16    7   32 ar
    17    8    9 ar
    18    9   10 ar
    19    9   26 1
    20   10   11 ar
    21   11   12 1
    22   12   13 1
    23   12   27 1
    24   13   18 ar
    25   13   14 ar
    26   14   15 ar
    27   14   28 1
    28   15   16 ar
    29   15   29 1
    30   16   17 ar
    31   16   30 1
    32   17   18 ar
    33   17   19 1
    34   18   31 1
    35   32   33 1
@<TRIPOS>MOLECULE
ZINC03813425
   30    32     0     0     0
SMALL
USER_CHARGES

@<TRIPOS>ATOM
      1 C1          7.1303    4.3723    0.2470 C.ar      1 <0>        -0.0884
      2 C2          5.9589    3.6492    0.3605 C.ar      1 <0>        -0.1210
      3 C3          4.7694    4.1752   -0.1272 C.ar      1 <0>         0.1317
      4 C4          4.7629    5.4253   -0.7329 C.ar      1 <0>        -0.0798
      5 C5          5.9370    6.1460   -0.8386 C.ar      1 <0>        -0.0728
      6 C6          7.1203    5.6185   -0.3515 C.ar      1 <0>        -0.0885
      7 Br1         5.9288    7.8507   -1.6570 Br        1 <0>        -0.0268
      8 N1          3.5826    3.4458   -0.0137 N.pl3     1 <0>        -0.6310
      9 C7          2.3813    4.1044    0.1608 C.ar      1 <0>         0.4498
     10 C8          1.1545    3.3923    0.1612 C.ar      1 <0>        -0.0038
     11 C9         -0.0379    4.1291    0.3456 C.ar      1 <0>         0.1720
     12 C10        -1.2690    3.4473    0.3498 C.ar      1 <0>         0.0693
     13 C11        -1.2576    2.0956    0.1691 C.ar      1 <0>        -0.1664
     14 C12        -0.0393    1.4238   -0.0035 C.ar      1 <0>         0.5127
     15 N2         -0.0426    0.0470   -0.1814 N.pl3     1 <0>        -0.7997
     16 N3          0.0380    5.4565    0.5109 N.ar      1 <0>        -0.4953
     17 C13         1.2015    6.0626    0.5015 C.ar      1 <0>         0.3693
     18 N4          2.3450    5.4178    0.3322 N.ar      1 <0>        -0.5263
     19 H1          8.0553    3.9635    0.6261 H         1 <0>         0.1447
     20 H2          5.9678    2.6758    0.8282 H         1 <0>         0.1341
     21 H3          3.8405    5.8351   -1.1174 H         1 <0>         0.1463
     22 H4          8.0377    6.1814   -0.4395 H         1 <0>         0.1427
     23 H5          3.6027    2.4770   -0.0576 H         1 <0>         0.4159
     24 H6         -2.1979    3.9806    0.4882 H         1 <0>         0.1952
     25 H7         -2.1855    1.5430    0.1627 H         1 <0>         0.1983
     26 H8          0.7939   -0.4279   -0.3057 H         1 <0>         0.4257
     27 H9         -0.8815   -0.4400   -0.1815 H         1 <0>         0.4447
     28 H10         1.2274    7.1337    0.6375 H         1 <0>         0.2255
     29 N5          1.1732    2.0325   -0.0157 N.ar      1 <0>        -0.5351
     30 H11         2.0469    1.5097   -0.1486 H         1 <0>         0.4572
@<TRIPOS>BOND
     1    1    6 ar
     2    1    2 ar
     3    1   19 1
     4    2    3 ar
     5    2   20 1
     6    3    4 ar
     7    3    8 1
     8    4    5 ar
     9    4   21 1
    10    5    6 ar
    11    5    7 1
    12    6   22 1
    13    8    9 1
    14    8   23 1
    15    9   18 ar
    16    9   10 ar
    17   10   11 ar
    18   10   29 ar
    19   11   12 ar
    20   11   16 ar
    21   12   13 ar
    22   12   24 1
    23   13   14 ar
    24   13   25 1
    25   14   15 1
    26   14   29 ar
    27   15   26 1
    28   15   27 1
    29   16   17 ar
    30   17   18 ar
    31   17   28 1
    32   29   30 1
@<TRIPOS>MOLECULE
ZINC03813428
   32    34     0     0     0
SMALL
USER_CHARGES

@<TRIPOS>ATOM
      1 C1          0.9252    1.7800    0.7725 C.ar      1 <0>        -0.0922
      2 C2          0.9099    3.1612    0.7706 C.ar      1 <0>        -0.0522
      3 C3         -0.0510    3.8425    0.0349 C.ar      1 <0>         0.1244
      4 C4         -0.9941    3.1317   -0.6970 C.ar      1 <0>        -0.0721
      5 C5         -0.9696    1.7511   -0.6953 C.ar      1 <0>        -0.0220
      6 C6         -0.0148    1.0757    0.0430 C.ar      1 <0>        -0.0495
      7 N1         -1.9702    0.9930   -1.4796 N.pl3     1 <0>         0.0218
      8 O1         -1.9524   -0.2248   -1.4745 O.2       1 <0>        -0.1379
      9 O2         -2.8114    1.5871   -2.1300 O.3       1 <0>        -0.1528
     10 N2         -0.0691    5.2402    0.0304 N.pl3     1 <0>        -0.6107
     11 C7          1.1117    5.9451    0.1265 C.ar      1 <0>         0.5215
     12 C8          1.1103    7.3546    0.2412 C.ar      1 <0>        -0.2609
     13 C9         -0.0648    8.1097    0.2637 C.ar      1 <0>         0.2677
     14 C10         1.1495   10.0766    0.4630 C.ar      1 <0>         0.4445
     15 C11         2.3635    9.4144    0.4494 C.ar      1 <0>        -0.1882
     16 C12         2.3619    8.0195    0.3363 C.ar      1 <0>         0.3034
     17 N3          3.4850    7.2911    0.3138 N.ar      1 <0>        -0.5509
     18 C13         3.4244    5.9835    0.2054 C.ar      1 <0>         0.4287
     19 N4          2.2832    5.3196    0.1196 N.ar      1 <0>        -0.5842
     20 N5          1.1333   11.4608    0.5751 N.pl3     1 <0>        -0.8248
     21 H1          1.6724    1.2496    1.3441 H         1 <0>         0.1610
     22 H2          1.6442    3.7107    1.3409 H         1 <0>         0.1575
     23 H3         -1.7427    3.6585   -1.2702 H         1 <0>         0.1596
     24 H4         -0.0007   -0.0042    0.0462 H         1 <0>         0.1639
     25 H5         -0.9124    5.7142   -0.0403 H         1 <0>         0.4282
     26 H6         -1.0238    7.6181    0.1927 H         1 <0>         0.1988
     27 H7          3.2918    9.9614    0.5239 H         1 <0>         0.1943
     28 H8          4.3482    5.4243    0.1906 H         1 <0>         0.2241
     29 H9          0.2881   11.9367    0.5862 H         1 <0>         0.4208
     30 H10         1.9672   11.9517    0.6424 H         1 <0>         0.4400
     31 N6         -0.0767    9.4628    0.3730 N.ar      1 <0>        -0.5373
     32 H11        -0.9530    9.9977    0.3876 H         1 <0>         0.4757
@<TRIPOS>BOND
     1    1    6 ar
     2    1    2 ar
     3    1   21 1
     4    2    3 ar
     5    2   22 1
     6    3    4 ar
     7    3   10 1
     8    4    5 ar
     9    4   23 1
    10    5    6 ar
    11    5    7 1
    12    6   24 1
    13    7    8 2
    14    7    9 1
    15   10   11 1
    16   10   25 1
    17   11   19 ar
    18   11   12 ar
    19   12   16 ar
    20   12   13 ar
    21   13   26 1
    22   13   31 ar
    23   14   15 ar
    24   14   20 1
    25   14   31 ar
    26   15   16 ar
    27   15   27 1
    28   16   17 ar
    29   17   18 ar
    30   18   19 ar
    31   18   28 1
    32   20   29 1
    33   20   30 1
    34   31   32 1
@<TRIPOS>MOLECULE
ZINC03813429
   30    32     0     0     0
SMALL
USER_CHARGES

@<TRIPOS>ATOM
      1 C1          2.1577    5.6966    0.3942 C.ar      1 <0>        -0.0915
      2 C2          2.2603    4.3225    0.4909 C.ar      1 <0>        -0.0825
      3 C3          3.3215    3.6622   -0.1150 C.ar      1 <0>         0.1206
      4 C4          4.2797    4.3869   -0.8123 C.ar      1 <0>        -0.1019
      5 C5          4.1688    5.7608   -0.9094 C.ar      1 <0>        -0.0756
      6 C6          3.1100    6.4152   -0.3043 C.ar      1 <0>        -0.0824
      7 Br1         5.4687    6.7483   -1.8638 Br        1 <0>        -0.0264
      8 N1          3.4281    2.2717   -0.0184 N.pl3     1 <0>        -0.6078
      9 C7          2.2914    1.4919   -0.0144 C.ar      1 <0>         0.5199
     10 C8          2.3671    0.0967    0.2035 C.ar      1 <0>        -0.2613
     11 C9          3.5751   -0.5691    0.4250 C.ar      1 <0>         0.2658
     12 C10         2.4717   -2.6006    0.6204 C.ar      1 <0>         0.4428
     13 C11         1.2299   -2.0296    0.4098 C.ar      1 <0>        -0.1902
     14 C12         1.1580   -0.6486    0.1945 C.ar      1 <0>         0.3039
     15 N2          0.0031   -0.0057   -0.0186 N.ar      1 <0>        -0.5554
     16 C13        -0.0056    1.2929   -0.2155 C.ar      1 <0>         0.4284
     17 N3          1.0937    2.0290   -0.2163 N.ar      1 <0>        -0.5802
     18 N4          2.5608   -3.9699    0.8351 N.pl3     1 <0>        -0.8270
     19 H1          1.3327    6.2103    0.8653 H         1 <0>         0.1450
     20 H2          1.5159    3.7620    1.0368 H         1 <0>         0.1421
     21 H3          5.1084    3.8769   -1.2807 H         1 <0>         0.1391
     22 H4          3.0277    7.4896   -0.3778 H         1 <0>         0.1431
     23 H5          4.3020    1.8556    0.0458 H         1 <0>         0.4247
     24 H6          4.5026   -0.0158    0.4344 H         1 <0>         0.1976
     25 H7          0.3359   -2.6355    0.4117 H         1 <0>         0.1929
     26 H8         -0.9530    1.7814   -0.3892 H         1 <0>         0.2223
     27 H9          1.7578   -4.5139    0.8361 H         1 <0>         0.4392
     28 H10         3.4261   -4.3821    0.9840 H         1 <0>         0.4199
     29 N5          3.6583   -1.9077    0.6351 N.ar      1 <0>        -0.5393
     30 H11         4.5576   -2.3762    0.7959 H         1 <0>         0.4744
@<TRIPOS>BOND
     1    1    6 ar
     2    1    2 ar
     3    1   19 1
     4    2    3 ar
     5    2   20 1
     6    3    4 ar
     7    3    8 1
     8    4    5 ar
     9    4   21 1
    10    5    6 ar
    11    5    7 1
    12    6   22 1
    13    8    9 1
    14    8   23 1
    15    9   17 ar
    16    9   10 ar
    17   10   14 ar
    18   10   11 ar
    19   11   24 1
    20   11   29 ar
    21   12   13 ar
    22   12   18 1
    23   12   29 ar
    24   13   14 ar
    25   13   25 1
    26   14   15 ar
    27   15   16 ar
    28   16   17 ar
    29   16   26 1
    30   18   27 1
    31   18   28 1
    32   29   30 1
@<TRIPOS>MOLECULE
ZINC03813430
   30    32     0     0     0
SMALL
USER_CHARGES

@<TRIPOS>ATOM
      1 C1         -4.7744    3.3951   -0.7292 C.ar      1 <0>        -0.1218
      2 C2         -5.9293    2.6442   -0.8283 C.ar      1 <0>        -0.0705
      3 C3         -5.9944    1.3922   -0.2429 C.ar      1 <0>        -0.0880
      4 C4         -4.9013    0.8862    0.4379 C.ar      1 <0>        -0.0707
      5 C5         -3.7419    1.6301    0.5354 C.ar      1 <0>        -0.0915
      6 C6         -3.6738    2.8875   -0.0509 C.ar      1 <0>         0.1286
      7 N1         -2.5013    3.6432    0.0466 N.pl3     1 <0>        -0.6091
      8 C7         -1.2741    3.0157    0.0364 C.ar      1 <0>         0.5191
      9 C8         -0.0823    3.7450    0.2551 C.ar      1 <0>        -0.2613
     10 C9         -0.0714    5.1219    0.4905 C.ar      1 <0>         0.2657
     11 C10         2.2415    5.1180    0.6729 C.ar      1 <0>         0.4427
     12 C11         2.3301    3.7565    0.4474 C.ar      1 <0>        -0.1900
     13 C12         1.1491    3.0374    0.2315 C.ar      1 <0>         0.3036
     14 N2          1.1331    1.7181    0.0041 N.ar      1 <0>        -0.5550
     15 C13        -0.0055    1.0937   -0.1933 C.ar      1 <0>         0.4283
     16 N3         -1.1761    1.7101   -0.1861 N.ar      1 <0>        -0.5796
     17 N4          3.4040    5.8467    0.8890 N.pl3     1 <0>        -0.8270
     18 Br1        -7.5802    0.3705   -0.3741 Br        1 <0>        -0.0287
     19 H1         -4.7257    4.3741   -1.1826 H         1 <0>         0.1389
     20 H2         -6.7838    3.0364   -1.3598 H         1 <0>         0.1452
     21 H3         -4.9548   -0.0917    0.8933 H         1 <0>         0.1446
     22 H4         -2.8889    1.2345    1.0667 H         1 <0>         0.1443
     23 H5         -2.5517    4.6090    0.1213 H         1 <0>         0.4249
     24 H6         -0.9997    5.6735    0.5107 H         1 <0>         0.1977
     25 H7          3.2888    3.2595    0.4386 H         1 <0>         0.1929
     26 H8          0.0152    0.0291   -0.3741 H         1 <0>         0.2224
     27 H9          4.2650    5.4000    0.8806 H         1 <0>         0.4392
     28 H10         3.3549    6.8023    1.0482 H         1 <0>         0.4199
     29 N5          1.0670    5.8308    0.7014 N.ar      1 <0>        -0.5394
     30 H11         1.0513    6.8430    0.8727 H         1 <0>         0.4744
@<TRIPOS>BOND
     1    1    6 ar
     2    1    2 ar
     3    1   19 1
     4    2    3 ar
     5    2   20 1
     6    3    4 ar
     7    3   18 1
     8    4    5 ar
     9    4   21 1
    10    5    6 ar
    11    5   22 1
    12    6    7 1
    13    7    8 1
    14    7   23 1
    15    8   16 ar
    16    8    9 ar
    17    9   13 ar
    18    9   10 ar
    19   10   24 1
    20   10   29 ar
    21   11   12 ar
    22   11   17 1
    23   11   29 ar
    24   12   13 ar
    25   12   25 1
    26   13   14 ar
    27   14   15 ar
    28   15   16 ar
    29   15   26 1
    30   17   27 1
    31   17   28 1
    32   29   30 1
@<TRIPOS>MOLECULE
ZINC03813431
   33    35     0     0     0
SMALL
USER_CHARGES

@<TRIPOS>ATOM
      1 C1          0.9254    1.7805    0.7726 C.ar      1 <0>        -0.0966
      2 C2         -0.0148    1.0758    0.0430 C.ar      1 <0>        -0.0647
      3 C3         -0.9695    1.7507   -0.6951 C.ar      1 <0>        -0.1607
      4 C4         -0.9937    3.1317   -0.6976 C.ar      1 <0>        -0.0811
      5 C5         -0.0510    3.8425    0.0340 C.ar      1 <0>         0.1161
      6 C6          0.9101    3.1612    0.7703 C.ar      1 <0>        -0.0679
      7 N1         -0.0691    5.2403    0.0290 N.pl3     1 <0>        -0.6083
      8 C7          1.1117    5.9451    0.1251 C.ar      1 <0>         0.5201
      9 C8          1.1103    7.3546    0.2393 C.ar      1 <0>        -0.2612
     10 C9         -0.0648    8.1098    0.2609 C.ar      1 <0>         0.2662
     11 C10         1.1495   10.0767    0.4608 C.ar      1 <0>         0.4434
     12 C11         2.3634    9.4145    0.4477 C.ar      1 <0>        -0.1898
     13 C12         2.3618    8.0195    0.3350 C.ar      1 <0>         0.3039
     14 N2          3.4849    7.2911    0.3135 N.ar      1 <0>        -0.5542
     15 C13         3.4243    5.9835    0.2055 C.ar      1 <0>         0.4284
     16 N3          2.2832    5.3197    0.1187 N.ar      1 <0>        -0.5818
     17 N4          1.1332   11.4609    0.5729 N.pl3     1 <0>        -0.8264
     18 C14        -1.9881    0.9786   -1.4935 C.3       1 <0>         0.5088
     19 F1         -1.7660   -0.3930   -1.3307 F         1 <0>        -0.1701
     20 F2         -3.2735    1.2994   -1.0441 F         1 <0>        -0.1738
     21 F3         -1.8703    1.3127   -2.8469 F         1 <0>        -0.1732
     22 H1          1.6725    1.2503    1.3445 H         1 <0>         0.1488
     23 H2         -0.0004   -0.0041    0.0463 H         1 <0>         0.1492
     24 H3         -1.7420    3.6583   -1.2713 H         1 <0>         0.1408
     25 H4          1.6443    3.7110    1.3405 H         1 <0>         0.1487
     26 H5         -0.9124    5.7142   -0.0420 H         1 <0>         0.4256
     27 H6         -1.0238    7.6183    0.1890 H         1 <0>         0.1979
     28 H7          3.2917    9.9614    0.5226 H         1 <0>         0.1933
     29 H8          4.3482    5.4242    0.1914 H         1 <0>         0.2229
     30 H9          0.2880   11.9368    0.5835 H         1 <0>         0.4201
     31 H10         1.9671   11.9518    0.6405 H         1 <0>         0.4394
     32 N5         -0.0767    9.4629    0.3702 N.ar      1 <0>        -0.5389
     33 H11        -0.9530    9.9978    0.3843 H         1 <0>         0.4748
@<TRIPOS>BOND
     1    1    6 ar
     2    1    2 ar
     3    1   22 1
     4    2    3 ar
     5    2   23 1
     6    3    4 ar
     7    3   18 1
     8    4    5 ar
     9    4   24 1
    10    5    6 ar
    11    5    7 1
    12    6   25 1
    13    7    8 1
    14    7   26 1
    15    8   16 ar
    16    8    9 ar
    17    9   13 ar
    18    9   10 ar
    19   10   27 1
    20   10   32 ar
    21   11   12 ar
    22   11   17 1
    23   11   32 ar
    24   12   13 ar
    25   12   28 1
    26   13   14 ar
    27   14   15 ar
    28   15   16 ar
    29   15   29 1
    30   17   30 1
    31   17   31 1
    32   18   19 1
    33   18   20 1
    34   18   21 1
    35   32   33 1
@<TRIPOS>MOLECULE
ZINC03813434
   36    38     0     0     0
SMALL
USER_CHARGES

@<TRIPOS>ATOM
      1 C1         -3.6443   -2.0240   -0.1999 C.3       1 <0>         0.0729
      2 N1         -3.5888   -0.5619   -0.1270 N.pl3     1 <0>        -0.6012
      3 C2         -4.8227    0.2232   -0.2126 C.3       1 <0>         0.0615
      4 C3         -2.3630    0.0818    0.0237 C.ar      1 <0>         0.3982
      5 C4         -1.1975   -0.6654   -0.0016 C.ar      1 <0>        -0.1398
      6 C5          0.0199    0.0007    0.1514 C.ar      1 <0>        -0.0636
      7 C6          0.0114    1.4088    0.3255 C.ar      1 <0>         0.1184
      8 C7         -1.2200    2.0755    0.3424 C.ar      1 <0>         0.2178
      9 N2          1.1832    2.0418    0.4722 N.ar      1 <0>        -0.5243
     10 C8          2.3130    1.3791    0.4558 C.ar      1 <0>         0.3818
     11 N3          2.3968    0.0675    0.2981 N.ar      1 <0>        -0.5479
     12 C9          1.3108   -0.6806    0.1421 C.ar      1 <0>         0.4693
     13 N4          1.3992   -2.0476   -0.0228 N.pl3     1 <0>        -0.6092
     14 C10         2.6510   -2.6575   -0.1435 C.ar      1 <0>         0.1287
     15 C11         2.8501   -3.9416    0.3485 C.ar      1 <0>        -0.1182
     16 C12         4.0878   -4.5418    0.2275 C.ar      1 <0>        -0.0898
     17 C13         5.1289   -3.8668   -0.3832 C.ar      1 <0>        -0.0886
     18 C14         4.9344   -2.5882   -0.8748 C.ar      1 <0>        -0.0739
     19 C15         3.6967   -1.9836   -0.7606 C.ar      1 <0>        -0.0787
     20 Br1         6.3609   -1.6700   -1.7100 Br        1 <0>        -0.0291
     21 H1         -3.7590   -2.4337    0.8036 H         1 <0>         0.0819
     22 H2         -4.4927   -2.3252   -0.8144 H         1 <0>         0.0999
     23 H3         -2.7226   -2.4010   -0.6432 H         1 <0>         0.0843
     24 H4         -5.0279    0.4650   -1.2554 H         1 <0>         0.0857
     25 H5         -5.6509   -0.3559    0.1958 H         1 <0>         0.1082
     26 H6         -4.7074    1.1446    0.3582 H         1 <0>         0.0692
     27 H7         -1.2293   -1.7366   -0.1359 H         1 <0>         0.1809
     28 H8         -1.2516    3.1470    0.4735 H         1 <0>         0.2166
     29 H9          3.2304    1.9358    0.5779 H         1 <0>         0.2189
     30 H10         0.5925   -2.5854   -0.0548 H         1 <0>         0.4266
     31 H11         2.0377   -4.4696    0.8256 H         1 <0>         0.1358
     32 H12         4.2428   -5.5399    0.6098 H         1 <0>         0.1442
     33 H13         6.0958   -4.3388   -0.4768 H         1 <0>         0.1418
     34 H14         3.5441   -0.9870   -1.1477 H         1 <0>         0.1477
     35 N5         -2.4116    1.4433    0.1898 N.ar      1 <0>        -0.4994
     36 H15        -3.3012    1.9560    0.1983 H         1 <0>         0.4734
@<TRIPOS>BOND
     1    1    2 1
     2    1   21 1
     3    1   22 1
     4    1   23 1
     5    2    3 1
     6    2    4 1
     7    3   24 1
     8    3   25 1
     9    3   26 1
    10    4    5 ar
    11    4   35 ar
    12    5    6 ar
    13    5   27 1
    14    6   12 ar
    15    6    7 ar
    16    7    8 ar
    17    7    9 ar
    18    8   28 1
    19    8   35 ar
    20    9   10 ar
    21   10   11 ar
    22   10   29 1
    23   11   12 ar
    24   12   13 1
    25   13   14 1
    26   13   30 1
    27   14   19 ar
    28   14   15 ar
    29   15   16 ar
    30   15   31 1
    31   16   17 ar
    32   16   32 1
    33   17   18 ar
    34   17   33 1
    35   18   19 ar
    36   18   20 1
    37   19   34 1
    38   35   36 1
@<TRIPOS>MOLECULE
ZINC03815025
   34    37     0     0     0
SMALL
USER_CHARGES

@<TRIPOS>ATOM
      1 C1         -0.0663    1.1364   -0.1563 C.ar      1 <0>        -0.1176
      2 C2         -1.2793    1.8020    0.0186 C.ar      1 <0>        -0.0984
      3 C3         -1.3365    3.1476    0.1927 C.ar      1 <0>        -0.1126
      4 C4         -0.1441    3.9014    0.1873 C.ar      1 <0>        -0.0142
      5 C5         -0.1679    5.2872    0.3587 C.ar      1 <0>        -0.0913
      6 C6          1.0255    5.9974    0.3485 C.ar      1 <0>         0.1633
      7 C7          2.2992    5.2944    0.1588 C.ar      1 <0>        -0.1767
      8 C8          2.3291    3.9194   -0.0119 C.ar      1 <0>        -0.0454
      9 C9          1.1300    3.2023   -0.0020 C.ar      1 <0>        -0.0675
     10 C10         1.1173    1.8023   -0.1718 C.ar      1 <0>        -0.0973
     11 C11         3.5194    6.1063    0.1594 C.ar      1 <0>         0.4722
     12 N1          3.3813    7.4145    0.3311 N.ar      1 <0>        -0.5906
     13 C12         2.1976    7.9808    0.4966 C.ar      1 <0>         0.3499
     14 N2          1.0611    7.3337    0.5094 N.ar      1 <0>        -0.5438
     15 N3          4.7607    5.5337   -0.0120 N.pl3     1 <0>        -0.6309
     16 C13         5.8946    6.3434   -0.1229 C.ar      1 <0>         0.1542
     17 C14         7.1175    5.8992    0.3646 C.ar      1 <0>        -0.1307
     18 C15         8.2362    6.7011    0.2533 C.ar      1 <0>        -0.0923
     19 C16         8.1408    7.9454   -0.3427 C.ar      1 <0>        -0.1045
     20 C17         6.9248    8.3909   -0.8297 C.ar      1 <0>        -0.0713
     21 C18         5.8024    7.5911   -0.7256 C.ar      1 <0>        -0.0828
     22 Br1         6.7997   10.0929   -1.6443 Br        1 <0>        -0.0423
     23 H1         -0.0686    0.0644   -0.2873 H         1 <0>         0.1264
     24 H2         -2.1966    1.2320    0.0199 H         1 <0>         0.1272
     25 H3         -2.2889    3.6379    0.3307 H         1 <0>         0.1345
     26 H4         -1.1068    5.8025    0.4977 H         1 <0>         0.1467
     27 H5          3.2698    3.4073   -0.1508 H         1 <0>         0.1324
     28 H6          2.0425    1.2633   -0.3128 H         1 <0>         0.1313
     29 H7          2.1674    9.0521    0.6301 H         1 <0>         0.1937
     30 H8          4.8477    4.5686   -0.0558 H         1 <0>         0.4233
     31 H9          7.1931    4.9278    0.8305 H         1 <0>         0.1323
     32 H10         9.1870    6.3559    0.6318 H         1 <0>         0.1380
     33 H11         9.0173    8.5704   -0.4284 H         1 <0>         0.1354
     34 H12         4.8541    7.9375   -1.1092 H         1 <0>         0.1495
@<TRIPOS>BOND
     1    1   10 ar
     2    1    2 ar
     3    1   23 1
     4    2    3 ar
     5    2   24 1
     6    3    4 ar
     7    3   25 1
     8    4    9 ar
     9    4    5 ar
    10    5    6 ar
    11    5   26 1
    12    6   14 ar
    13    6    7 ar
    14    7    8 ar
    15    7   11 ar
    16    8    9 ar
    17    8   27 1
    18    9   10 ar
    19   10   28 1
    20   11   12 ar
    21   11   15 1
    22   12   13 ar
    23   13   14 ar
    24   13   29 1
    25   15   16 1
    26   15   30 1
    27   16   21 ar
    28   16   17 ar
    29   17   18 ar
    30   17   31 1
    31   18   19 ar
    32   18   32 1
    33   19   20 ar
    34   19   33 1
    35   20   21 ar
    36   20   22 1
    37   21   34 1
@<TRIPOS>MOLECULE
ZINC03815026
   42    44     0     0     0
SMALL
USER_CHARGES

@<TRIPOS>ATOM
      1 C1         -0.2393    0.8846   -0.0021 C.3       1 <0>        -0.1529
      2 C2         -0.9603    1.3438    1.2668 C.3       1 <0>         0.0482
      3 O1         -0.1688    1.0142    2.4101 O.3       1 <0>        -0.2978
      4 C3         -0.6693    1.3561    3.6263 C.ar      1 <0>         0.1488
      5 C4         -1.8801    1.9859    3.7044 C.ar      1 <0>        -0.1709
      6 C5         -2.3932    2.3369    4.9589 C.ar      1 <0>        -0.0356
      7 C6         -3.6320    2.9861    5.1175 C.ar      1 <0>         0.0369
      8 N1         -4.0472    3.2831    6.3273 N.ar      1 <0>        -0.2193
      9 N2         -3.3831    3.0137    7.3888 N.ar      1 <0>        -0.3175
     10 C7         -2.2089    2.4077    7.3746 C.ar      1 <0>         0.3616
     11 C8         -1.6508    2.0347    6.1310 C.ar      1 <0>        -0.0972
     12 C9         -0.4150    1.3892    6.0216 C.ar      1 <0>        -0.1652
     13 C10         0.0604    1.0529    4.7847 C.ar      1 <0>         0.1363
     14 O2          1.2589    0.4211    4.6761 O.3       1 <0>        -0.2973
     15 C11         1.9560    0.1387    5.8912 C.3       1 <0>         0.0486
     16 C12         3.2738   -0.5694    5.5704 C.3       1 <0>        -0.1528
     17 N3         -1.5368    2.1422    8.5582 N.pl3     1 <0>        -0.6439
     18 C13        -2.0427    2.6181    9.7708 C.ar      1 <0>         0.1636
     19 C14        -1.8598    1.8853   10.9371 C.ar      1 <0>        -0.1369
     20 C15        -2.3603    2.3582   12.1340 C.ar      1 <0>        -0.0909
     21 C16        -3.0434    3.5600   12.1732 C.ar      1 <0>        -0.1098
     22 C17        -3.2272    4.2928   11.0141 C.ar      1 <0>        -0.0669
     23 C18        -2.7245    3.8273    9.8138 C.ar      1 <0>        -0.0893
     24 Br1        -4.1609    5.9362   11.0735 Br        1 <0>        -0.0436
     25 H1         -0.0878   -0.1941    0.0362 H         1 <0>         0.0682
     26 H2          0.7266    1.3849   -0.0725 H         1 <0>         0.0682
     27 H3         -0.8430    1.1360   -0.8742 H         1 <0>         0.0822
     28 H4         -1.1118    2.4225    1.2285 H         1 <0>         0.0679
     29 H5         -1.9261    0.8435    1.3372 H         1 <0>         0.0678
     30 H6         -2.4358    2.2111    2.8062 H         1 <0>         0.1547
     31 H7         -4.2328    3.2368    4.2558 H         1 <0>         0.1757
     32 H8          0.1574    1.1554    6.9071 H         1 <0>         0.1423
     33 H9          2.1630    1.0712    6.4163 H         1 <0>         0.0650
     34 H10         1.3418   -0.5045    6.5213 H         1 <0>         0.0648
     35 H11         3.8055   -0.7847    6.4973 H         1 <0>         0.0818
     36 H12         3.0667   -1.5018    5.0452 H         1 <0>         0.0690
     37 H13         3.8879    0.0739    4.9403 H         1 <0>         0.0690
     38 H14        -0.7156    1.6261    8.5445 H         1 <0>         0.4181
     39 H15        -1.3268    0.9464   10.9075 H         1 <0>         0.1304
     40 H16        -2.2179    1.7889   13.0407 H         1 <0>         0.1365
     41 H17        -3.4338    3.9275   13.1107 H         1 <0>         0.1343
     42 H18        -2.8645    4.4014    8.9098 H         1 <0>         0.1476
@<TRIPOS>BOND
     1    1    2 1
     2    1   25 1
     3    1   26 1
     4    1   27 1
     5    2    3 1
     6    2   28 1
     7    2   29 1
     8    3    4 1
     9    4   13 ar
    10    4    5 ar
    11    5    6 ar
    12    5   30 1
    13    6   11 ar
    14    6    7 ar
    15    7    8 ar
    16    7   31 1
    17    8    9 ar
    18    9   10 ar
    19   10   11 ar
    20   10   17 1
    21   11   12 ar
    22   12   13 ar
    23   12   32 1
    24   13   14 1
    25   14   15 1
    26   15   16 1
    27   15   33 1
    28   15   34 1
    29   16   35 1
    30   16   36 1
    31   16   37 1
    32   17   18 1
    33   17   38 1
    34   18   23 ar
    35   18   19 ar
    36   19   20 ar
    37   19   39 1
    38   20   21 ar
    39   20   40 1
    40   21   22 ar
    41   21   41 1
    42   22   23 ar
    43   22   24 1
    44   23   42 1
@<TRIPOS>MOLECULE
ZINC03815027
   35    37     0     0     0
SMALL
USER_CHARGES

@<TRIPOS>ATOM
      1 C1          0.0456    4.1790   -0.3307 C.3       1 <0>         0.0890
      2 N1          1.2807    3.4084   -0.1663 N.pl3     1 <0>        -0.6267
      3 C2          2.5763    4.0922   -0.1673 C.3       1 <0>         0.0859
      4 C3          1.2229    2.0203   -0.0086 C.ar      1 <0>         0.1509
      5 C4          0.0002    1.3689   -0.0069 C.ar      1 <0>        -0.1297
      6 C5         -0.0002   -0.0219    0.1541 C.ar      1 <0>        -0.1839
      7 C6          1.2315   -0.7047    0.3076 C.ar      1 <0>         0.3201
      8 N2          2.3768   -0.0235    0.2978 N.ar      1 <0>        -0.4320
      9 C7          2.3979    1.2808    0.1481 C.ar      1 <0>         0.1335
     10 N3          1.2066   -2.0380    0.4600 N.ar      1 <0>        -0.5202
     11 C8          0.0676   -2.6883    0.4661 C.ar      1 <0>         0.3475
     12 N4         -1.1054   -2.0922    0.3262 N.ar      1 <0>        -0.5740
     13 C9         -1.1971   -0.7778    0.1689 C.ar      1 <0>         0.4630
     14 N5         -2.4244   -0.1651    0.0243 N.pl3     1 <0>        -0.6371
     15 C10        -3.5844   -0.9386   -0.0747 C.ar      1 <0>         0.1583
     16 C11        -4.7840   -0.4637    0.4408 C.ar      1 <0>        -0.1331
     17 C12        -5.9284   -1.2300    0.3416 C.ar      1 <0>        -0.0919
     18 C13        -5.8819   -2.4694   -0.2702 C.ar      1 <0>        -0.1066
     19 C14        -4.6892   -2.9458   -0.7848 C.ar      1 <0>        -0.0704
     20 C15        -3.5415   -2.1810   -0.6937 C.ar      1 <0>        -0.0845
     21 Br1        -4.6309   -4.6411   -1.6204 Br        1 <0>        -0.0429
     22 H1         -0.3224    4.4885    0.6475 H         1 <0>         0.0547
     23 H2          0.2458    5.0608   -0.9393 H         1 <0>         0.0746
     24 H3         -0.7055    3.5609   -0.8226 H         1 <0>         0.0670
     25 H4          2.9593    4.1434   -1.1865 H         1 <0>         0.0567
     26 H5          2.4548    5.1013    0.2263 H         1 <0>         0.0748
     27 H6          3.2787    3.5406    0.4576 H         1 <0>         0.0724
     28 H7         -0.9228    1.9159   -0.1305 H         1 <0>         0.1371
     29 H8          3.3476    1.7950    0.1458 H         1 <0>         0.1711
     30 H9          0.0880   -3.7608    0.5915 H         1 <0>         0.2034
     31 H10        -2.4825    0.8026   -0.0086 H         1 <0>         0.4213
     32 H11        -4.8213    0.5039    0.9191 H         1 <0>         0.1311
     33 H12        -6.8610   -0.8609    0.7420 H         1 <0>         0.1371
     34 H13        -6.7785   -3.0666   -0.3467 H         1 <0>         0.1348
     35 H14        -2.6116   -2.5510   -1.0998 H         1 <0>         0.1486
@<TRIPOS>BOND
     1    1    2 1
     2    1   22 1
     3    1   23 1
     4    1   24 1
     5    2    3 1
     6    2    4 1
     7    3   25 1
     8    3   26 1
     9    3   27 1
    10    4    9 ar
    11    4    5 ar
    12    5    6 ar
    13    5   28 1
    14    6   13 ar
    15    6    7 ar
    16    7    8 ar
    17    7   10 ar
    18    8    9 ar
    19    9   29 1
    20   10   11 ar
    21   11   12 ar
    22   11   30 1
    23   12   13 ar
    24   13   14 1
    25   14   15 1
    26   14   31 1
    27   15   20 ar
    28   15   16 ar
    29   16   17 ar
    30   16   32 1
    31   17   18 ar
    32   17   33 1
    33   18   19 ar
    34   18   34 1
    35   19   20 ar
    36   19   21 1
    37   20   35 1
@<TRIPOS>MOLECULE
ZINC03815028
   31    34     0     0     0
SMALL
USER_CHARGES

@<TRIPOS>ATOM
      1 C1         -4.5872   -6.3133    0.3919 C.ar      1 <0>        -0.0925
      2 C2         -3.6497   -5.3040    0.4938 C.ar      1 <0>        -0.0922
      3 C3         -3.8964   -4.0673   -0.0884 C.ar      1 <0>         0.1588
      4 C4         -5.0884   -3.8477   -0.7671 C.ar      1 <0>        -0.1195
      5 C5         -6.0202   -4.8628   -0.8693 C.ar      1 <0>        -0.0717
      6 C6         -5.7706   -6.0939   -0.2883 C.ar      1 <0>        -0.1036
      7 Br1        -7.6411   -4.5674   -1.7974 Br        1 <0>        -0.0448
      8 N1         -2.9498   -3.0439    0.0136 N.pl3     1 <0>        -0.6389
      9 C7         -1.6035   -3.3447   -0.0095 C.ar      1 <0>         0.4713
     10 C8         -0.6296   -2.3393    0.2135 C.ar      1 <0>        -0.1623
     11 C9         -0.9876   -1.0127    0.4638 C.ar      1 <0>        -0.0699
     12 C10        -0.0034   -0.0714    0.6749 C.ar      1 <0>         0.0508
     13 C11         1.3617   -0.4367    0.6402 C.ar      1 <0>         0.0940
     14 C12         1.7276   -1.7543    0.3918 C.ar      1 <0>        -0.0542
     15 C13         0.7391   -2.7142    0.1770 C.ar      1 <0>         0.1678
     16 N2          1.0481   -4.0004   -0.0663 N.ar      1 <0>        -0.5363
     17 C14         0.1023   -4.8856   -0.2650 C.ar      1 <0>         0.3417
     18 N3         -1.1866   -4.5821   -0.2399 N.ar      1 <0>        -0.5834
     19 N4          2.0768    0.6938    0.8807 N.2       1 <0>        -0.5058
     20 C15         1.2676    1.6972    1.0552 C.2       1 <0>         0.3062
     21 N5         -0.0242    1.2878    0.9403 N.pl3     1 <0>        -0.6203
     22 H1         -0.8381    1.8617    1.0307 H         1 <0>         0.4344
     23 H2         -4.3955   -7.2750    0.8445 H         1 <0>         0.1375
     24 H3         -2.7255   -5.4764    1.0253 H         1 <0>         0.1417
     25 H4         -5.2850   -2.8860   -1.2174 H         1 <0>         0.1339
     26 H5         -6.5020   -6.8848   -0.3661 H         1 <0>         0.1350
     27 H6         -3.2394   -2.1222    0.1005 H         1 <0>         0.4207
     28 H7         -2.0286   -0.7264    0.4914 H         1 <0>         0.1285
     29 H8          2.7707   -2.0330    0.3657 H         1 <0>         0.1508
     30 H9          0.3869   -5.9094   -0.4576 H         1 <0>         0.1984
     31 H10         1.5774    2.7110    1.2616 H         1 <0>         0.2239
@<TRIPOS>BOND
     1    1    6 ar
     2    1    2 ar
     3    1   23 1
     4    2    3 ar
     5    2   24 1
     6    3    4 ar
     7    3    8 1
     8    4    5 ar
     9    4   25 1
    10    5    6 ar
    11    5    7 1
    12    6   26 1
    13    8    9 1
    14    8   27 1
    15    9   18 ar
    16    9   10 ar
    17   10   15 ar
    18   10   11 ar
    19   11   12 ar
    20   11   28 1
    21   12   21 1
    22   12   13 ar
    23   13   14 ar
    24   13   19 1
    25   14   15 ar
    26   14   29 1
    27   15   16 ar
    28   16   17 ar
    29   17   18 ar
    30   17   30 1
    31   19   20 2
    32   20   21 1
    33   20   31 1
    34   21   22 1
@<TRIPOS>MOLECULE
ZINC03815028
   31    34     0     0     0
SMALL
USER_CHARGES

@<TRIPOS>ATOM
      1 C1         -4.5872   -6.3133    0.3919 C.ar      1 <0>        -0.0925
      2 C2         -3.6497   -5.3040    0.4938 C.ar      1 <0>        -0.0922
      3 C3         -3.8964   -4.0673   -0.0884 C.ar      1 <0>         0.1588
      4 C4         -5.0884   -3.8477   -0.7671 C.ar      1 <0>        -0.1195
      5 C5         -6.0202   -4.8628   -0.8693 C.ar      1 <0>        -0.0717
      6 C6         -5.7706   -6.0939   -0.2883 C.ar      1 <0>        -0.1036
      7 Br1        -7.6411   -4.5674   -1.7974 Br        1 <0>        -0.0448
      8 N1         -2.9498   -3.0439    0.0136 N.pl3     1 <0>        -0.6389
      9 C7         -1.6035   -3.3447   -0.0095 C.ar      1 <0>         0.4713
     10 C8         -0.6296   -2.3393    0.2135 C.ar      1 <0>        -0.1623
     11 C9         -0.9876   -1.0127    0.4638 C.ar      1 <0>        -0.0699
     12 C10        -0.0034   -0.0714    0.6749 C.ar      1 <0>         0.0508
     13 C11         1.3617   -0.4367    0.6402 C.ar      1 <0>         0.0940
     14 C12         1.7276   -1.7543    0.3918 C.ar      1 <0>        -0.0542
     15 C13         0.7391   -2.7142    0.1770 C.ar      1 <0>         0.1678
     16 N2          1.0481   -4.0004   -0.0663 N.ar      1 <0>        -0.5363
     17 C14         0.1023   -4.8856   -0.2650 C.ar      1 <0>         0.3417
     18 N3         -1.1866   -4.5821   -0.2399 N.ar      1 <0>        -0.5834
     19 N4          2.0768    0.6938    0.8807 N.2       1 <0>        -0.5058
     20 C15         1.2676    1.6972    1.0552 C.2       1 <0>         0.3062
     21 N5         -0.0242    1.2878    0.9403 N.pl3     1 <0>        -0.6203
     22 H1         -0.8381    1.8617    1.0307 H         1 <0>         0.4344
     23 H2         -4.3955   -7.2750    0.8445 H         1 <0>         0.1375
     24 H3         -2.7255   -5.4764    1.0253 H         1 <0>         0.1417
     25 H4         -5.2850   -2.8860   -1.2174 H         1 <0>         0.1339
     26 H5         -6.5020   -6.8848   -0.3661 H         1 <0>         0.1350
     27 H6         -3.2394   -2.1222    0.1005 H         1 <0>         0.4207
     28 H7         -2.0286   -0.7264    0.4914 H         1 <0>         0.1285
     29 H8          2.7707   -2.0330    0.3657 H         1 <0>         0.1508
     30 H9          0.3869   -5.9094   -0.4576 H         1 <0>         0.1984
     31 H10         1.5774    2.7110    1.2616 H         1 <0>         0.2239
@<TRIPOS>BOND
     1    1    6 ar
     2    1    2 ar
     3    1   23 1
     4    2    3 ar
     5    2   24 1
     6    3    4 ar
     7    3    8 1
     8    4    5 ar
     9    4   25 1
    10    5    6 ar
    11    5    7 1
    12    6   26 1
    13    8    9 1
    14    8   27 1
    15    9   18 ar
    16    9   10 ar
    17   10   15 ar
    18   10   11 ar
    19   11   12 ar
    20   11   28 1
    21   12   21 1
    22   12   13 ar
    23   13   14 ar
    24   13   19 1
    25   14   15 ar
    26   14   29 1
    27   15   16 ar
    28   16   17 ar
    29   17   18 ar
    30   17   30 1
    31   19   20 2
    32   20   21 1
    33   20   31 1
    34   21   22 1
@<TRIPOS>MOLECULE
ZINC03815029
   32    34     0     0     0
SMALL
USER_CHARGES

@<TRIPOS>ATOM
      1 C1          0.1516    1.1588    0.0540 C.3       1 <0>         0.0838
      2 N1         -0.5296    1.6168    1.2674 N.pl3     1 <0>        -0.7409
      3 C2         -0.8261    2.9732    1.4330 C.ar      1 <0>         0.1505
      4 C3         -1.4702    3.4114    2.5787 C.ar      1 <0>        -0.1263
      5 C4         -1.7430    4.7799    2.6932 C.ar      1 <0>        -0.1852
      6 C5         -1.3568    5.6560    1.6491 C.ar      1 <0>         0.3209
      7 N2         -0.7395    5.1756    0.5702 N.ar      1 <0>        -0.4324
      8 C6         -0.4698    3.8965    0.4469 C.ar      1 <0>         0.1336
      9 N3         -1.6283    6.9638    1.7811 N.ar      1 <0>        -0.5206
     10 C7         -2.2365    7.4149    2.8522 C.ar      1 <0>         0.3484
     11 N4         -2.6149    6.6337    3.8508 N.ar      1 <0>        -0.5745
     12 C8         -2.3963    5.3253    3.8246 C.ar      1 <0>         0.4636
     13 N5         -2.7944    4.5188    4.8705 N.pl3     1 <0>        -0.6368
     14 C9         -3.3322    5.0896    6.0276 C.ar      1 <0>         0.1579
     15 C10        -4.3080    4.4128    6.7488 C.ar      1 <0>        -0.1330
     16 C11        -4.8371    4.9789    7.8918 C.ar      1 <0>        -0.0920
     17 C12        -4.3970    6.2183    8.3193 C.ar      1 <0>        -0.1064
     18 C13        -3.4252    6.8950    7.6040 C.ar      1 <0>        -0.0704
     19 C14        -2.8881    6.3317    6.4618 C.ar      1 <0>        -0.0845
     20 Br1        -2.8264    8.5892    8.1931 Br        1 <0>        -0.0429
     21 H1          0.2963    0.0796    0.1040 H         1 <0>         0.0811
     22 H2          1.1203    1.6519   -0.0269 H         1 <0>         0.0588
     23 H3         -0.4549    1.4041   -0.8178 H         1 <0>         0.0588
     24 H4         -0.7749    0.9792    1.9560 H         1 <0>         0.4052
     25 H5         -1.7531    2.7196    3.3582 H         1 <0>         0.1360
     26 H6          0.0364    3.5487   -0.4415 H         1 <0>         0.1699
     27 H7         -2.4381    8.4736    2.9220 H         1 <0>         0.2036
     28 H8         -2.7012    3.5557    4.8031 H         1 <0>         0.4219
     29 H9         -4.6526    3.4450    6.4156 H         1 <0>         0.1312
     30 H10        -5.5954    4.4528    8.4528 H         1 <0>         0.1372
     31 H11        -4.8126    6.6586    9.2136 H         1 <0>         0.1348
     32 H12        -2.1268    6.8585    5.9056 H         1 <0>         0.1487
@<TRIPOS>BOND
     1    1    2 1
     2    1   21 1
     3    1   22 1
     4    1   23 1
     5    2    3 1
     6    2   24 1
     7    3    8 ar
     8    3    4 ar
     9    4    5 ar
    10    4   25 1
    11    5   12 ar
    12    5    6 ar
    13    6    7 ar
    14    6    9 ar
    15    7    8 ar
    16    8   26 1
    17    9   10 ar
    18   10   11 ar
    19   10   27 1
    20   11   12 ar
    21   12   13 1
    22   13   14 1
    23   13   28 1
    24   14   19 ar
    25   14   15 ar
    26   15   16 ar
    27   15   29 1
    28   16   17 ar
    29   16   30 1
    30   17   18 ar
    31   17   31 1
    32   18   19 ar
    33   18   20 1
    34   19   32 1
@<TRIPOS>MOLECULE
ZINC03815030
   34    37     0     0     0
SMALL
USER_CHARGES

@<TRIPOS>ATOM
      1 C1         -2.8376    6.1251    0.7409 C.3       1 <0>         0.0792
      2 N1         -1.4412    6.4854    0.4828 N.pl3     1 <0>        -0.5129
      3 C2         -0.9298    7.7445    0.4318 C.2       1 <0>         0.3033
      4 N2          0.3461    7.7043    0.1822 N.2       1 <0>        -0.5044
      5 C3          0.7488    6.4125    0.0542 C.ar      1 <0>         0.0948
      6 C4         -0.3969    5.6069    0.2460 C.ar      1 <0>         0.0508
      7 C5         -0.3092    4.2334    0.1761 C.ar      1 <0>        -0.0690
      8 C6          0.9250    3.6345   -0.0869 C.ar      1 <0>        -0.1620
      9 C7          2.0814    4.4364   -0.2756 C.ar      1 <0>         0.1674
     10 C8          1.9831    5.8254   -0.1977 C.ar      1 <0>        -0.0537
     11 N3          3.2522    3.8272   -0.5331 N.ar      1 <0>        -0.5356
     12 C9          3.3208    2.5201   -0.6022 C.ar      1 <0>         0.3404
     13 N4          2.2708    1.7325   -0.4282 N.ar      1 <0>        -0.5832
     14 C10         1.0679    2.2271   -0.1692 C.ar      1 <0>         0.4706
     15 N5         -0.0169    1.3935    0.0097 N.pl3     1 <0>        -0.6381
     16 C11         0.1639    0.0078    0.0396 C.ar      1 <0>         0.1597
     17 C12         1.3331   -0.5305    0.5627 C.ar      1 <0>        -0.0947
     18 C13         1.5088   -1.8999    0.5913 C.ar      1 <0>        -0.0920
     19 C14         0.5225   -2.7358    0.1005 C.ar      1 <0>        -0.1050
     20 C15        -0.6433   -2.2034   -0.4208 C.ar      1 <0>        -0.0710
     21 C16        -0.8271   -0.8338   -0.4483 C.ar      1 <0>        -0.1219
     22 Br1        -1.9895   -3.3508   -1.0895 Br        1 <0>        -0.0452
     23 H1         -2.9877    5.9973    1.8129 H         1 <0>         0.0775
     24 H2         -3.4909    6.9170    0.3745 H         1 <0>         0.0932
     25 H3         -3.0732    5.1930    0.2274 H         1 <0>         0.0834
     26 H4         -1.5015    8.6490    0.5783 H         1 <0>         0.2214
     27 H5         -1.1887    3.6242    0.3234 H         1 <0>         0.1266
     28 H6          2.8581    6.4412   -0.3444 H         1 <0>         0.1508
     29 H7          4.2776    2.0646   -0.8108 H         1 <0>         0.1984
     30 H8         -0.9055    1.7690    0.1108 H         1 <0>         0.4204
     31 H9          2.1039    0.1214    0.9462 H         1 <0>         0.1450
     32 H10         2.4175   -2.3186    0.9979 H         1 <0>         0.1374
     33 H11         0.6624   -3.8064    0.1245 H         1 <0>         0.1347
     34 H12        -1.7389   -0.4186   -0.8515 H         1 <0>         0.1336
@<TRIPOS>BOND
     1    1    2 1
     2    1   23 1
     3    1   24 1
     4    1   25 1
     5    2    6 1
     6    2    3 1
     7    3    4 2
     8    3   26 1
     9    4    5 1
    10    5   10 ar
    11    5    6 ar
    12    6    7 ar
    13    7    8 ar
    14    7   27 1
    15    8   14 ar
    16    8    9 ar
    17    9   10 ar
    18    9   11 ar
    19   10   28 1
    20   11   12 ar
    21   12   13 ar
    22   12   29 1
    23   13   14 ar
    24   14   15 1
    25   15   16 1
    26   15   30 1
    27   16   21 ar
    28   16   17 ar
    29   17   18 ar
    30   17   31 1
    31   18   19 ar
    32   18   32 1
    33   19   20 ar
    34   19   33 1
    35   20   21 ar
    36   20   22 1
    37   21   34 1
@<TRIPOS>MOLECULE
ZINC03815031
   36    38     0     0     0
SMALL
USER_CHARGES

@<TRIPOS>ATOM
      1 C1          6.8051    9.7108   -0.6494 C.3       1 <0>         0.0199
      2 O1          6.9617    8.2934   -0.5570 O.3       1 <0>        -0.2989
      3 C2          5.8274    7.5534   -0.4447 C.ar      1 <0>         0.1458
      4 C3          4.6127    8.1799   -0.4253 C.ar      1 <0>        -0.1700
      5 C4          3.4458    7.4149   -0.3091 C.ar      1 <0>        -0.0356
      6 C5          2.1612    7.9894   -0.2827 C.ar      1 <0>         0.0370
      7 N1          1.1133    7.2059   -0.1718 N.ar      1 <0>        -0.2208
      8 N2          1.1900    5.9304   -0.0849 N.ar      1 <0>        -0.3184
      9 C6          2.3351    5.2709   -0.0980 C.ar      1 <0>         0.3640
     10 C7          3.5398    6.0017   -0.2073 C.ar      1 <0>        -0.0975
     11 C8          4.7955    5.3867   -0.2352 C.ar      1 <0>        -0.1641
     12 C9          5.9189    6.1573   -0.3499 C.ar      1 <0>         0.1333
     13 O2          7.1408    5.5623   -0.3719 O.3       1 <0>        -0.2984
     14 C10         7.1703    4.1371   -0.2717 C.3       1 <0>         0.0199
     15 N3          2.3546    3.8878   -0.0005 N.pl3     1 <0>        -0.6438
     16 C11         1.1558    3.1697   -0.0091 C.ar      1 <0>         0.1646
     17 C12         0.0737    3.6303   -0.7492 C.ar      1 <0>        -0.0999
     18 C13        -1.1098    2.9190   -0.7555 C.ar      1 <0>        -0.0890
     19 C14        -1.2210    1.7518   -0.0221 C.ar      1 <0>        -0.1077
     20 C15        -0.1441    1.2871    0.7118 C.ar      1 <0>        -0.0695
     21 C16         1.0433    1.9945    0.7223 C.ar      1 <0>        -0.1247
     22 Br1        -0.2991   -0.3132    1.7071 Br        1 <0>        -0.0463
     23 H1          6.2086    9.9538   -1.5288 H         1 <0>         0.0618
     24 H2          6.3019   10.0798    0.2443 H         1 <0>         0.0618
     25 H3          7.7853   10.1798   -0.7343 H         1 <0>         0.1079
     26 H4          4.5535    9.2558   -0.4987 H         1 <0>         0.1558
     27 H5          2.0389    9.0602   -0.3529 H         1 <0>         0.1759
     28 H6          4.8773    4.3122   -0.1624 H         1 <0>         0.1434
     29 H7          6.6180    3.7028   -1.1051 H         1 <0>         0.0594
     30 H8          8.2038    3.7921   -0.3016 H         1 <0>         0.1090
     31 H9          6.7115    3.8294    0.6679 H         1 <0>         0.0592
     32 H10         3.2004    3.4187    0.0738 H         1 <0>         0.4177
     33 H11         0.1584    4.5437   -1.3192 H         1 <0>         0.1432
     34 H12        -1.9511    3.2770   -1.3303 H         1 <0>         0.1372
     35 H13        -2.1493    1.1998   -0.0253 H         1 <0>         0.1345
     36 H14         1.8823    1.6340    1.2988 H         1 <0>         0.1333
@<TRIPOS>BOND
     1    1    2 1
     2    1   23 1
     3    1   24 1
     4    1   25 1
     5    2    3 1
     6    3   12 ar
     7    3    4 ar
     8    4    5 ar
     9    4   26 1
    10    5   10 ar
    11    5    6 ar
    12    6    7 ar
    13    6   27 1
    14    7    8 ar
    15    8    9 ar
    16    9   10 ar
    17    9   15 1
    18   10   11 ar
    19   11   12 ar
    20   11   28 1
    21   12   13 1
    22   13   14 1
    23   14   29 1
    24   14   30 1
    25   14   31 1
    26   15   16 1
    27   15   32 1
    28   16   21 ar
    29   16   17 ar
    30   17   18 ar
    31   17   33 1
    32   18   19 ar
    33   18   34 1
    34   19   20 ar
    35   19   35 1
    36   20   21 ar
    37   20   22 1
    38   21   36 1
@<TRIPOS>MOLECULE
ZINC03815032
   36    38     0     0     0
SMALL
USER_CHARGES

@<TRIPOS>ATOM
      1 C1         -0.1078    7.8042   -0.3031 C.3       1 <0>         0.0212
      2 O1          1.1553    7.1532   -0.1516 O.3       1 <0>        -0.2995
      3 C2          1.1387    5.8027    0.0065 C.ar      1 <0>         0.1135
      4 C3         -0.0548    5.1381    0.0140 C.ar      1 <0>        -0.1504
      5 C4         -0.0730    3.7478    0.1767 C.ar      1 <0>        -0.1801
      6 C5          1.1438    3.0386    0.3323 C.ar      1 <0>         0.2015
      7 C6          2.3555    3.7400    0.3215 C.ar      1 <0>        -0.1834
      8 C7          2.3464    5.1079    0.1603 C.ar      1 <0>         0.1646
      9 O2          3.5206    5.7910    0.1494 O.3       1 <0>        -0.2966
     10 C8          4.7173    5.0268    0.3108 C.3       1 <0>         0.0198
     11 N1          1.0982    1.7060    0.4870 N.ar      1 <0>        -0.5383
     12 C9         -0.0526    1.0763    0.4935 C.ar      1 <0>         0.3421
     13 N2         -1.2129    1.6957    0.3463 N.ar      1 <0>        -0.5802
     14 C10        -1.2816    3.0116    0.1923 C.ar      1 <0>         0.4629
     15 N3         -2.4993    3.6452    0.0450 N.pl3     1 <0>        -0.6398
     16 C11        -3.6724    2.8910   -0.0534 C.ar      1 <0>         0.1784
     17 C12        -3.6501    1.6468   -0.6712 C.ar      1 <0>        -0.0926
     18 C13        -4.8087    0.9010   -0.7617 C.ar      1 <0>        -0.0627
     19 C14        -5.9942    1.3966   -0.2483 C.ar      1 <0>        -0.0876
     20 C15        -6.0212    2.6387    0.3624 C.ar      1 <0>        -0.0486
     21 C16        -4.8632    3.3866    0.4612 C.ar      1 <0>        -0.1184
     22 Br1        -7.6436    3.3122    1.0626 Br        1 <0>        -0.0191
     23 Br2        -7.5801    0.3753   -0.3807 Br        1 <0>        -0.0239
     24 H1          0.0480    8.8767   -0.4202 H         1 <0>         0.1077
     25 H2         -0.6151    7.4124   -1.1847 H         1 <0>         0.0578
     26 H3         -0.7196    7.6202    0.5800 H         1 <0>         0.0577
     27 H4         -0.9798    5.6826   -0.1053 H         1 <0>         0.1396
     28 H5          3.2905    3.2124    0.4390 H         1 <0>         0.1570
     29 H6          4.6898    4.5067    1.2684 H         1 <0>         0.0626
     30 H7          4.7947    4.2983   -0.4962 H         1 <0>         0.0626
     31 H8          5.5799    5.6925    0.2835 H         1 <0>         0.1079
     32 H9         -0.0529    0.0038    0.6201 H         1 <0>         0.1995
     33 H10        -2.5409    4.6137    0.0098 H         1 <0>         0.4222
     34 H11        -2.7261    1.2611   -1.0762 H         1 <0>         0.1530
     35 H12        -4.7905   -0.0683   -1.2377 H         1 <0>         0.1466
     36 H13        -4.8844    4.3555    0.9377 H         1 <0>         0.1431
@<TRIPOS>BOND
     1    1    2 1
     2    1   24 1
     3    1   25 1
     4    1   26 1
     5    2    3 1
     6    3    8 ar
     7    3    4 ar
     8    4    5 ar
     9    4   27 1
    10    5   14 ar
    11    5    6 ar
    12    6    7 ar
    13    6   11 ar
    14    7    8 ar
    15    7   28 1
    16    8    9 1
    17    9   10 1
    18   10   29 1
    19   10   30 1
    20   10   31 1
    21   11   12 ar
    22   12   13 ar
    23   12   32 1
    24   13   14 ar
    25   14   15 1
    26   15   16 1
    27   15   33 1
    28   16   21 ar
    29   16   17 ar
    30   17   18 ar
    31   17   34 1
    32   18   19 ar
    33   18   35 1
    34   19   20 ar
    35   19   23 1
    36   20   21 ar
    37   20   22 1
    38   21   36 1
@<TRIPOS>MOLECULE
ZINC03815033
   36    38     0     0     0
SMALL
USER_CHARGES

@<TRIPOS>ATOM
      1 C1         -2.4297    0.0801    0.7917 C.3       1 <0>         0.0716
      2 N1         -1.1520   -0.6301    0.8894 N.pl3     1 <0>        -0.5982
      3 C2         -1.1299   -2.0544    1.2314 C.3       1 <0>         0.0667
      4 C3          0.0383    0.0470    0.6578 C.ar      1 <0>         0.4336
      5 C4          0.0070    1.4125    0.4390 C.ar      1 <0>        -0.1959
      6 C5          1.2151    2.0791    0.2073 C.ar      1 <0>         0.3040
      7 C6          2.4142    1.3171    0.2089 C.ar      1 <0>        -0.2627
      8 C7          2.3457   -0.0585    0.4401 C.ar      1 <0>         0.2636
      9 C8          3.6338    1.9938   -0.0250 C.ar      1 <0>         0.5205
     10 N2          3.5913    3.3046   -0.2339 N.ar      1 <0>        -0.5818
     11 C9          2.4488    3.9716   -0.2264 C.ar      1 <0>         0.4269
     12 N3          1.2865    3.3975   -0.0149 N.ar      1 <0>        -0.5566
     13 N4          4.8320    1.3123   -0.0364 N.pl3     1 <0>        -0.6093
     14 C10         6.0349    2.0155   -0.1491 C.ar      1 <0>         0.1221
     15 C11         6.1710    3.2624    0.4483 C.ar      1 <0>        -0.0827
     16 C12         7.3605    3.9546    0.3358 C.ar      1 <0>        -0.0915
     17 C13         8.4165    3.4080   -0.3704 C.ar      1 <0>        -0.0831
     18 C14         8.2848    2.1665   -0.9667 C.ar      1 <0>        -0.0754
     19 C15         7.0984    1.4666   -0.8536 C.ar      1 <0>        -0.1027
     20 Br1         9.7320    1.4231   -1.9306 Br        1 <0>        -0.0271
     21 H1         -2.8039    0.0158   -0.2300 H         1 <0>         0.0826
     22 H2         -3.1505   -0.3737    1.4718 H         1 <0>         0.0981
     23 H3         -2.2852    1.1265    1.0606 H         1 <0>         0.0921
     24 H4         -0.0985   -2.4060    1.2569 H         1 <0>         0.0663
     25 H5         -1.5878   -2.2003    2.2098 H         1 <0>         0.0963
     26 H6         -1.6871   -2.6167    0.4820 H         1 <0>         0.0952
     27 H7         -0.9291    1.9511    0.4424 H         1 <0>         0.1926
     28 H8          3.2488   -0.6509    0.4443 H         1 <0>         0.1961
     29 H9          2.4728    5.0369   -0.4025 H         1 <0>         0.2214
     30 H10         4.8405    0.3449    0.0339 H         1 <0>         0.4242
     31 H11         5.3469    3.6902    1.0000 H         1 <0>         0.1421
     32 H12         7.4665    4.9239    0.8001 H         1 <0>         0.1447
     33 H13         9.3460    3.9512   -0.4562 H         1 <0>         0.1429
     34 H14         6.9972    0.4957   -1.3156 H         1 <0>         0.1388
     35 N5          1.1800   -0.7171    0.6661 N.ar      1 <0>        -0.5436
     36 H15         1.1533   -1.7297    0.8339 H         1 <0>         0.4682
@<TRIPOS>BOND
     1    1    2 1
     2    1   21 1
     3    1   22 1
     4    1   23 1
     5    2    3 1
     6    2    4 1
     7    3   24 1
     8    3   25 1
     9    3   26 1
    10    4    5 ar
    11    4   35 ar
    12    5    6 ar
    13    5   27 1
    14    6   12 ar
    15    6    7 ar
    16    7    8 ar
    17    7    9 ar
    18    8   28 1
    19    8   35 ar
    20    9   10 ar
    21    9   13 1
    22   10   11 ar
    23   11   12 ar
    24   11   29 1
    25   13   14 1
    26   13   30 1
    27   14   19 ar
    28   14   15 ar
    29   15   16 ar
    30   15   31 1
    31   16   17 ar
    32   16   32 1
    33   17   18 ar
    34   17   33 1
    35   18   19 ar
    36   18   20 1
    37   19   34 1
    38   35   36 1
@<TRIPOS>MOLECULE
ZINC03815034
   30    32     0     0     0
SMALL
USER_CHARGES

@<TRIPOS>ATOM
      1 C1          5.9509    2.8072   -0.3308 C.ar      1 <0>        -0.0918
      2 C2          4.7731    3.5232   -0.4213 C.ar      1 <0>        -0.1357
      3 C3          3.5964    2.9895    0.0885 C.ar      1 <0>         0.1621
      4 C4          3.6091    1.7390    0.6933 C.ar      1 <0>        -0.0859
      5 C5          4.7895    1.0256    0.7761 C.ar      1 <0>        -0.0701
      6 C6          5.9600    1.5607    0.2669 C.ar      1 <0>        -0.1092
      7 Br1         4.8072   -0.6799    1.5926 Br        1 <0>        -0.0448
      8 N1          2.4031    3.7117   -0.0018 N.pl3     1 <0>        -0.6401
      9 C7          1.2034    3.0462   -0.1536 C.ar      1 <0>         0.4472
     10 C8         -0.0265    3.7488   -0.1302 C.ar      1 <0>        -0.1320
     11 C9         -0.0854    5.1352    0.0458 C.ar      1 <0>        -0.1822
     12 C10        -1.3140    5.7636    0.0601 C.ar      1 <0>         0.2135
     13 C11        -2.4918    5.0270   -0.1001 C.ar      1 <0>        -0.1315
     14 C12        -2.4555    3.6768   -0.2732 C.ar      1 <0>        -0.0579
     15 C13        -1.2232    3.0090   -0.2919 C.ar      1 <0>         0.1389
     16 N2         -1.1403    1.6806   -0.4646 N.ar      1 <0>        -0.5286
     17 C14         0.0266    1.0823   -0.4730 C.ar      1 <0>         0.3218
     18 N3          1.1708    1.7319   -0.3258 N.ar      1 <0>        -0.5719
     19 N4         -1.3817    7.1483    0.2364 N.pl3     1 <0>        -0.8731
     20 H1          6.8660    3.2220   -0.7271 H         1 <0>         0.1363
     21 H2          4.7671    4.4969   -0.8885 H         1 <0>         0.1306
     22 H3          2.6968    1.3234    1.0950 H         1 <0>         0.1481
     23 H4          6.8824    1.0033    0.3370 H         1 <0>         0.1339
     24 H5          2.4181    4.6806    0.0422 H         1 <0>         0.4216
     25 H6          0.8217    5.7081    0.1705 H         1 <0>         0.1235
     26 H7         -3.4441    5.5363   -0.0862 H         1 <0>         0.1352
     27 H8         -3.3739    3.1218   -0.3952 H         1 <0>         0.1444
     28 H9          0.0558    0.0115   -0.6106 H         1 <0>         0.1952
     29 H10        -2.2430    7.5943    0.2471 H         1 <0>         0.4018
     30 H11        -0.5674    7.6634    0.3479 H         1 <0>         0.4009
@<TRIPOS>BOND
     1    1    6 ar
     2    1    2 ar
     3    1   20 1
     4    2    3 ar
     5    2   21 1
     6    3    4 ar
     7    3    8 1
     8    4    5 ar
     9    4   22 1
    10    5    6 ar
    11    5    7 1
    12    6   23 1
    13    8    9 1
    14    8   24 1
    15    9   18 ar
    16    9   10 ar
    17   10   15 ar
    18   10   11 ar
    19   11   12 ar
    20   11   25 1
    21   12   13 ar
    22   12   19 1
    23   13   14 ar
    24   13   26 1
    25   14   15 ar
    26   14   27 1
    27   15   16 ar
    28   16   17 ar
    29   17   18 ar
    30   17   28 1
    31   19   29 1
    32   19   30 1
@<TRIPOS>MOLECULE
ZINC03815035
   30    32     0     0     0
SMALL
USER_CHARGES

@<TRIPOS>ATOM
      1 C1          4.0877   -4.5419    0.2273 C.ar      1 <0>        -0.0898
      2 C2          2.8497   -3.9414    0.3484 C.ar      1 <0>        -0.1175
      3 C3          2.6507   -2.6577   -0.1435 C.ar      1 <0>         0.1272
      4 C4          3.6968   -1.9837   -0.7607 C.ar      1 <0>        -0.0784
      5 C5          4.9342   -2.5880   -0.8745 C.ar      1 <0>        -0.0741
      6 C6          5.1286   -3.8672   -0.3832 C.ar      1 <0>        -0.0879
      7 Br1         6.3610   -1.6696   -1.7092 Br        1 <0>        -0.0287
      8 N1          1.3990   -2.0477   -0.0227 N.pl3     1 <0>        -0.6077
      9 C7          1.3107   -0.6807    0.1420 C.ar      1 <0>         0.4698
     10 C8          0.0199    0.0007    0.1513 C.ar      1 <0>        -0.0669
     11 C9         -1.1978   -0.6656   -0.0016 C.ar      1 <0>        -0.1347
     12 C10        -2.3630    0.0813    0.0236 C.ar      1 <0>         0.4054
     13 C11        -1.2204    2.0754    0.3421 C.ar      1 <0>         0.2206
     14 C12         0.0114    1.4085    0.3253 C.ar      1 <0>         0.1227
     15 N2          1.1830    2.0416    0.4719 N.ar      1 <0>        -0.5251
     16 C13         2.3130    1.3790    0.4556 C.ar      1 <0>         0.3848
     17 N3          2.3967    0.0674    0.2979 N.ar      1 <0>        -0.5477
     18 N4         -3.5889   -0.5624   -0.1270 N.pl3     1 <0>        -0.8314
     19 H1          4.2427   -5.5400    0.6097 H         1 <0>         0.1445
     20 H2          2.0373   -4.4693    0.8254 H         1 <0>         0.1360
     21 H3          3.5442   -0.9870   -1.1479 H         1 <0>         0.1476
     22 H4          6.0953   -4.3394   -0.4772 H         1 <0>         0.1421
     23 H5          0.5923   -2.5855   -0.0548 H         1 <0>         0.4276
     24 H6         -1.2297   -1.7368   -0.1359 H         1 <0>         0.1818
     25 H7         -1.2521    3.1469    0.4732 H         1 <0>         0.2182
     26 H8          3.2303    1.9357    0.5779 H         1 <0>         0.2197
     27 H9         -3.6199   -1.5243   -0.2480 H         1 <0>         0.4365
     28 H10        -4.4116   -0.0488   -0.1109 H         1 <0>         0.4213
     29 N5         -2.4118    1.4432    0.1898 N.ar      1 <0>        -0.4948
     30 H11        -3.3014    1.9559    0.1983 H         1 <0>         0.4788
@<TRIPOS>BOND
     1    1    6 ar
     2    1    2 ar
     3    1   19 1
     4    2    3 ar
     5    2   20 1
     6    3    4 ar
     7    3    8 1
     8    4    5 ar
     9    4   21 1
    10    5    6 ar
    11    5    7 1
    12    6   22 1
    13    8    9 1
    14    8   23 1
    15    9   17 ar
    16    9   10 ar
    17   10   14 ar
    18   10   11 ar
    19   11   12 ar
    20   11   24 1
    21   12   18 1
    22   12   29 ar
    23   13   14 ar
    24   13   25 1
    25   13   29 ar
    26   14   15 ar
    27   15   16 ar
    28   16   17 ar
    29   16   26 1
    30   18   27 1
    31   18   28 1
    32   29   30 1
@<TRIPOS>MOLECULE
ZINC03815036
   29    31     0     0     0
SMALL
USER_CHARGES

@<TRIPOS>ATOM
      1 C1         -5.9286   -1.2296    0.3409 C.ar      1 <0>        -0.0919
      2 C2         -4.7836   -0.4634    0.4406 C.ar      1 <0>        -0.1331
      3 C3         -3.5844   -0.9383   -0.0748 C.ar      1 <0>         0.1578
      4 C4         -3.5416   -2.1810   -0.6940 C.ar      1 <0>        -0.0843
      5 C5         -4.6894   -2.9446   -0.7868 C.ar      1 <0>        -0.0705
      6 C6         -5.8824   -2.4682   -0.2716 C.ar      1 <0>        -0.1064
      7 Br1        -4.6318   -4.6388   -1.6247 Br        1 <0>        -0.0428
      8 N1         -2.4244   -0.1648    0.0243 N.pl3     1 <0>        -0.6367
      9 C7         -1.1971   -0.7777    0.1688 C.ar      1 <0>         0.4630
     10 C8         -0.0002   -0.0218    0.1540 C.ar      1 <0>        -0.1852
     11 C9          0.0002    1.3693   -0.0070 C.ar      1 <0>        -0.1298
     12 C10         1.2225    2.0205   -0.0087 C.ar      1 <0>         0.1529
     13 C11         2.3979    1.2808    0.1479 C.ar      1 <0>         0.1349
     14 N2          2.3768   -0.0232    0.2976 N.ar      1 <0>        -0.4323
     15 C12         1.2312   -0.7046    0.3074 C.ar      1 <0>         0.3209
     16 N3          1.2064   -2.0378    0.4598 N.ar      1 <0>        -0.5206
     17 C13         0.0674   -2.6883    0.4659 C.ar      1 <0>         0.3485
     18 N4         -1.1055   -2.0920    0.3265 N.ar      1 <0>        -0.5741
     19 N5          1.2803    3.4086   -0.1664 N.pl3     1 <0>        -0.8639
     20 H1         -6.8611   -0.8606    0.7416 H         1 <0>         0.1372
     21 H2         -4.8208    0.5041    0.9193 H         1 <0>         0.1312
     22 H3         -2.6116   -2.5513   -1.0995 H         1 <0>         0.1486
     23 H4         -6.7791   -3.0651   -0.3485 H         1 <0>         0.1348
     24 H5         -2.4824    0.8029   -0.0086 H         1 <0>         0.4219
     25 H6         -0.9229    1.9163   -0.1305 H         1 <0>         0.1360
     26 H7          3.3477    1.7949    0.1453 H         1 <0>         0.1708
     27 H8          0.0879   -3.7608    0.5909 H         1 <0>         0.2037
     28 H9          0.4625    3.9188   -0.2752 H         1 <0>         0.4035
     29 H10         2.1381    3.8614   -0.1671 H         1 <0>         0.4058
@<TRIPOS>BOND
     1    1    6 ar
     2    1    2 ar
     3    1   20 1
     4    2    3 ar
     5    2   21 1
     6    3    4 ar
     7    3    8 1
     8    4    5 ar
     9    4   22 1
    10    5    6 ar
    11    5    7 1
    12    6   23 1
    13    8    9 1
    14    8   24 1
    15    9   18 ar
    16    9   10 ar
    17   10   15 ar
    18   10   11 ar
    19   11   12 ar
    20   11   25 1
    21   12   13 ar
    22   12   19 1
    23   13   14 ar
    24   13   26 1
    25   14   15 ar
    26   15   16 ar
    27   16   17 ar
    28   17   18 ar
    29   17   27 1
    30   19   28 1
    31   19   29 1
@<TRIPOS>MOLECULE
ZINC03815037
   33    35     0     0     0
SMALL
USER_CHARGES

@<TRIPOS>ATOM
      1 C1          1.3484   -4.7911    0.8377 C.3       1 <0>         0.0717
      2 N1          2.5612   -3.9694    0.8356 N.pl3     1 <0>        -0.7077
      3 C2          2.4720   -2.6003    0.6204 C.ar      1 <0>         0.4337
      4 C3          1.2299   -2.0292    0.4098 C.ar      1 <0>        -0.1929
      5 C4          1.1580   -0.6486    0.1946 C.ar      1 <0>         0.3045
      6 C5          2.3673    0.0969    0.2036 C.ar      1 <0>        -0.2629
      7 C6          3.5750   -0.5685    0.4254 C.ar      1 <0>         0.2662
      8 C7          2.2915    1.4922   -0.0143 C.ar      1 <0>         0.5203
      9 N2          1.0937    2.0291   -0.2162 N.ar      1 <0>        -0.5811
     10 C8         -0.0056    1.2930   -0.2154 C.ar      1 <0>         0.4276
     11 N3          0.0030   -0.0056   -0.0184 N.ar      1 <0>        -0.5562
     12 N4          3.4280    2.2722   -0.0180 N.pl3     1 <0>        -0.6085
     13 C9          3.3212    3.6627   -0.1146 C.ar      1 <0>         0.1214
     14 C10         2.2594    4.3230    0.4911 C.ar      1 <0>        -0.0826
     15 C11         2.1566    5.6966    0.3945 C.ar      1 <0>        -0.0915
     16 C12         3.1093    6.4157   -0.3040 C.ar      1 <0>        -0.0827
     17 C13         4.1680    5.7616   -0.9086 C.ar      1 <0>        -0.0755
     18 C14         4.2791    4.3874   -0.8114 C.ar      1 <0>        -0.1024
     19 Br1         5.4681    6.7494   -1.8625 Br        1 <0>        -0.0268
     20 H1          1.6150   -5.8320    1.0212 H         1 <0>         0.1038
     21 H2          0.6760   -4.4445    1.6225 H         1 <0>         0.0826
     22 H3          0.8517   -4.7083   -0.1290 H         1 <0>         0.0826
     23 H4          3.4266   -4.3816    0.9845 H         1 <0>         0.4194
     24 H5          0.3360   -2.6352    0.4111 H         1 <0>         0.1916
     25 H6          4.5024   -0.0151    0.4350 H         1 <0>         0.1969
     26 H7         -0.9530    1.7815   -0.3890 H         1 <0>         0.2218
     27 H8          4.3019    1.8563    0.0464 H         1 <0>         0.4245
     28 H9          1.5149    3.7624    1.0368 H         1 <0>         0.1421
     29 H10         1.3313    6.2102    0.8653 H         1 <0>         0.1448
     30 H11         3.0268    7.4900   -0.3774 H         1 <0>         0.1430
     31 H12         5.1079    3.8775   -1.2799 H         1 <0>         0.1389
     32 N5          3.6583   -1.9074    0.6355 N.ar      1 <0>        -0.5400
     33 H13         4.5576   -2.3758    0.7966 H         1 <0>         0.4733
@<TRIPOS>BOND
     1    1    2 1
     2    1   20 1
     3    1   21 1
     4    1   22 1
     5    2    3 1
     6    2   23 1
     7    3    4 ar
     8    3   32 ar
     9    4    5 ar
    10    4   24 1
    11    5   11 ar
    12    5    6 ar
    13    6    7 ar
    14    6    8 ar
    15    7   25 1
    16    7   32 ar
    17    8    9 ar
    18    8   12 1
    19    9   10 ar
    20   10   11 ar
    21   10   26 1
    22   12   13 1
    23   12   27 1
    24   13   18 ar
    25   13   14 ar
    26   14   15 ar
    27   14   28 1
    28   15   16 ar
    29   15   29 1
    30   16   17 ar
    31   16   30 1
    32   17   18 ar
    33   17   19 1
    34   18   31 1
    35   32   33 1
@<TRIPOS>MOLECULE
ZINC03815038
   30    32     0     0     0
SMALL
USER_CHARGES

@<TRIPOS>ATOM
      1 C1          4.3673   -4.4187   -0.3516 C.ar      1 <0>        -0.0919
      2 C2          4.4335   -3.0425   -0.4508 C.ar      1 <0>        -0.1317
      3 C3          3.4077   -2.2601    0.0638 C.ar      1 <0>         0.1558
      4 C4          2.3205   -2.8645    0.6822 C.ar      1 <0>        -0.0839
      5 C5          2.2576   -4.2417    0.7736 C.ar      1 <0>        -0.0710
      6 C6          3.2818   -5.0180    0.2597 C.ar      1 <0>        -0.1053
      7 Br1         0.7749   -5.0664    1.6087 Br        1 <0>        -0.0424
      8 N1          3.4720   -0.8674   -0.0353 N.pl3     1 <0>        -0.6369
      9 C7          2.3130   -0.1315   -0.1808 C.ar      1 <0>         0.4683
     10 C8          2.3441    1.2832   -0.1658 C.ar      1 <0>        -0.1855
     11 C9          3.5385    1.9962   -0.0044 C.ar      1 <0>        -0.0868
     12 C10         3.5153    3.3616    0.0035 C.ar      1 <0>         0.0774
     13 C11         2.3081    4.0586   -0.1483 C.ar      1 <0>         0.1342
     14 C12         1.1200    3.3810   -0.3081 C.ar      1 <0>        -0.1225
     15 C13         1.1205    1.9805   -0.3197 C.ar      1 <0>         0.1977
     16 N2         -0.0100    1.2731   -0.4722 N.ar      1 <0>        -0.5407
     17 C14         0.0218   -0.0383   -0.4781 C.ar      1 <0>         0.3507
     18 N3          1.1404   -0.7317   -0.3380 N.ar      1 <0>        -0.5791
     19 O1          2.3105    5.4170   -0.1371 O.3       1 <0>        -0.4825
     20 O2          4.6756    4.0530    0.1608 O.3       1 <0>        -0.4831
     21 H1          5.1649   -5.0272   -0.7516 H         1 <0>         0.1378
     22 H2          5.2820   -2.5753   -0.9285 H         1 <0>         0.1320
     23 H3          1.5235   -2.2587    1.0876 H         1 <0>         0.1483
     24 H4          3.2329   -6.0941    0.3365 H         1 <0>         0.1353
     25 H5          4.3309   -0.4179   -0.0018 H         1 <0>         0.4233
     26 H6          4.4735    1.4687    0.1136 H         1 <0>         0.1382
     27 H7          0.1946    3.9255   -0.4244 H         1 <0>         0.1545
     28 H8         -0.9062   -0.5762   -0.6034 H         1 <0>         0.2013
     29 H9          2.4254    5.8173   -1.0099 H         1 <0>         0.3971
     30 H10         5.1258    4.2600   -0.6697 H         1 <0>         0.3912
@<TRIPOS>BOND
     1    1    6 ar
     2    1    2 ar
     3    1   21 1
     4    2    3 ar
     5    2   22 1
     6    3    4 ar
     7    3    8 1
     8    4    5 ar
     9    4   23 1
    10    5    6 ar
    11    5    7 1
    12    6   24 1
    13    8    9 1
    14    8   25 1
    15    9   18 ar
    16    9   10 ar
    17   10   15 ar
    18   10   11 ar
    19   11   12 ar
    20   11   26 1
    21   12   13 ar
    22   12   20 1
    23   13   14 ar
    24   13   19 1
    25   14   15 ar
    26   14   27 1
    27   15   16 ar
    28   16   17 ar
    29   17   18 ar
    30   17   28 1
    31   19   29 1
    32   20   30 1
@<TRIPOS>MOLECULE
ZINC03815039
   48    50     0     0     0
SMALL
USER_CHARGES

@<TRIPOS>ATOM
      1 C1         -1.2414   10.0061   -0.6347 C.3       1 <0>        -0.1509
      2 C2          0.1109    9.3092   -0.4715 C.3       1 <0>        -0.1232
      3 C3         -0.1078    7.8040   -0.3063 C.3       1 <0>         0.0537
      4 O1          1.1552    7.1531   -0.1539 O.3       1 <0>        -0.2982
      5 C4          1.1386    5.8027    0.0051 C.ar      1 <0>         0.1151
      6 C5         -0.0548    5.1381    0.0126 C.ar      1 <0>        -0.1500
      7 C6         -0.0731    3.7478    0.1757 C.ar      1 <0>        -0.1818
      8 C7          1.1438    3.0387    0.3318 C.ar      1 <0>         0.2017
      9 C8          2.3554    3.7401    0.3210 C.ar      1 <0>        -0.1846
     10 C9          2.3464    5.1079    0.1589 C.ar      1 <0>         0.1674
     11 O2          3.5206    5.7910    0.1476 O.3       1 <0>        -0.2952
     12 C10         4.7172    5.0268    0.3090 C.3       1 <0>         0.0515
     13 C11         5.9282    5.9611    0.2700 C.3       1 <0>        -0.1226
     14 C12         7.2094    5.1429    0.4428 C.3       1 <0>        -0.1511
     15 N1          1.0981    1.7061    0.4869 N.ar      1 <0>        -0.5406
     16 C13        -0.0526    1.0764    0.4933 C.ar      1 <0>         0.3429
     17 N2         -1.2130    1.6959    0.3462 N.ar      1 <0>        -0.5800
     18 C14        -1.2817    3.0116    0.1913 C.ar      1 <0>         0.4628
     19 N3         -2.4993    3.6452    0.0437 N.pl3     1 <0>        -0.6400
     20 C15        -3.6722    2.8912   -0.0546 C.ar      1 <0>         0.1593
     21 C16        -4.8637    3.3870    0.4598 C.ar      1 <0>        -0.1339
     22 C17        -6.0210    2.6401    0.3609 C.ar      1 <0>        -0.0918
     23 C18        -5.9952    1.3994   -0.2496 C.ar      1 <0>        -0.1072
     24 C19        -4.8106    0.9025   -0.7635 C.ar      1 <0>        -0.0705
     25 C20        -3.6499    1.6474   -0.6718 C.ar      1 <0>        -0.0847
     26 Br1        -4.7809   -0.7942   -1.5978 Br        1 <0>        -0.0437
     27 H1         -1.0856   11.0785   -0.7524 H         1 <0>         0.0669
     28 H2         -1.7483    9.6137   -1.5162 H         1 <0>         0.0580
     29 H3         -1.8535    9.8227    0.2483 H         1 <0>         0.0579
     30 H4          0.6179    9.7017    0.4100 H         1 <0>         0.0758
     31 H5          0.7231    9.4927   -1.3545 H         1 <0>         0.0758
     32 H6         -0.6147    7.4116   -1.1878 H         1 <0>         0.0635
     33 H7         -0.7199    7.6205    0.5767 H         1 <0>         0.0632
     34 H8         -0.9799    5.6825   -0.1070 H         1 <0>         0.1379
     35 H9          3.2904    3.2126    0.4392 H         1 <0>         0.1553
     36 H10         4.6900    4.5070    1.2667 H         1 <0>         0.0686
     37 H11         4.7945    4.2980   -0.4979 H         1 <0>         0.0686
     38 H12         5.9554    6.4809   -0.6877 H         1 <0>         0.0752
     39 H13         5.8509    6.6899    1.0769 H         1 <0>         0.0751
     40 H14         7.1822    4.6231    1.4005 H         1 <0>         0.0588
     41 H15         7.2867    4.4142   -0.3640 H         1 <0>         0.0589
     42 H16         8.0721    5.8086    0.4151 H         1 <0>         0.0664
     43 H17        -0.0529    0.0039    0.6200 H         1 <0>         0.1982
     44 H18        -2.5410    4.6137    0.0083 H         1 <0>         0.4206
     45 H19        -4.8848    4.3556    0.9371 H         1 <0>         0.1309
     46 H20        -6.9474    3.0254    0.7604 H         1 <0>         0.1370
     47 H21        -6.9018    0.8174   -0.3256 H         1 <0>         0.1346
     48 H22        -2.7261    1.2609   -1.0764 H         1 <0>         0.1486
@<TRIPOS>BOND
     1    1    2 1
     2    1   27 1
     3    1   28 1
     4    1   29 1
     5    2    3 1
     6    2   30 1
     7    2   31 1
     8    3    4 1
     9    3   32 1
    10    3   33 1
    11    4    5 1
    12    5   10 ar
    13    5    6 ar
    14    6    7 ar
    15    6   34 1
    16    7   18 ar
    17    7    8 ar
    18    8    9 ar
    19    8   15 ar
    20    9   10 ar
    21    9   35 1
    22   10   11 1
    23   11   12 1
    24   12   13 1
    25   12   36 1
    26   12   37 1
    27   13   14 1
    28   13   38 1
    29   13   39 1
    30   14   40 1
    31   14   41 1
    32   14   42 1
    33   15   16 ar
    34   16   17 ar
    35   16   43 1
    36   17   18 ar
    37   18   19 1
    38   19   20 1
    39   19   44 1
    40   20   25 ar
    41   20   21 ar
    42   21   22 ar
    43   21   45 1
    44   22   23 ar
    45   22   46 1
    46   23   24 ar
    47   23   47 1
    48   24   25 ar
    49   24   26 1
    50   25   48 1
@<TRIPOS>MOLECULE
ZINC03815040
   41    43     0     0     0
SMALL
USER_CHARGES

@<TRIPOS>ATOM
      1 C1          3.2477    7.8488    0.3032 C.ar      1 <0>        -0.0898
      2 C2          3.3146    6.4726    0.4008 C.ar      1 <0>        -0.1183
      3 C3          2.2783    5.6913   -0.0942 C.ar      1 <0>         0.1281
      4 C4          1.1797    6.2968   -0.6910 C.ar      1 <0>        -0.0785
      5 C5          1.1164    7.6741   -0.7808 C.ar      1 <0>        -0.0737
      6 C6          2.1509    8.4493   -0.2864 C.ar      1 <0>        -0.0882
      7 Br1        -0.3817    8.5003   -1.5864 Br        1 <0>        -0.0284
      8 N1          2.3435    4.2984    0.0028 N.pl3     1 <0>        -0.6092
      9 C7          1.1874    3.5634    0.1663 C.ar      1 <0>         0.4685
     10 C8          1.2075    2.1039    0.1512 C.ar      1 <0>        -0.0639
     11 C9          2.3743    1.3571   -0.0248 C.ar      1 <0>        -0.1410
     12 C10         2.2768   -0.0238   -0.0226 C.ar      1 <0>         0.4015
     13 C11        -0.0184    0.0184    0.3137 C.ar      1 <0>         0.2258
     14 C12        -0.0225    1.4193    0.3255 C.ar      1 <0>         0.1194
     15 N2         -1.1372    2.1418    0.4998 N.ar      1 <0>        -0.5230
     16 C13        -1.0977    3.4512    0.4999 C.ar      1 <0>         0.3826
     17 N3          0.0120    4.1556    0.3433 N.ar      1 <0>        -0.5465
     18 N4          3.4275   -0.7887   -0.1973 N.pl3     1 <0>        -0.7029
     19 C14         4.7235   -0.1308   -0.3815 C.3       1 <0>         0.0782
     20 C15         5.8141   -1.1906   -0.5499 C.3       1 <0>         0.0947
     21 H1          5.5916   -1.8055   -1.4220 H         1 <0>         0.1208
     22 C16         7.1675   -0.5035   -0.7422 C.3       1 <0>         0.0476
     23 O1          8.1669   -1.4877   -1.0154 O.3       1 <0>        -0.5602
     24 O2          5.8603   -2.0160    0.6157 O.3       1 <0>        -0.5455
     25 H2          4.0535    8.4565    0.6877 H         1 <0>         0.1443
     26 H3          4.1717    6.0045    0.8619 H         1 <0>         0.1354
     27 H4          0.3744    5.6919   -1.0808 H         1 <0>         0.1477
     28 H5          2.1013    9.5255   -0.3617 H         1 <0>         0.1420
     29 H6          3.2016    3.8486   -0.0449 H         1 <0>         0.4261
     30 H7          3.3284    1.8445   -0.1604 H         1 <0>         0.1779
     31 H8         -0.9426   -0.5249    0.4444 H         1 <0>         0.2185
     32 H9         -2.0246    3.9876    0.6396 H         1 <0>         0.2196
     33 H10         3.3709   -1.7570   -0.1971 H         1 <0>         0.4247
     34 H11         4.6882    0.4988   -1.2706 H         1 <0>         0.0982
     35 H12         4.9460    0.4841    0.4906 H         1 <0>         0.0912
     36 H13         7.1058    0.1933   -1.5782 H         1 <0>         0.0618
     37 H14         7.4313    0.0401    0.1650 H         1 <0>         0.0566
     38 H15         9.0524   -1.1227   -1.1486 H         1 <0>         0.3924
     39 H16         6.0541   -1.5341    1.4314 H         1 <0>         0.3814
     40 N5          1.1063   -0.7218    0.1429 N.ar      1 <0>        -0.4948
     41 H17         1.0830   -1.7482    0.1377 H         1 <0>         0.4790
@<TRIPOS>BOND
     1    1    6 ar
     2    1    2 ar
     3    1   25 1
     4    2    3 ar
     5    2   26 1
     6    3    4 ar
     7    3    8 1
     8    4    5 ar
     9    4   27 1
    10    5    6 ar
    11    5    7 1
    12    6   28 1
    13    8    9 1
    14    8   29 1
    15    9   17 ar
    16    9   10 ar
    17   10   14 ar
    18   10   11 ar
    19   11   12 ar
    20   11   30 1
    21   12   18 1
    22   12   40 ar
    23   13   14 ar
    24   13   31 1
    25   13   40 ar
    26   14   15 ar
    27   15   16 ar
    28   16   17 ar
    29   16   32 1
    30   18   19 1
    31   18   33 1
    32   19   20 1
    33   19   34 1
    34   19   35 1
    35   20   21 1
    36   20   22 1
    37   20   24 1
    38   22   23 1
    39   22   36 1
    40   22   37 1
    41   23   38 1
    42   24   39 1
    43   40   41 1
@<TRIPOS>MOLECULE
ZINC03815041
   37    39     0     0     0
SMALL
USER_CHARGES

@<TRIPOS>ATOM
      1 C1          4.0877   -4.5419    0.2273 C.ar      1 <0>        -0.0899
      2 C2          2.8497   -3.9414    0.3484 C.ar      1 <0>        -0.1182
      3 C3          2.6507   -2.6577   -0.1435 C.ar      1 <0>         0.1287
      4 C4          3.6968   -1.9837   -0.7607 C.ar      1 <0>        -0.0786
      5 C5          4.9342   -2.5880   -0.8745 C.ar      1 <0>        -0.0737
      6 C6          5.1286   -3.8672   -0.3832 C.ar      1 <0>        -0.0886
      7 Br1         6.3610   -1.6696   -1.7092 Br        1 <0>        -0.0291
      8 N1          1.3990   -2.0477   -0.0227 N.pl3     1 <0>        -0.6092
      9 C7          1.3107   -0.6807    0.1420 C.ar      1 <0>         0.4688
     10 C8          0.0199    0.0007    0.1513 C.ar      1 <0>        -0.0632
     11 C9         -1.1978   -0.6656   -0.0016 C.ar      1 <0>        -0.1406
     12 C10        -2.3630    0.0813    0.0236 C.ar      1 <0>         0.4022
     13 C11        -1.2204    2.0754    0.3421 C.ar      1 <0>         0.2230
     14 C12         0.0114    1.4085    0.3253 C.ar      1 <0>         0.1183
     15 N2          1.1830    2.0416    0.4719 N.ar      1 <0>        -0.5238
     16 C13         2.3130    1.3790    0.4556 C.ar      1 <0>         0.3818
     17 N3          2.3967    0.0674    0.2979 N.ar      1 <0>        -0.5474
     18 N4         -3.5889   -0.5624   -0.1270 N.pl3     1 <0>        -0.7025
     19 C14        -3.6357   -2.0152   -0.3097 C.3       1 <0>         0.1102
     20 C15        -5.0914   -2.4649   -0.4496 C.3       1 <0>         0.0589
     21 O1         -5.6469   -1.9153   -1.6460 O.3       1 <0>        -0.5760
     22 H1          4.2427   -5.5400    0.6097 H         1 <0>         0.1442
     23 H2          2.0373   -4.4693    0.8254 H         1 <0>         0.1357
     24 H3          3.5442   -0.9870   -1.1479 H         1 <0>         0.1477
     25 H4          6.0953   -4.3394   -0.4772 H         1 <0>         0.1418
     26 H5          0.5923   -2.5855   -0.0548 H         1 <0>         0.4267
     27 H6         -1.2297   -1.7368   -0.1359 H         1 <0>         0.1786
     28 H7         -1.2521    3.1469    0.4732 H         1 <0>         0.2175
     29 H8          3.2303    1.9357    0.5779 H         1 <0>         0.2190
     30 H9         -4.4116   -0.0488   -0.1109 H         1 <0>         0.4217
     31 H10        -3.0837   -2.2862   -1.2097 H         1 <0>         0.0936
     32 H11        -3.1856   -2.5047    0.5539 H         1 <0>         0.0997
     33 H12        -5.1326   -3.5531   -0.4964 H         1 <0>         0.0818
     34 H13        -5.6636   -2.1164    0.4102 H         1 <0>         0.0622
     35 H14        -6.5699   -2.1596   -1.7995 H         1 <0>         0.3976
     36 N5         -2.4118    1.4432    0.1898 N.ar      1 <0>        -0.4965
     37 H15        -3.3014    1.9559    0.1983 H         1 <0>         0.4778
@<TRIPOS>BOND
     1    1    6 ar
     2    1    2 ar
     3    1   22 1
     4    2    3 ar
     5    2   23 1
     6    3    4 ar
     7    3    8 1
     8    4    5 ar
     9    4   24 1
    10    5    6 ar
    11    5    7 1
    12    6   25 1
    13    8    9 1
    14    8   26 1
    15    9   17 ar
    16    9   10 ar
    17   10   14 ar
    18   10   11 ar
    19   11   12 ar
    20   11   27 1
    21   12   18 1
    22   12   36 ar
    23   13   14 ar
    24   13   28 1
    25   13   36 ar
    26   14   15 ar
    27   15   16 ar
    28   16   17 ar
    29   16   29 1
    30   18   19 1
    31   18   30 1
    32   19   20 1
    33   19   31 1
    34   19   32 1
    35   20   21 1
    36   20   33 1
    37   20   34 1
    38   21   35 1
    39   36   37 1
@<TRIPOS>MOLECULE
ZINC03815042
   33    35     0     0     0
SMALL
USER_CHARGES

@<TRIPOS>ATOM
      1 C1         -3.6357   -2.0147   -0.3098 C.3       1 <0>         0.0718
      2 N1         -3.5888   -0.5619   -0.1270 N.pl3     1 <0>        -0.7121
      3 C2         -2.3630    0.0818    0.0237 C.ar      1 <0>         0.3983
      4 C3         -1.1975   -0.6655   -0.0016 C.ar      1 <0>        -0.1373
      5 C4          0.0199    0.0007    0.1514 C.ar      1 <0>        -0.0648
      6 C5          0.0114    1.4088    0.3255 C.ar      1 <0>         0.1197
      7 C6         -1.2200    2.0755    0.3423 C.ar      1 <0>         0.2216
      8 N2          1.1832    2.0418    0.4721 N.ar      1 <0>        -0.5244
      9 C7          2.3130    1.3791    0.4557 C.ar      1 <0>         0.3828
     10 N3          2.3968    0.0676    0.2980 N.ar      1 <0>        -0.5471
     11 C8          1.3108   -0.6806    0.1420 C.ar      1 <0>         0.4692
     12 N4          1.3992   -2.0477   -0.0228 N.pl3     1 <0>        -0.6086
     13 C9          2.6510   -2.6575   -0.1435 C.ar      1 <0>         0.1349
     14 C10         2.8501   -3.9416    0.3486 C.ar      1 <0>        -0.1287
     15 C11         4.0878   -4.5418    0.2280 C.ar      1 <0>        -0.0832
     16 C12         5.1294   -3.8666   -0.3817 C.ar      1 <0>        -0.1077
     17 C13         4.9349   -2.5878   -0.8734 C.ar      1 <0>        -0.0170
     18 C14         3.6967   -1.9836   -0.7605 C.ar      1 <0>        -0.0990
     19 Cl1         6.2451   -1.7442   -1.6386 Cl        1 <0>        -0.0499
     20 H1         -4.6728   -2.3350   -0.4094 H         1 <0>         0.1060
     21 H2         -3.0837   -2.2856   -1.2097 H         1 <0>         0.0791
     22 H3         -3.1856   -2.5043    0.5538 H         1 <0>         0.0789
     23 H4         -4.4115   -0.0483   -0.1108 H         1 <0>         0.4211
     24 H5         -1.2293   -1.7366   -0.1359 H         1 <0>         0.1800
     25 H6         -1.2516    3.1471    0.4734 H         1 <0>         0.2176
     26 H7          3.2304    1.9358    0.5781 H         1 <0>         0.2193
     27 H8          0.5925   -2.5854   -0.0548 H         1 <0>         0.4272
     28 H9          2.0375   -4.4697    0.8252 H         1 <0>         0.1356
     29 H10         4.2426   -5.5400    0.6101 H         1 <0>         0.1446
     30 H11         6.0964   -4.3385   -0.4746 H         1 <0>         0.1426
     31 H12         3.5439   -0.9871   -1.1479 H         1 <0>         0.1480
     32 N5         -2.4116    1.4433    0.1898 N.ar      1 <0>        -0.4961
     33 H13        -3.3012    1.9560    0.1984 H         1 <0>         0.4778
@<TRIPOS>BOND
     1    1    2 1
     2    1   20 1
     3    1   21 1
     4    1   22 1
     5    2    3 1
     6    2   23 1
     7    3    4 ar
     8    3   32 ar
     9    4    5 ar
    10    4   24 1
    11    5   11 ar
    12    5    6 ar
    13    6    7 ar
    14    6    8 ar
    15    7   25 1
    16    7   32 ar
    17    8    9 ar
    18    9   10 ar
    19    9   26 1
    20   10   11 ar
    21   11   12 1
    22   12   13 1
    23   12   27 1
    24   13   18 ar
    25   13   14 ar
    26   14   15 ar
    27   14   28 1
    28   15   16 ar
    29   15   29 1
    30   16   17 ar
    31   16   30 1
    32   17   18 ar
    33   17   19 1
    34   18   31 1
    35   32   33 1
@<TRIPOS>MOLECULE
ZINC03815043
   40    42     0     0     0
SMALL
USER_CHARGES

@<TRIPOS>ATOM
      1 C1         -3.6443   -2.0240   -0.1999 C.3       1 <0>         0.0758
      2 N1         -3.5888   -0.5619   -0.1270 N.pl3     1 <0>        -0.5870
      3 C2         -4.8227    0.2232   -0.2126 C.3       1 <0>         0.0956
      4 C3         -5.1107    0.5626   -1.6764 C.3       1 <0>         0.0518
      5 O1         -5.3768   -0.6401   -2.4008 O.3       1 <0>        -0.5668
      6 C4         -2.3630    0.0818    0.0237 C.ar      1 <0>         0.3996
      7 C5         -1.1975   -0.6654   -0.0016 C.ar      1 <0>        -0.1384
      8 C6          0.0199    0.0007    0.1514 C.ar      1 <0>        -0.0627
      9 C7          0.0114    1.4088    0.3255 C.ar      1 <0>         0.1178
     10 C8         -1.2200    2.0755    0.3424 C.ar      1 <0>         0.2156
     11 N2          1.1832    2.0418    0.4722 N.ar      1 <0>        -0.5249
     12 C9          2.3130    1.3791    0.4558 C.ar      1 <0>         0.3815
     13 N3          2.3968    0.0675    0.2981 N.ar      1 <0>        -0.5485
     14 C10         1.3108   -0.6806    0.1421 C.ar      1 <0>         0.4694
     15 N4          1.3992   -2.0476   -0.0228 N.pl3     1 <0>        -0.6090
     16 C11         2.6510   -2.6575   -0.1435 C.ar      1 <0>         0.1289
     17 C12         2.8501   -3.9416    0.3485 C.ar      1 <0>        -0.1180
     18 C13         4.0878   -4.5418    0.2275 C.ar      1 <0>        -0.0898
     19 C14         5.1289   -3.8668   -0.3832 C.ar      1 <0>        -0.0886
     20 C15         4.9344   -2.5882   -0.8748 C.ar      1 <0>        -0.0739
     21 C16         3.6967   -1.9836   -0.7606 C.ar      1 <0>        -0.0786
     22 Br1         6.3609   -1.6700   -1.7100 Br        1 <0>        -0.0294
     23 H1         -3.7590   -2.4337    0.8036 H         1 <0>         0.0790
     24 H2         -4.4927   -2.3252   -0.8144 H         1 <0>         0.1077
     25 H3         -2.7226   -2.4010   -0.6432 H         1 <0>         0.0813
     26 H4         -5.6509   -0.3559    0.1958 H         1 <0>         0.1231
     27 H5         -4.7074    1.1446    0.3582 H         1 <0>         0.0900
     28 H6         -5.9781    1.2203   -1.7330 H         1 <0>         0.0766
     29 H7         -4.2455    1.0641   -2.1101 H         1 <0>         0.0465
     30 H8         -5.5683   -0.5004   -3.3383 H         1 <0>         0.3958
     31 H9         -1.2293   -1.7366   -0.1359 H         1 <0>         0.1811
     32 H10        -1.2516    3.1470    0.4735 H         1 <0>         0.2160
     33 H11         3.2304    1.9358    0.5779 H         1 <0>         0.2186
     34 H12         0.5925   -2.5854   -0.0548 H         1 <0>         0.4268
     35 H13         2.0377   -4.4696    0.8256 H         1 <0>         0.1359
     36 H14         4.2428   -5.5399    0.6098 H         1 <0>         0.1442
     37 H15         6.0958   -4.3388   -0.4768 H         1 <0>         0.1418
     38 H16         3.5441   -0.9870   -1.1477 H         1 <0>         0.1476
     39 N5         -2.4116    1.4433    0.1898 N.ar      1 <0>        -0.5032
     40 H17        -3.3012    1.9560    0.1983 H         1 <0>         0.4710
@<TRIPOS>BOND
     1    1    2 1
     2    1   23 1
     3    1   24 1
     4    1   25 1
     5    2    3 1
     6    2    6 1
     7    3    4 1
     8    3   26 1
     9    3   27 1
    10    4    5 1
    11    4   28 1
    12    4   29 1
    13    5   30 1
    14    6    7 ar
    15    6   39 ar
    16    7    8 ar
    17    7   31 1
    18    8   14 ar
    19    8    9 ar
    20    9   10 ar
    21    9   11 ar
    22   10   32 1
    23   10   39 ar
    24   11   12 ar
    25   12   13 ar
    26   12   33 1
    27   13   14 ar
    28   14   15 1
    29   15   16 1
    30   15   34 1
    31   16   21 ar
    32   16   17 ar
    33   17   18 ar
    34   17   35 1
    35   18   19 ar
    36   18   36 1
    37   19   20 ar
    38   19   37 1
    39   20   21 ar
    40   20   22 1
    41   21   38 1
    42   39   40 1
@<TRIPOS>MOLECULE
ZINC03815044
   39    41     0     0     0
SMALL
USER_CHARGES

@<TRIPOS>ATOM
      1 C1         -0.1079    7.8043   -0.3020 C.3       1 <0>         0.0215
      2 O1          1.1551    7.1533   -0.1511 O.3       1 <0>        -0.2998
      3 C2          1.1386    5.8027    0.0065 C.ar      1 <0>         0.1121
      4 C3         -0.0548    5.1381    0.0140 C.ar      1 <0>        -0.1492
      5 C4         -0.0731    3.7478    0.1766 C.ar      1 <0>        -0.1812
      6 C5          1.1438    3.0386    0.3321 C.ar      1 <0>         0.2015
      7 C6          2.3555    3.7400    0.3213 C.ar      1 <0>        -0.1832
      8 C7          2.3464    5.1079    0.1598 C.ar      1 <0>         0.1641
      9 O2          3.5206    5.7910    0.1489 O.3       1 <0>        -0.2969
     10 C8          4.7173    5.0267    0.3097 C.3       1 <0>         0.0199
     11 N1          1.0982    1.7060    0.4868 N.ar      1 <0>        -0.5393
     12 C9         -0.0525    1.0763    0.4932 C.ar      1 <0>         0.3437
     13 N2         -1.2129    1.6957    0.3461 N.ar      1 <0>        -0.5816
     14 C10        -1.2816    3.0116    0.1922 C.ar      1 <0>         0.4620
     15 N3         -2.4993    3.6452    0.0450 N.pl3     1 <0>        -0.6402
     16 C11        -3.6722    2.8912   -0.0533 C.ar      1 <0>         0.1543
     17 C12        -4.8637    3.3867    0.4614 C.ar      1 <0>        -0.1166
     18 C13        -6.0204    2.6392    0.3626 C.ar      1 <0>        -0.0973
     19 C14        -5.9940    1.3987   -0.2484 C.ar      1 <0>        -0.0890
     20 C15        -4.8099    0.9025   -0.7618 C.ar      1 <0>        -0.1620
     21 C16        -3.6502    1.6474   -0.6710 C.ar      1 <0>        -0.0634
     22 C17        -4.7858   -0.4496   -1.4267 C.3       1 <0>         0.5094
     23 F1         -6.0700   -1.0040   -1.4026 F         1 <0>        -0.1764
     24 F2         -4.3630   -0.3097   -2.7529 F         1 <0>        -0.1767
     25 F3         -3.9020   -1.2904   -0.7417 F         1 <0>        -0.1721
     26 H1         -0.6154    7.4128   -1.1837 H         1 <0>         0.0575
     27 H2         -0.7196    7.6199    0.5811 H         1 <0>         0.0572
     28 H3          0.0478    8.8768   -0.4187 H         1 <0>         0.1073
     29 H4         -0.9799    5.6826   -0.1052 H         1 <0>         0.1393
     30 H5          3.2905    3.2124    0.4384 H         1 <0>         0.1567
     31 H6          4.6901    4.5063    1.2670 H         1 <0>         0.0625
     32 H7          4.7946    4.2986   -0.4977 H         1 <0>         0.0625
     33 H8          5.5800    5.6924    0.2824 H         1 <0>         0.1077
     34 H9         -0.0528    0.0037    0.6198 H         1 <0>         0.1991
     35 H10        -2.5410    4.6137    0.0099 H         1 <0>         0.4218
     36 H11        -4.8850    4.3553    0.9387 H         1 <0>         0.1348
     37 H12        -6.9470    3.0238    0.7626 H         1 <0>         0.1407
     38 H13        -6.9003    0.8164   -0.3250 H         1 <0>         0.1407
     39 H14        -2.7265    1.2612   -1.0761 H         1 <0>         0.1487
@<TRIPOS>BOND
     1    1    2 1
     2    1   26 1
     3    1   27 1
     4    1   28 1
     5    2    3 1
     6    3    8 ar
     7    3    4 ar
     8    4    5 ar
     9    4   29 1
    10    5   14 ar
    11    5    6 ar
    12    6    7 ar
    13    6   11 ar
    14    7    8 ar
    15    7   30 1
    16    8    9 1
    17    9   10 1
    18   10   31 1
    19   10   32 1
    20   10   33 1
    21   11   12 ar
    22   12   13 ar
    23   12   34 1
    24   13   14 ar
    25   14   15 1
    26   15   16 1
    27   15   35 1
    28   16   21 ar
    29   16   17 ar
    30   17   18 ar
    31   17   36 1
    32   18   19 ar
    33   18   37 1
    34   19   20 ar
    35   19   38 1
    36   20   21 ar
    37   20   22 1
    38   21   39 1
    39   22   23 1
    40   22   24 1
    41   22   25 1
@<TRIPOS>MOLECULE
ZINC03815045
   37    39     0     0     0
SMALL
USER_CHARGES

@<TRIPOS>ATOM
      1 C1          2.1576    5.6966    0.3943 C.ar      1 <0>        -0.0915
      2 C2          2.2602    4.3225    0.4909 C.ar      1 <0>        -0.0826
      3 C3          3.3215    3.6622   -0.1146 C.ar      1 <0>         0.1219
      4 C4          4.2799    4.3869   -0.8116 C.ar      1 <0>        -0.1025
      5 C5          4.1693    5.7608   -0.9084 C.ar      1 <0>        -0.0755
      6 C6          3.1101    6.4152   -0.3040 C.ar      1 <0>        -0.0831
      7 Br1         5.4699    6.7485   -1.8618 Br        1 <0>        -0.0271
      8 N1          3.4281    2.2717   -0.0180 N.pl3     1 <0>        -0.6091
      9 C7          2.2914    1.4919   -0.0148 C.ar      1 <0>         0.5206
     10 C8          2.3670    0.0967    0.2030 C.ar      1 <0>        -0.2636
     11 C9          3.5749   -0.5691    0.4254 C.ar      1 <0>         0.2669
     12 C10         2.4714   -2.6007    0.6198 C.ar      1 <0>         0.4369
     13 C11         1.2297   -2.0296    0.4088 C.ar      1 <0>        -0.1958
     14 C12         1.1579   -0.6486    0.1936 C.ar      1 <0>         0.3052
     15 N2          0.0031   -0.0057   -0.0199 N.ar      1 <0>        -0.5565
     16 C13        -0.0055    1.2929   -0.2168 C.ar      1 <0>         0.4272
     17 N3          1.0938    2.0290   -0.2171 N.ar      1 <0>        -0.5815
     18 N4          2.5604   -3.9699    0.8350 N.pl3     1 <0>        -0.6980
     19 C14         1.3474   -4.7915    0.8366 C.3       1 <0>         0.1099
     20 C15         1.7214   -6.2525    1.0942 C.3       1 <0>         0.0586
     21 O1          2.2661   -6.3800    2.4092 O.3       1 <0>        -0.5767
     22 H1          1.3324    6.2103    0.8651 H         1 <0>         0.1447
     23 H2          1.5156    3.7620    1.0367 H         1 <0>         0.1421
     24 H3          5.1086    3.8769   -1.2801 H         1 <0>         0.1388
     25 H4          3.0277    7.4896   -0.3777 H         1 <0>         0.1429
     26 H5          4.3020    1.8556    0.0467 H         1 <0>         0.4244
     27 H6          4.5023   -0.0157    0.4358 H         1 <0>         0.1968
     28 H7          0.3358   -2.6356    0.4097 H         1 <0>         0.1903
     29 H8         -0.9528    1.7814   -0.3908 H         1 <0>         0.2214
     30 H9          3.4256   -4.3822    0.9842 H         1 <0>         0.4200
     31 H10         0.6748   -4.4448    1.6211 H         1 <0>         0.0975
     32 H11         0.8511   -4.7086   -0.1303 H         1 <0>         0.1039
     33 H12         0.8316   -6.8761    1.0075 H         1 <0>         0.0824
     34 H13         2.4622   -6.5726    0.3615 H         1 <0>         0.0609
     35 H14         2.5260   -7.2820    2.6415 H         1 <0>         0.3964
     36 N5          3.6579   -1.9077    0.6354 N.ar      1 <0>        -0.5396
     37 H15         4.5572   -2.3762    0.7969 H         1 <0>         0.4733
@<TRIPOS>BOND
     1    1    6 ar
     2    1    2 ar
     3    1   22 1
     4    2    3 ar
     5    2   23 1
     6    3    4 ar
     7    3    8 1
     8    4    5 ar
     9    4   24 1
    10    5    6 ar
    11    5    7 1
    12    6   25 1
    13    8    9 1
    14    8   26 1
    15    9   17 ar
    16    9   10 ar
    17   10   14 ar
    18   10   11 ar
    19   11   27 1
    20   11   36 ar
    21   12   13 ar
    22   12   18 1
    23   12   36 ar
    24   13   14 ar
    25   13   28 1
    26   14   15 ar
    27   15   16 ar
    28   16   17 ar
    29   16   29 1
    30   18   19 1
    31   18   30 1
    32   19   20 1
    33   19   31 1
    34   19   32 1
    35   20   21 1
    36   20   33 1
    37   20   34 1
    38   21   35 1
    39   36   37 1
@<TRIPOS>MOLECULE
ZINC03815046
   30    32     0     0     0
SMALL
USER_CHARGES

@<TRIPOS>ATOM
      1 C1         -2.4922    4.2050    0.4277 C.ar      1 <0>        -0.0865
      2 C2         -1.2843    3.5411    0.5183 C.ar      1 <0>        -0.1040
      3 C3         -0.1517    4.0771   -0.0810 C.ar      1 <0>         0.1671
      4 C4         -0.2363    5.2827   -0.7658 C.ar      1 <0>        -0.1408
      5 C5         -1.4487    5.9395   -0.8575 C.ar      1 <0>        -0.0154
      6 C6         -2.5752    5.4021   -0.2588 C.ar      1 <0>        -0.1248
      7 Cl1        -1.5576    7.4433   -1.7180 Cl        1 <0>        -0.0656
      8 N1          1.0720    3.4075    0.0097 N.pl3     1 <0>        -0.6418
      9 C7          1.1064    2.0281   -0.0043 C.ar      1 <0>         0.4748
     10 C8          2.3185    1.3297    0.2074 C.ar      1 <0>        -0.2358
     11 C9          3.5278    1.9971    0.4391 C.ar      1 <0>        -0.0289
     12 C10         4.6680    1.2800    0.6368 C.ar      1 <0>        -0.1838
     13 C11         4.6483   -0.1192    0.6122 C.ar      1 <0>         0.2606
     14 C12         3.4709   -0.8039    0.3851 C.ar      1 <0>        -0.2129
     15 C13         2.2873   -0.0869    0.1799 C.ar      1 <0>         0.2336
     16 N2          1.1154   -0.7021   -0.0441 N.ar      1 <0>        -0.5561
     17 C14         0.0224   -0.0017   -0.2335 C.ar      1 <0>         0.3524
     18 N3          0.0036    1.3213   -0.2170 N.ar      1 <0>        -0.5952
     19 N4          5.8295   -0.8288    0.8180 N.pl3     1 <0>        -0.8642
     20 H1         -3.3728    3.7885    0.8939 H         1 <0>         0.1370
     21 H2         -1.2207    2.6058    1.0546 H         1 <0>         0.1409
     22 H3          0.6434    5.7040   -1.2294 H         1 <0>         0.1348
     23 H4         -3.5209    5.9193   -0.3279 H         1 <0>         0.1350
     24 H5          1.8969    3.9126    0.0824 H         1 <0>         0.4211
     25 H6          3.5557    3.0765    0.4604 H         1 <0>         0.1272
     26 H7          5.5991    1.7973    0.8153 H         1 <0>         0.1315
     27 H8          3.4635   -1.8837    0.3675 H         1 <0>         0.1375
     28 H9         -0.9035   -0.5286   -0.4111 H         1 <0>         0.1952
     29 H10         6.6596   -0.3530    0.9773 H         1 <0>         0.4027
     30 H11         5.8217   -1.7987    0.8020 H         1 <0>         0.4045
@<TRIPOS>BOND
     1    1    6 ar
     2    1    2 ar
     3    1   20 1
     4    2    3 ar
     5    2   21 1
     6    3    4 ar
     7    3    8 1
     8    4    5 ar
     9    4   22 1
    10    5    6 ar
    11    5    7 1
    12    6   23 1
    13    8    9 1
    14    8   24 1
    15    9   18 ar
    16    9   10 ar
    17   10   15 ar
    18   10   11 ar
    19   11   12 ar
    20   11   25 1
    21   12   13 ar
    22   12   26 1
    23   13   14 ar
    24   13   19 1
    25   14   15 ar
    26   14   27 1
    27   15   16 ar
    28   16   17 ar
    29   17   18 ar
    30   17   28 1
    31   19   29 1
    32   19   30 1
@<TRIPOS>MOLECULE
ZINC03815047
   41    44     0     0     0
SMALL
USER_CHARGES

@<TRIPOS>ATOM
      1 C1         -1.1108    2.9203   -0.7515 C.ar      1 <0>        -0.0915
      2 C2          0.0731    3.6319   -0.7455 C.ar      1 <0>        -0.0974
      3 C3          1.1562    3.1695   -0.0088 C.ar      1 <0>         0.1576
      4 C4          1.0449    1.9921    0.7200 C.ar      1 <0>        -0.1185
      5 C5         -0.1421    1.2850    0.7099 C.ar      1 <0>        -0.0705
      6 C6         -1.2207    1.7517   -0.0211 C.ar      1 <0>        -0.1048
      7 Br1        -0.2955   -0.3176    1.7019 Br        1 <0>        -0.0447
      8 N1          2.3551    3.8876   -0.0005 N.pl3     1 <0>        -0.6202
      9 C7          2.3357    5.2646   -0.0976 C.ar      1 <0>         0.4665
     10 C8          3.5726    6.0347   -0.2111 C.ar      1 <0>         0.0929
     11 C9          3.4639    7.4429   -0.3121 C.ar      1 <0>         0.0236
     12 C10         4.6473    8.1940   -0.4282 C.ar      1 <0>         0.2510
     13 N2          5.7970    7.5515   -0.4430 N.ar      1 <0>        -0.5245
     14 C11         5.8571    6.2253   -0.3515 C.ar      1 <0>         0.5636
     15 N3          4.7783    5.4714   -0.2403 N.ar      1 <0>        -0.5490
     16 N4          7.0982    5.6122   -0.3732 N.pl3     1 <0>        -0.6925
     17 C12         8.3131    6.4218   -0.4951 C.3       1 <0>         0.1431
     18 C13         9.5386    5.5058   -0.4943 C.3       1 <0>        -0.0442
     19 C14        10.7883    6.3386   -0.6197 C.2       1 <0>         0.0008
     20 C15        11.8392    6.3204    0.2223 C.2       1 <0>        -0.0469
     21 N5         12.7489    7.2222   -0.2603 N.pl3     1 <0>        -0.5729
     22 H1         13.6378    7.4415    0.1420 H         1 <0>         0.4283
     23 C16        12.2219    7.7604   -1.3811 C.2       1 <0>         0.1893
     24 N6         11.0514    7.2236   -1.5926 N.2       1 <0>        -0.4875
     25 N7          2.2480    7.9992   -0.2879 N.ar      1 <0>        -0.5085
     26 C17         1.1713    7.2599   -0.1787 C.ar      1 <0>         0.3233
     27 N8          1.1935    5.9400   -0.0858 N.ar      1 <0>        -0.5557
     28 H2         -1.9531    3.2798   -1.3239 H         1 <0>         0.1377
     29 H3          0.1568    4.5467   -1.3133 H         1 <0>         0.1439
     30 H4          1.8850    1.6301    1.2941 H         1 <0>         0.1353
     31 H5         -2.1489    1.1995   -0.0243 H         1 <0>         0.1350
     32 H6          3.2009    3.4185    0.0735 H         1 <0>         0.4317
     33 H7          4.6142    9.2709   -0.5029 H         1 <0>         0.1925
     34 H8          7.1634    4.6466   -0.3077 H         1 <0>         0.4151
     35 H9          8.2818    6.9860   -1.4272 H         1 <0>         0.0796
     36 H10         8.3753    7.1126    0.3458 H         1 <0>         0.0684
     37 H11         9.5700    4.9416    0.4378 H         1 <0>         0.0813
     38 H12         9.4764    4.8150   -1.3352 H         1 <0>         0.0820
     39 H13        11.9439    5.7116    1.1081 H         1 <0>         0.1764
     40 H14        12.6929    8.5083   -2.0018 H         1 <0>         0.2090
     41 H15         0.2120    7.7558   -0.1634 H         1 <0>         0.2019
@<TRIPOS>BOND
     1    1    6 ar
     2    1    2 ar
     3    1   28 1
     4    2    3 ar
     5    2   29 1
     6    3    4 ar
     7    3    8 1
     8    4    5 ar
     9    4   30 1
    10    5    6 ar
    11    5    7 1
    12    6   31 1
    13    8    9 1
    14    8   32 1
    15    9   27 ar
    16    9   10 ar
    17   10   15 ar
    18   10   11 ar
    19   11   12 ar
    20   11   25 ar
    21   12   13 ar
    22   12   33 1
    23   13   14 ar
    24   14   15 ar
    25   14   16 1
    26   16   17 1
    27   16   34 1
    28   17   18 1
    29   17   35 1
    30   17   36 1
    31   18   19 1
    32   18   37 1
    33   18   38 1
    34   19   24 1
    35   19   20 2
    36   20   21 1
    37   20   39 1
    38   21   22 1
    39   21   23 1
    40   23   24 2
    41   23   40 1
    42   25   26 ar
    43   26   27 ar
    44   26   41 1
@<TRIPOS>MOLECULE
ZINC03815047
   41    44     0     0     0
SMALL
USER_CHARGES

@<TRIPOS>ATOM
      1 C1         -1.1108    2.9203   -0.7515 C.ar      1 <0>        -0.0915
      2 C2          0.0731    3.6319   -0.7455 C.ar      1 <0>        -0.0974
      3 C3          1.1562    3.1695   -0.0088 C.ar      1 <0>         0.1576
      4 C4          1.0449    1.9921    0.7200 C.ar      1 <0>        -0.1185
      5 C5         -0.1421    1.2850    0.7099 C.ar      1 <0>        -0.0705
      6 C6         -1.2207    1.7517   -0.0211 C.ar      1 <0>        -0.1048
      7 Br1        -0.2955   -0.3176    1.7019 Br        1 <0>        -0.0447
      8 N1          2.3551    3.8876   -0.0005 N.pl3     1 <0>        -0.6202
      9 C7          2.3357    5.2646   -0.0976 C.ar      1 <0>         0.4665
     10 C8          3.5726    6.0347   -0.2111 C.ar      1 <0>         0.0929
     11 C9          3.4639    7.4429   -0.3121 C.ar      1 <0>         0.0236
     12 C10         4.6473    8.1940   -0.4282 C.ar      1 <0>         0.2510
     13 N2          5.7970    7.5515   -0.4430 N.ar      1 <0>        -0.5245
     14 C11         5.8571    6.2253   -0.3515 C.ar      1 <0>         0.5636
     15 N3          4.7783    5.4714   -0.2403 N.ar      1 <0>        -0.5490
     16 N4          7.0982    5.6122   -0.3732 N.pl3     1 <0>        -0.6925
     17 C12         8.3131    6.4218   -0.4951 C.3       1 <0>         0.1431
     18 C13         9.5386    5.5058   -0.4943 C.3       1 <0>        -0.0442
     19 C14        10.7883    6.3386   -0.6197 C.2       1 <0>         0.0008
     20 C15        11.8392    6.3204    0.2223 C.2       1 <0>        -0.0469
     21 N5         12.7489    7.2222   -0.2603 N.pl3     1 <0>        -0.5729
     22 H1         13.6378    7.4415    0.1420 H         1 <0>         0.4283
     23 C16        12.2219    7.7604   -1.3811 C.2       1 <0>         0.1893
     24 N6         11.0514    7.2236   -1.5926 N.2       1 <0>        -0.4875
     25 N7          2.2480    7.9992   -0.2879 N.ar      1 <0>        -0.5085
     26 C17         1.1713    7.2599   -0.1787 C.ar      1 <0>         0.3233
     27 N8          1.1935    5.9400   -0.0858 N.ar      1 <0>        -0.5557
     28 H2         -1.9531    3.2798   -1.3239 H         1 <0>         0.1377
     29 H3          0.1568    4.5467   -1.3133 H         1 <0>         0.1439
     30 H4          1.8850    1.6301    1.2941 H         1 <0>         0.1353
     31 H5         -2.1489    1.1995   -0.0243 H         1 <0>         0.1350
     32 H6          3.2009    3.4185    0.0735 H         1 <0>         0.4317
     33 H7          4.6142    9.2709   -0.5029 H         1 <0>         0.1925
     34 H8          7.1634    4.6466   -0.3077 H         1 <0>         0.4151
     35 H9          8.2818    6.9860   -1.4272 H         1 <0>         0.0796
     36 H10         8.3753    7.1126    0.3458 H         1 <0>         0.0684
     37 H11         9.5700    4.9416    0.4378 H         1 <0>         0.0813
     38 H12         9.4764    4.8150   -1.3352 H         1 <0>         0.0820
     39 H13        11.9439    5.7116    1.1081 H         1 <0>         0.1764
     40 H14        12.6929    8.5083   -2.0018 H         1 <0>         0.2090
     41 H15         0.2120    7.7558   -0.1634 H         1 <0>         0.2019
@<TRIPOS>BOND
     1    1    6 ar
     2    1    2 ar
     3    1   28 1
     4    2    3 ar
     5    2   29 1
     6    3    4 ar
     7    3    8 1
     8    4    5 ar
     9    4   30 1
    10    5    6 ar
    11    5    7 1
    12    6   31 1
    13    8    9 1
    14    8   32 1
    15    9   27 ar
    16    9   10 ar
    17   10   15 ar
    18   10   11 ar
    19   11   12 ar
    20   11   25 ar
    21   12   13 ar
    22   12   33 1
    23   13   14 ar
    24   14   15 ar
    25   14   16 1
    26   16   17 1
    27   16   34 1
    28   17   18 1
    29   17   35 1
    30   17   36 1
    31   18   19 1
    32   18   37 1
    33   18   38 1
    34   19   24 1
    35   19   20 2
    36   20   21 1
    37   20   39 1
    38   21   22 1
    39   21   23 1
    40   23   24 2
    41   23   40 1
    42   25   26 ar
    43   26   27 ar
    44   26   41 1
@<TRIPOS>MOLECULE
ZINC03815047
   42    45     0     0     0
SMALL
USER_CHARGES

@<TRIPOS>ATOM
      1 C1         -1.1108    2.9203   -0.7515 C.ar      1 <0>        -0.0907
      2 C2          0.0731    3.6319   -0.7455 C.ar      1 <0>        -0.0959
      3 C3          1.1562    3.1695   -0.0088 C.ar      1 <0>         0.1483
      4 C4          1.0449    1.9921    0.7200 C.ar      1 <0>        -0.1154
      5 C5         -0.1421    1.2850    0.7099 C.ar      1 <0>        -0.0714
      6 C6         -1.2207    1.7517   -0.0211 C.ar      1 <0>        -0.0993
      7 Br1        -0.2955   -0.3176    1.7019 Br        1 <0>        -0.0391
      8 N1          2.3551    3.8876   -0.0005 N.pl3     1 <0>        -0.6156
      9 C7          2.3357    5.2646   -0.0976 C.ar      1 <0>         0.4729
     10 C8          3.5726    6.0347   -0.2111 C.ar      1 <0>         0.0837
     11 C9          3.4639    7.4429   -0.3121 C.ar      1 <0>         0.0396
     12 C10         4.6473    8.1940   -0.4282 C.ar      1 <0>         0.2494
     13 N2          5.7970    7.5515   -0.4430 N.ar      1 <0>        -0.5334
     14 C11         5.8571    6.2253   -0.3515 C.ar      1 <0>         0.5515
     15 N3          4.7783    5.4714   -0.2403 N.ar      1 <0>        -0.5347
     16 N4          7.0982    5.6122   -0.3732 N.pl3     1 <0>        -0.7018
     17 C12         8.3131    6.4218   -0.4951 C.3       1 <0>         0.1383
     18 C13         9.5386    5.5058   -0.4943 C.3       1 <0>        -0.0781
     19 C14        10.7883    6.3386   -0.6197 C.2       1 <0>         0.0362
     20 C15        11.8392    6.3204    0.2223 C.2       1 <0>         0.0394
     21 N5         12.7489    7.2222   -0.2603 N.pl3     1 <0>        -0.5150
     22 H1         13.6378    7.4415    0.1420 H         1 <0>         0.4767
     23 C16        12.2219    7.7604   -1.3811 C.cat     1 <0>         0.3097
     24 N6          2.2480    7.9992   -0.2879 N.ar      1 <0>        -0.5156
     25 C17         1.1713    7.2599   -0.1787 C.ar      1 <0>         0.3405
     26 N7          1.1935    5.9400   -0.0858 N.ar      1 <0>        -0.5541
     27 H2         -1.9531    3.2798   -1.3239 H         1 <0>         0.1398
     28 H3          0.1568    4.5467   -1.3133 H         1 <0>         0.1431
     29 H4          1.8850    1.6301    1.2941 H         1 <0>         0.1353
     30 H5         -2.1489    1.1995   -0.0243 H         1 <0>         0.1377
     31 H6          3.2009    3.4185    0.0735 H         1 <0>         0.4310
     32 H7          4.6142    9.2709   -0.5029 H         1 <0>         0.1950
     33 H8          7.1634    4.6466   -0.3077 H         1 <0>         0.4196
     34 H9          8.2818    6.9860   -1.4272 H         1 <0>         0.0664
     35 H10         8.3753    7.1126    0.3458 H         1 <0>         0.0784
     36 H11         9.5700    4.9416    0.4378 H         1 <0>         0.1204
     37 H12         9.4764    4.8150   -1.3352 H         1 <0>         0.1102
     38 H13        11.9439    5.7116    1.1081 H         1 <0>         0.2263
     39 H14        12.6929    8.5083   -2.0018 H         1 <0>         0.2660
     40 H15         0.2120    7.7558   -0.1634 H         1 <0>         0.2067
     41 N8         11.0522    7.2233   -1.5916 N.pl3     1 <0>        -0.4832
     42 H16        10.4307    7.4437   -2.3786 H         1 <0>         0.4812
@<TRIPOS>BOND
     1    1    6 ar
     2    1    2 ar
     3    1   27 1
     4    2    3 ar
     5    2   28 1
     6    3    4 ar
     7    3    8 1
     8    4    5 ar
     9    4   29 1
    10    5    6 ar
    11    5    7 1
    12    6   30 1
    13    8    9 1
    14    8   31 1
    15    9   26 ar
    16    9   10 ar
    17   10   15 ar
    18   10   11 ar
    19   11   12 ar
    20   11   24 ar
    21   12   13 ar
    22   12   32 1
    23   13   14 ar
    24   14   15 ar
    25   14   16 1
    26   16   17 1
    27   16   33 1
    28   17   18 1
    29   17   34 1
    30   17   35 1
    31   18   19 1
    32   18   36 1
    33   18   37 1
    34   19   20 2
    35   19   41 1
    36   20   21 1
    37   20   38 1
    38   21   22 1
    39   21   23 1
    40   23   39 1
    41   23   41 2
    42   24   25 ar
    43   25   26 ar
    44   25   40 1
    45   41   42 1
@<TRIPOS>MOLECULE
ZINC03815048
   33    36     0     0     0
SMALL
USER_CHARGES

@<TRIPOS>ATOM
      1 C1         -9.6980    2.3449    0.3958 C.ar      1 <0>        -0.0904
      2 C2         -8.4004    2.8086    0.4912 C.ar      1 <0>        -0.1334
      3 C3         -7.3545    2.0528   -0.0230 C.ar      1 <0>         0.1622
      4 C4         -7.6179    0.8349   -0.6370 C.ar      1 <0>        -0.0884
      5 C5         -8.9176    0.3744   -0.7251 C.ar      1 <0>        -0.0695
      6 C6         -9.9570    1.1301   -0.2111 C.ar      1 <0>        -0.1081
      7 Br1        -9.2774   -1.2863   -1.5548 Br        1 <0>        -0.0441
      8 N1         -6.0405    2.5194    0.0722 N.pl3     1 <0>        -0.6434
      9 C7         -4.9942    1.6205    0.2177 C.ar      1 <0>         0.4802
     10 C8         -3.6747    2.0538    0.1995 C.ar      1 <0>        -0.2713
     11 C9         -2.6178    1.1475    0.3458 C.ar      1 <0>         0.2158
     12 C10        -1.2600    1.7253    0.3042 C.ar      1 <0>        -0.0381
     13 C11        -0.0322    1.0381    0.4327 C.ar      1 <0>        -0.1298
     14 C12         1.1621    1.7211    0.3793 C.ar      1 <0>         0.2123
     15 C13         1.1930    3.1027    0.2028 C.ar      1 <0>        -0.1467
     16 C14         0.0068    3.7969    0.0800 C.ar      1 <0>        -0.0355
     17 C15        -1.1941    3.1175    0.1332 C.ar      1 <0>        -0.1326
     18 S1         -2.8894    3.6316    0.0192 S.3       1 <0>         0.0715
     19 N2          2.3648    1.0158    0.5039 N.pl3     1 <0>        -0.8756
     20 N3         -2.9652   -0.1499    0.5025 N.ar      1 <0>        -0.5245
     21 C16        -4.2200   -0.5228    0.5148 C.ar      1 <0>         0.3381
     22 N4         -5.2287    0.3187    0.3782 N.ar      1 <0>        -0.5452
     23 H1        -10.5114    2.9324    0.7955 H         1 <0>         0.1375
     24 H2         -8.1991    3.7577    0.9655 H         1 <0>         0.1323
     25 H3         -6.8074    0.2470   -1.0418 H         1 <0>         0.1468
     26 H4        -10.9726    0.7702   -0.2847 H         1 <0>         0.1347
     27 H5         -5.8603    3.4718    0.0365 H         1 <0>         0.4240
     28 H6         -0.0303   -0.0332    0.5695 H         1 <0>         0.1342
     29 H7          2.1370    3.6258    0.1627 H         1 <0>         0.1392
     30 H8          0.0176    4.8682   -0.0568 H         1 <0>         0.1401
     31 H9          2.3524    0.0537    0.6267 H         1 <0>         0.4016
     32 H10         3.2107    1.4892    0.4674 H         1 <0>         0.4019
     33 H11        -4.4417   -1.5719    0.6436 H         1 <0>         0.2045
@<TRIPOS>BOND
     1    1    6 ar
     2    1    2 ar
     3    1   23 1
     4    2    3 ar
     5    2   24 1
     6    3    4 ar
     7    3    8 1
     8    4    5 ar
     9    4   25 1
    10    5    6 ar
    11    5    7 1
    12    6   26 1
    13    8    9 1
    14    8   27 1
    15    9   22 ar
    16    9   10 ar
    17   10   18 1
    18   10   11 ar
    19   11   12 1
    20   11   20 ar
    21   12   17 ar
    22   12   13 ar
    23   13   14 ar
    24   13   28 1
    25   14   15 ar
    26   14   19 1
    27   15   16 ar
    28   15   29 1
    29   16   17 ar
    30   16   30 1
    31   17   18 1
    32   19   31 1
    33   19   32 1
    34   20   21 ar
    35   21   22 ar
    36   21   33 1
@<TRIPOS>MOLECULE
ZINC03815049
   38    40     0     0     0
SMALL
USER_CHARGES

@<TRIPOS>ATOM
      1 C1          4.0877   -4.5419    0.2273 C.ar      1 <0>        -0.0903
      2 C2          2.8497   -3.9414    0.3484 C.ar      1 <0>        -0.1161
      3 C3          2.6507   -2.6577   -0.1435 C.ar      1 <0>         0.1347
      4 C4          3.6968   -1.9837   -0.7607 C.ar      1 <0>        -0.0791
      5 C5          4.9342   -2.5880   -0.8745 C.ar      1 <0>        -0.0747
      6 C6          5.1286   -3.8672   -0.3832 C.ar      1 <0>        -0.0924
      7 Br1         6.3610   -1.6696   -1.7092 Br        1 <0>        -0.0367
      8 N1          1.3990   -2.0477   -0.0227 N.pl3     1 <0>        -0.6090
      9 C7          1.3107   -0.6807    0.1420 C.ar      1 <0>         0.4717
     10 C8          0.0199    0.0007    0.1513 C.ar      1 <0>        -0.0612
     11 C9         -1.1978   -0.6656   -0.0016 C.ar      1 <0>        -0.1366
     12 C10        -2.3630    0.0813    0.0236 C.ar      1 <0>         0.4088
     13 C11        -1.2204    2.0754    0.3421 C.ar      1 <0>         0.2080
     14 C12         0.0114    1.4085    0.3253 C.ar      1 <0>         0.1104
     15 N2          1.1830    2.0416    0.4719 N.ar      1 <0>        -0.5286
     16 C13         2.3130    1.3790    0.4556 C.ar      1 <0>         0.3743
     17 N3          2.3967    0.0674    0.2979 N.ar      1 <0>        -0.5555
     18 N4         -3.5889   -0.5624   -0.1270 N.pl3     1 <0>        -0.6931
     19 C14        -3.6357   -2.0152   -0.3097 C.3       1 <0>         0.1203
     20 C15        -5.0914   -2.4649   -0.4496 C.3       1 <0>        -0.1749
     21 C16        -5.1396   -3.9594   -0.6376 C.2       1 <0>         0.4652
     22 O1         -4.1148   -4.5991   -0.6576 O.co2     1 <0>        -0.6368
     23 H1          4.2427   -5.5400    0.6097 H         1 <0>         0.1432
     24 H2          2.0373   -4.4693    0.8254 H         1 <0>         0.1390
     25 H3          3.5442   -0.9870   -1.1479 H         1 <0>         0.1480
     26 H4          6.0953   -4.3394   -0.4772 H         1 <0>         0.1392
     27 H5          0.5923   -2.5855   -0.0548 H         1 <0>         0.4319
     28 H6         -1.2297   -1.7368   -0.1359 H         1 <0>         0.1842
     29 H7         -1.2521    3.1469    0.4732 H         1 <0>         0.2120
     30 H8          3.2303    1.9357    0.5779 H         1 <0>         0.2141
     31 H9         -4.4116   -0.0488   -0.1109 H         1 <0>         0.4165
     32 H10        -3.0837   -2.2862   -1.2097 H         1 <0>         0.0906
     33 H11        -3.1856   -2.5047    0.5539 H         1 <0>         0.0905
     34 H12        -5.6435   -2.1939    0.4503 H         1 <0>         0.0792
     35 H13        -5.5416   -1.9754   -1.3132 H         1 <0>         0.0792
     36 N5         -2.4118    1.4432    0.1898 N.ar      1 <0>        -0.5027
     37 H14        -3.3014    1.9559    0.1983 H         1 <0>         0.4749
     38 O2         -6.3210   -4.5798   -0.7828 O.co2     1 <0>        -0.7481
@<TRIPOS>BOND
     1    1    6 ar
     2    1    2 ar
     3    1   23 1
     4    2    3 ar
     5    2   24 1
     6    3    4 ar
     7    3    8 1
     8    4    5 ar
     9    4   25 1
    10    5    6 ar
    11    5    7 1
    12    6   26 1
    13    8    9 1
    14    8   27 1
    15    9   17 ar
    16    9   10 ar
    17   10   14 ar
    18   10   11 ar
    19   11   12 ar
    20   11   28 1
    21   12   18 1
    22   12   36 ar
    23   13   14 ar
    24   13   29 1
    25   13   36 ar
    26   14   15 ar
    27   15   16 ar
    28   16   17 ar
    29   16   30 1
    30   18   19 1
    31   18   31 1
    32   19   20 1
    33   19   32 1
    34   19   33 1
    35   20   21 1
    36   20   34 1
    37   20   35 1
    38   21   22 2
    39   21   38 1
    40   36   37 1
@<TRIPOS>MOLECULE
ZINC03815050
   35    37     0     0     0
SMALL
USER_CHARGES

@<TRIPOS>ATOM
      1 C1          4.0877   -4.5419    0.2273 C.ar      1 <0>        -0.0906
      2 C2          2.8497   -3.9414    0.3484 C.ar      1 <0>        -0.1190
      3 C3          2.6507   -2.6577   -0.1435 C.ar      1 <0>         0.1377
      4 C4          3.6968   -1.9837   -0.7607 C.ar      1 <0>        -0.0798
      5 C5          4.9342   -2.5880   -0.8745 C.ar      1 <0>        -0.0738
      6 C6          5.1286   -3.8672   -0.3832 C.ar      1 <0>        -0.0941
      7 Br1         6.3610   -1.6696   -1.7092 Br        1 <0>        -0.0366
      8 N1          1.3990   -2.0477   -0.0227 N.pl3     1 <0>        -0.6128
      9 C7          1.3107   -0.6807    0.1420 C.ar      1 <0>         0.4693
     10 C8          0.0199    0.0007    0.1513 C.ar      1 <0>        -0.0570
     11 C9         -1.1978   -0.6656   -0.0016 C.ar      1 <0>        -0.1471
     12 C10        -2.3630    0.0813    0.0236 C.ar      1 <0>         0.4118
     13 C11        -1.2204    2.0754    0.3421 C.ar      1 <0>         0.2131
     14 C12         0.0114    1.4085    0.3253 C.ar      1 <0>         0.1006
     15 N2          1.1830    2.0416    0.4719 N.ar      1 <0>        -0.5244
     16 C13         2.3130    1.3790    0.4556 C.ar      1 <0>         0.3679
     17 N3          2.3967    0.0674    0.2979 N.ar      1 <0>        -0.5550
     18 N4         -3.5889   -0.5624   -0.1270 N.pl3     1 <0>        -0.6622
     19 C14        -3.6357   -2.0152   -0.3097 C.3       1 <0>         0.0552
     20 C15        -5.0695   -2.4582   -0.4475 C.2       1 <0>         0.4582
     21 O1         -5.9608   -1.6439   -0.3981 O.co2     1 <0>        -0.6253
     22 H1          4.2427   -5.5400    0.6097 H         1 <0>         0.1424
     23 H2          2.0373   -4.4693    0.8254 H         1 <0>         0.1375
     24 H3          3.5442   -0.9870   -1.1479 H         1 <0>         0.1484
     25 H4          6.0953   -4.3394   -0.4772 H         1 <0>         0.1388
     26 H5          0.5923   -2.5855   -0.0548 H         1 <0>         0.4299
     27 H6         -1.2297   -1.7368   -0.1359 H         1 <0>         0.1800
     28 H7         -1.2521    3.1469    0.4732 H         1 <0>         0.2113
     29 H8          3.2303    1.9357    0.5779 H         1 <0>         0.2129
     30 H9         -4.4116   -0.0488   -0.1109 H         1 <0>         0.4271
     31 H10        -3.0837   -2.2862   -1.2097 H         1 <0>         0.0951
     32 H11        -3.1856   -2.5047    0.5539 H         1 <0>         0.0950
     33 N5         -2.4118    1.4432    0.1898 N.ar      1 <0>        -0.5053
     34 H12        -3.3014    1.9559    0.1983 H         1 <0>         0.4765
     35 O2         -5.3565   -3.7573   -0.6251 O.co2     1 <0>        -0.7259
@<TRIPOS>BOND
     1    1    6 ar
     2    1    2 ar
     3    1   22 1
     4    2    3 ar
     5    2   23 1
     6    3    4 ar
     7    3    8 1
     8    4    5 ar
     9    4   24 1
    10    5    6 ar
    11    5    7 1
    12    6   25 1
    13    8    9 1
    14    8   26 1
    15    9   17 ar
    16    9   10 ar
    17   10   14 ar
    18   10   11 ar
    19   11   12 ar
    20   11   27 1
    21   12   18 1
    22   12   33 ar
    23   13   14 ar
    24   13   28 1
    25   13   33 ar
    26   14   15 ar
    27   15   16 ar
    28   16   17 ar
    29   16   29 1
    30   18   19 1
    31   18   30 1
    32   19   20 1
    33   19   31 1
    34   19   32 1
    35   20   21 2
    36   20   35 1
    37   33   34 1
@<TRIPOS>MOLECULE
ZINC03815051
   41    43     0     0     0
SMALL
USER_CHARGES

@<TRIPOS>ATOM
      1 C1          2.1576    5.6966    0.3943 C.ar      1 <0>        -0.0919
      2 C2          2.2602    4.3225    0.4909 C.ar      1 <0>        -0.0836
      3 C3          3.3215    3.6622   -0.1146 C.ar      1 <0>         0.1293
      4 C4          4.2799    4.3869   -0.8116 C.ar      1 <0>        -0.1051
      5 C5          4.1693    5.7608   -0.9084 C.ar      1 <0>        -0.0750
      6 C6          3.1101    6.4152   -0.3040 C.ar      1 <0>        -0.0872
      7 Br1         5.4699    6.7485   -1.8618 Br        1 <0>        -0.0317
      8 N1          3.4281    2.2717   -0.0180 N.pl3     1 <0>        -0.6153
      9 C7          2.2914    1.4919   -0.0148 C.ar      1 <0>         0.5201
     10 C8          2.3670    0.0967    0.2030 C.ar      1 <0>        -0.2647
     11 C9          3.5749   -0.5691    0.4254 C.ar      1 <0>         0.2616
     12 C10         2.4714   -2.6007    0.6198 C.ar      1 <0>         0.4383
     13 C11         1.2297   -2.0296    0.4088 C.ar      1 <0>        -0.1934
     14 C12         1.1579   -0.6486    0.1936 C.ar      1 <0>         0.3002
     15 N2          0.0031   -0.0057   -0.0199 N.ar      1 <0>        -0.5535
     16 C13        -0.0055    1.2929   -0.2168 C.ar      1 <0>         0.4204
     17 N3          1.0938    2.0290   -0.2171 N.ar      1 <0>        -0.5854
     18 N4          2.5604   -3.9699    0.8350 N.pl3     1 <0>        -0.6888
     19 C14         1.3474   -4.7915    0.8366 C.3       1 <0>         0.1014
     20 C15         1.7214   -6.2525    1.0942 C.3       1 <0>        -0.1128
     21 C16         0.4547   -7.1106    1.0959 C.3       1 <0>        -0.1562
     22 C17         0.8230   -8.5496    1.3497 C.2       1 <0>         0.4571
     23 O1          1.9800   -8.8574    1.5126 O.co2     1 <0>        -0.6419
     24 H1          1.3324    6.2103    0.8651 H         1 <0>         0.1433
     25 H2          1.5156    3.7620    1.0367 H         1 <0>         0.1429
     26 H3          5.1086    3.8769   -1.2801 H         1 <0>         0.1384
     27 H4          3.0277    7.4896   -0.3777 H         1 <0>         0.1409
     28 H5          4.3020    1.8556    0.0467 H         1 <0>         0.4239
     29 H6          4.5023   -0.0157    0.4358 H         1 <0>         0.1944
     30 H7          0.3358   -2.6356    0.4097 H         1 <0>         0.1927
     31 H8         -0.9528    1.7814   -0.3908 H         1 <0>         0.2188
     32 H9          3.4256   -4.3822    0.9842 H         1 <0>         0.4193
     33 H10         0.6748   -4.4448    1.6211 H         1 <0>         0.0893
     34 H11         0.8511   -4.7086   -0.1303 H         1 <0>         0.0893
     35 H12         2.3940   -6.5992    0.3097 H         1 <0>         0.0752
     36 H13         2.2177   -6.3354    2.0612 H         1 <0>         0.0752
     37 H14        -0.2180   -6.7639    1.8805 H         1 <0>         0.0713
     38 H15        -0.0416   -7.0276    0.1290 H         1 <0>         0.0713
     39 N5          3.6579   -1.9077    0.6354 N.ar      1 <0>        -0.5392
     40 H16         4.5572   -2.3762    0.7969 H         1 <0>         0.4731
     41 O2         -0.1342   -9.4895    1.3949 O.co2     1 <0>        -0.7621
@<TRIPOS>BOND
     1    1    6 ar
     2    1    2 ar
     3    1   24 1
     4    2    3 ar
     5    2   25 1
     6    3    4 ar
     7    3    8 1
     8    4    5 ar
     9    4   26 1
    10    5    6 ar
    11    5    7 1
    12    6   27 1
    13    8    9 1
    14    8   28 1
    15    9   17 ar
    16    9   10 ar
    17   10   14 ar
    18   10   11 ar
    19   11   29 1
    20   11   39 ar
    21   12   13 ar
    22   12   18 1
    23   12   39 ar
    24   13   14 ar
    25   13   30 1
    26   14   15 ar
    27   15   16 ar
    28   16   17 ar
    29   16   31 1
    30   18   19 1
    31   18   32 1
    32   19   20 1
    33   19   33 1
    34   19   34 1
    35   20   21 1
    36   20   35 1
    37   20   36 1
    38   21   22 1
    39   21   37 1
    40   21   38 1
    41   22   23 2
    42   22   41 1
    43   39   40 1
@<TRIPOS>MOLECULE
ZINC03815052
   34    37     0     0     0
SMALL
USER_CHARGES

@<TRIPOS>ATOM
      1 C1         -1.1244   -0.8108   -1.3301 C.3       1 <0>        -0.0858
      2 C2          0.0797    0.0518   -1.0526 C.2       1 <0>         0.3269
      3 N1          0.0520    1.4049   -0.9193 N.pl3     1 <0>        -0.6174
      4 H1         -0.7556    1.9908   -0.9864 H         1 <0>         0.4324
      5 C3          1.3500    1.8210   -0.6733 C.ar      1 <0>         0.0519
      6 C4          1.9267    3.0542   -0.4569 C.ar      1 <0>        -0.0695
      7 C5          3.3019    3.1411   -0.2319 C.ar      1 <0>        -0.1636
      8 C6          4.0999    1.9667   -0.2261 C.ar      1 <0>         0.1691
      9 C7          3.5072    0.7241   -0.4460 C.ar      1 <0>        -0.0571
     10 C8          2.1372    0.6473   -0.6692 C.ar      1 <0>         0.0987
     11 N2          1.2939   -0.3917   -0.9072 N.2       1 <0>        -0.5031
     12 N3          5.4213    2.0876   -0.0056 N.ar      1 <0>        -0.5364
     13 C9          5.9564    3.2663    0.1991 C.ar      1 <0>         0.3414
     14 N4          5.2521    4.3878    0.2027 N.ar      1 <0>        -0.5837
     15 C10         3.9424    4.3850   -0.0039 C.ar      1 <0>         0.4715
     16 N5          3.2220    5.5616    0.0024 N.pl3     1 <0>        -0.6391
     17 C11         3.8860    6.7870    0.1085 C.ar      1 <0>         0.1592
     18 C12         5.1262    6.9612   -0.4933 C.ar      1 <0>        -0.0922
     19 C13         5.7797    8.1730   -0.3872 C.ar      1 <0>        -0.0926
     20 C14         5.2014    9.2132    0.3172 C.ar      1 <0>        -0.1037
     21 C15         3.9663    9.0437    0.9174 C.ar      1 <0>        -0.0717
     22 C16         3.3050    7.8347    0.8108 C.ar      1 <0>        -0.1198
     23 Br1         3.1796   10.4693    1.8788 Br        1 <0>        -0.0449
     24 H2         -1.2556   -0.9160   -2.4071 H         1 <0>         0.0959
     25 H3         -0.9772   -1.7945   -0.8843 H         1 <0>         0.1025
     26 H4         -2.0114   -0.3458   -0.8998 H         1 <0>         0.0853
     27 H5          1.3189    3.9469   -0.4611 H         1 <0>         0.1284
     28 H6          4.1084   -0.1730   -0.4426 H         1 <0>         0.1506
     29 H7          7.0207    3.3258    0.3725 H         1 <0>         0.1982
     30 H8          2.2548    5.5385   -0.0669 H         1 <0>         0.4206
     31 H9          5.5788    6.1494   -1.0432 H         1 <0>         0.1418
     32 H10         6.7435    8.3088   -0.8552 H         1 <0>         0.1375
     33 H11         5.7147   10.1599    0.3985 H         1 <0>         0.1350
     34 H12         2.3393    7.7038    1.2763 H         1 <0>         0.1338
@<TRIPOS>BOND
     1    1    2 1
     2    1   24 1
     3    1   25 1
     4    1   26 1
     5    2   11 2
     6    2    3 1
     7    3    4 1
     8    3    5 1
     9    5   10 ar
    10    5    6 ar
    11    6    7 ar
    12    6   27 1
    13    7   15 ar
    14    7    8 ar
    15    8    9 ar
    16    8   12 ar
    17    9   10 ar
    18    9   28 1
    19   10   11 1
    20   12   13 ar
    21   13   14 ar
    22   13   29 1
    23   14   15 ar
    24   15   16 1
    25   16   17 1
    26   16   30 1
    27   17   22 ar
    28   17   18 ar
    29   18   19 ar
    30   18   31 1
    31   19   20 ar
    32   19   32 1
    33   20   21 ar
    34   20   33 1
    35   21   22 ar
    36   21   23 1
    37   22   34 1
@<TRIPOS>MOLECULE
ZINC03815052
   35    38     0     0     0
SMALL
USER_CHARGES

@<TRIPOS>ATOM
      1 C1         -1.1244   -0.8108   -1.3301 C.3       1 <0>        -0.1288
      2 C2          0.0797    0.0518   -1.0526 C.cat     1 <0>         0.4437
      3 N1          0.0520    1.4049   -0.9193 N.pl3     1 <0>        -0.5465
      4 H1         -0.7556    1.9908   -0.9864 H         1 <0>         0.4716
      5 C3          1.3500    1.8210   -0.6733 C.ar      1 <0>         0.0465
      6 C4          1.9267    3.0542   -0.4569 C.ar      1 <0>        -0.0170
      7 C5          3.3019    3.1411   -0.2319 C.ar      1 <0>        -0.1622
      8 C6          4.0999    1.9667   -0.2261 C.ar      1 <0>         0.2107
      9 C7          3.5072    0.7241   -0.4460 C.ar      1 <0>        -0.0580
     10 C8          2.1372    0.6473   -0.6692 C.ar      1 <0>         0.0884
     11 N2          5.4213    2.0876   -0.0056 N.ar      1 <0>        -0.5445
     12 C9          5.9564    3.2663    0.1991 C.ar      1 <0>         0.3828
     13 N3          5.2521    4.3878    0.2027 N.ar      1 <0>        -0.5707
     14 C10         3.9424    4.3850   -0.0039 C.ar      1 <0>         0.4833
     15 N4          3.2220    5.5616    0.0024 N.pl3     1 <0>        -0.6239
     16 C11         3.8860    6.7870    0.1085 C.ar      1 <0>         0.1368
     17 C12         5.1262    6.9612   -0.4933 C.ar      1 <0>        -0.0883
     18 C13         5.7797    8.1730   -0.3872 C.ar      1 <0>        -0.0913
     19 C14         5.2014    9.2132    0.3172 C.ar      1 <0>        -0.0909
     20 C15         3.9663    9.0437    0.9174 C.ar      1 <0>        -0.0737
     21 C16         3.3050    7.8347    0.8108 C.ar      1 <0>        -0.1100
     22 Br1         3.1796   10.4693    1.8788 Br        1 <0>        -0.0326
     23 H2         -1.2556   -0.9160   -2.4071 H         1 <0>         0.1351
     24 H3         -0.9772   -1.7945   -0.8843 H         1 <0>         0.1268
     25 H4         -2.0114   -0.3458   -0.8998 H         1 <0>         0.1260
     26 H5          1.3189    3.9469   -0.4611 H         1 <0>         0.1533
     27 H6          4.1084   -0.1730   -0.4426 H         1 <0>         0.1701
     28 H7          7.0207    3.3258    0.3725 H         1 <0>         0.2129
     29 H8          2.2548    5.5385   -0.0669 H         1 <0>         0.4225
     30 H9          5.5788    6.1494   -1.0432 H         1 <0>         0.1406
     31 H10         6.7435    8.3088   -0.8552 H         1 <0>         0.1421
     32 H11         5.7147   10.1599    0.3985 H         1 <0>         0.1404
     33 H12         2.3393    7.7038    1.2763 H         1 <0>         0.1362
     34 N5          1.2944   -0.3935   -0.9073 N.pl3     1 <0>        -0.5131
     35 H13         1.5736   -1.3799   -0.9638 H         1 <0>         0.4816
@<TRIPOS>BOND
     1    1    2 1
     2    1   23 1
     3    1   24 1
     4    1   25 1
     5    2    3 1
     6    2   34 2
     7    3    4 1
     8    3    5 1
     9    5   10 ar
    10    5    6 ar
    11    6    7 ar
    12    6   26 1
    13    7   14 ar
    14    7    8 ar
    15    8    9 ar
    16    8   11 ar
    17    9   10 ar
    18    9   27 1
    19   10   34 1
    20   11   12 ar
    21   12   13 ar
    22   12   28 1
    23   13   14 ar
    24   14   15 1
    25   15   16 1
    26   15   29 1
    27   16   21 ar
    28   16   17 ar
    29   17   18 ar
    30   17   30 1
    31   18   19 ar
    32   18   31 1
    33   19   20 ar
    34   19   32 1
    35   20   21 ar
    36   20   22 1
    37   21   33 1
    38   34   35 1
@<TRIPOS>MOLECULE
ZINC03815052
   34    37     0     0     0
SMALL
USER_CHARGES

@<TRIPOS>ATOM
      1 C1         -1.1244   -0.8108   -1.3301 C.3       1 <0>        -0.0858
      2 C2          0.0797    0.0518   -1.0526 C.2       1 <0>         0.3269
      3 N1          0.0520    1.4049   -0.9193 N.pl3     1 <0>        -0.6174
      4 H1         -0.7556    1.9908   -0.9864 H         1 <0>         0.4324
      5 C3          1.3500    1.8210   -0.6733 C.ar      1 <0>         0.0519
      6 C4          1.9267    3.0542   -0.4569 C.ar      1 <0>        -0.0695
      7 C5          3.3019    3.1411   -0.2319 C.ar      1 <0>        -0.1636
      8 C6          4.0999    1.9667   -0.2261 C.ar      1 <0>         0.1691
      9 C7          3.5072    0.7241   -0.4460 C.ar      1 <0>        -0.0571
     10 C8          2.1372    0.6473   -0.6692 C.ar      1 <0>         0.0987
     11 N2          1.2939   -0.3917   -0.9072 N.2       1 <0>        -0.5031
     12 N3          5.4213    2.0876   -0.0056 N.ar      1 <0>        -0.5364
     13 C9          5.9564    3.2663    0.1991 C.ar      1 <0>         0.3414
     14 N4          5.2521    4.3878    0.2027 N.ar      1 <0>        -0.5837
     15 C10         3.9424    4.3850   -0.0039 C.ar      1 <0>         0.4715
     16 N5          3.2220    5.5616    0.0024 N.pl3     1 <0>        -0.6391
     17 C11         3.8860    6.7870    0.1085 C.ar      1 <0>         0.1592
     18 C12         5.1262    6.9612   -0.4933 C.ar      1 <0>        -0.0922
     19 C13         5.7797    8.1730   -0.3872 C.ar      1 <0>        -0.0926
     20 C14         5.2014    9.2132    0.3172 C.ar      1 <0>        -0.1037
     21 C15         3.9663    9.0437    0.9174 C.ar      1 <0>        -0.0717
     22 C16         3.3050    7.8347    0.8108 C.ar      1 <0>        -0.1198
     23 Br1         3.1796   10.4693    1.8788 Br        1 <0>        -0.0449
     24 H2         -1.2556   -0.9160   -2.4071 H         1 <0>         0.0959
     25 H3         -0.9772   -1.7945   -0.8843 H         1 <0>         0.1025
     26 H4         -2.0114   -0.3458   -0.8998 H         1 <0>         0.0853
     27 H5          1.3189    3.9469   -0.4611 H         1 <0>         0.1284
     28 H6          4.1084   -0.1730   -0.4426 H         1 <0>         0.1506
     29 H7          7.0207    3.3258    0.3725 H         1 <0>         0.1982
     30 H8          2.2548    5.5385   -0.0669 H         1 <0>         0.4206
     31 H9          5.5788    6.1494   -1.0432 H         1 <0>         0.1418
     32 H10         6.7435    8.3088   -0.8552 H         1 <0>         0.1375
     33 H11         5.7147   10.1599    0.3985 H         1 <0>         0.1350
     34 H12         2.3393    7.7038    1.2763 H         1 <0>         0.1338
@<TRIPOS>BOND
     1    1    2 1
     2    1   24 1
     3    1   25 1
     4    1   26 1
     5    2   11 2
     6    2    3 1
     7    3    4 1
     8    3    5 1
     9    5   10 ar
    10    5    6 ar
    11    6    7 ar
    12    6   27 1
    13    7   15 ar
    14    7    8 ar
    15    8    9 ar
    16    8   12 ar
    17    9   10 ar
    18    9   28 1
    19   10   11 1
    20   12   13 ar
    21   13   14 ar
    22   13   29 1
    23   14   15 ar
    24   15   16 1
    25   16   17 1
    26   16   30 1
    27   17   22 ar
    28   17   18 ar
    29   18   19 ar
    30   18   31 1
    31   19   20 ar
    32   19   32 1
    33   20   21 ar
    34   20   33 1
    35   21   22 ar
    36   21   23 1
    37   22   34 1
@<TRIPOS>MOLECULE
ZINC03815054
   31    34     0     0     0
SMALL
USER_CHARGES

@<TRIPOS>ATOM
      1 C1          7.3400   -2.6765    0.2973 C.ar      1 <0>        -0.0925
      2 C2          6.1117   -2.0562    0.4181 C.ar      1 <0>        -0.0927
      3 C3          4.9873   -2.6251   -0.1661 C.ar      1 <0>         0.1587
      4 C4          5.1008   -3.8199   -0.8657 C.ar      1 <0>        -0.1192
      5 C5          6.3332   -4.4326   -0.9874 C.ar      1 <0>        -0.0715
      6 C6          7.4513   -3.8627   -0.4039 C.ar      1 <0>        -0.1036
      7 Br1         6.4908   -6.0556   -1.9450 Br        1 <0>        -0.0445
      8 N1          3.7431   -1.9997   -0.0455 N.pl3     1 <0>        -0.6379
      9 C7          3.6606   -0.6230   -0.0438 C.ar      1 <0>         0.4641
     10 C8          2.4252    0.0323    0.1987 C.ar      1 <0>        -0.1309
     11 C9          1.2543   -0.6831    0.4440 C.ar      1 <0>        -0.1093
     12 C10         0.0730   -0.0022    0.6758 C.ar      1 <0>         0.1260
     13 C11         0.0517    1.4128    0.6643 C.ar      1 <0>        -0.1281
     14 C12         1.2166    2.1342    0.4206 C.ar      1 <0>        -0.0165
     15 C13         2.4088    1.4526    0.1861 C.ar      1 <0>         0.1372
     16 N2          3.5592    2.1081   -0.0544 N.ar      1 <0>        -0.5306
     17 C14         4.6689    1.4462   -0.2709 C.ar      1 <0>         0.3335
     18 N3          4.7326    0.1229   -0.2690 N.ar      1 <0>        -0.5769
     19 C15        -1.3296    1.8014    0.9455 C.2       1 <0>         0.0778
     20 N4         -2.0286    0.7142    1.0938 N.2       1 <0>        -0.2240
     21 N5         -1.2136   -0.4116    0.9412 N.pl3     1 <0>        -0.5260
     22 H1         -1.5170   -1.3617    1.0133 H         1 <0>         0.4500
     23 H2          8.2144   -2.2343    0.7515 H         1 <0>         0.1375
     24 H3          6.0257   -1.1296    0.9661 H         1 <0>         0.1414
     25 H4          4.2276   -4.2670   -1.3173 H         1 <0>         0.1343
     26 H5          8.4128   -4.3459   -0.4962 H         1 <0>         0.1350
     27 H6          2.9377   -2.5339    0.0370 H         1 <0>         0.4215
     28 H7          1.2693   -1.7630    0.4527 H         1 <0>         0.1305
     29 H8          1.1964    3.2140    0.4124 H         1 <0>         0.1523
     30 H9          5.5734    2.0051   -0.4602 H         1 <0>         0.1980
     31 H10        -1.7044    2.8121    1.0121 H         1 <0>         0.2064
@<TRIPOS>BOND
     1    1    6 ar
     2    1    2 ar
     3    1   23 1
     4    2    3 ar
     5    2   24 1
     6    3    4 ar
     7    3    8 1
     8    4    5 ar
     9    4   25 1
    10    5    6 ar
    11    5    7 1
    12    6   26 1
    13    8    9 1
    14    8   27 1
    15    9   18 ar
    16    9   10 ar
    17   10   15 ar
    18   10   11 ar
    19   11   12 ar
    20   11   28 1
    21   12   21 1
    22   12   13 ar
    23   13   14 ar
    24   13   19 1
    25   14   15 ar
    26   14   29 1
    27   15   16 ar
    28   16   17 ar
    29   17   18 ar
    30   17   30 1
    31   19   20 2
    32   19   31 1
    33   20   21 1
    34   21   22 1
@<TRIPOS>MOLECULE
ZINC03815055
   30    32     0     0     0
SMALL
USER_CHARGES

@<TRIPOS>ATOM
      1 C1         -1.4911    6.0223    0.3363 C.ar      1 <0>        -0.0941
      2 C2         -0.2808    5.3630    0.4278 C.ar      1 <0>        -0.1311
      3 C3         -0.1517    4.0771   -0.0810 C.ar      1 <0>         0.1576
      4 C4         -1.2397    3.4599   -0.6853 C.ar      1 <0>        -0.0784
      5 C5         -2.4488    4.1229   -0.7693 C.ar      1 <0>        -0.0810
      6 C6         -2.5738    5.4037   -0.2610 C.ar      1 <0>        -0.1025
      7 I1         -4.0925    3.1911   -1.6744 I         1 <0>        -0.0367
      8 N1          1.0720    3.4075    0.0097 N.pl3     1 <0>        -0.6409
      9 C7          1.0985    2.0364    0.1628 C.ar      1 <0>         0.4727
     10 C8          2.3222    1.3266    0.1397 C.ar      1 <0>        -0.2355
     11 C9          3.5514    1.9740   -0.0378 C.ar      1 <0>        -0.0291
     12 C10         4.7020    1.2465   -0.0537 C.ar      1 <0>        -0.1839
     13 C11         4.6735   -0.1437    0.1053 C.ar      1 <0>         0.2604
     14 C12         3.4763   -0.8087    0.2820 C.ar      1 <0>        -0.2125
     15 C13         2.2819   -0.0808    0.3016 C.ar      1 <0>         0.2337
     16 N2          1.0909   -0.6768    0.4697 N.ar      1 <0>        -0.5551
     17 C14        -0.0121    0.0334    0.4830 C.ar      1 <0>         0.3532
     18 N3         -0.0230    1.3484    0.3353 N.ar      1 <0>        -0.5952
     19 N4          5.8657   -0.8643    0.0851 N.pl3     1 <0>        -0.8642
     20 H1         -1.5918    7.0224    0.7314 H         1 <0>         0.1356
     21 H2          0.5643    5.8469    0.8948 H         1 <0>         0.1307
     22 H3         -1.1414    2.4618   -1.0858 H         1 <0>         0.1465
     23 H4         -3.5190    5.9214   -0.3312 H         1 <0>         0.1305
     24 H5          1.9025    3.9067   -0.0350 H         1 <0>         0.4215
     25 H6          3.5863    3.0463   -0.1619 H         1 <0>         0.1269
     26 H7          5.6484    1.7484   -0.1904 H         1 <0>         0.1314
     27 H8          3.4622   -1.8817    0.4045 H         1 <0>         0.1375
     28 H9         -0.9533   -0.4781    0.6203 H         1 <0>         0.1949
     29 H10         6.7096   -0.4023   -0.0388 H         1 <0>         0.4027
     30 H11         5.8519   -1.8280    0.1948 H         1 <0>         0.4045
@<TRIPOS>BOND
     1    1    6 ar
     2    1    2 ar
     3    1   20 1
     4    2    3 ar
     5    2   21 1
     6    3    4 ar
     7    3    8 1
     8    4    5 ar
     9    4   22 1
    10    5    6 ar
    11    5    7 1
    12    6   23 1
    13    8    9 1
    14    8   24 1
    15    9   18 ar
    16    9   10 ar
    17   10   15 ar
    18   10   11 ar
    19   11   12 ar
    20   11   25 1
    21   12   13 ar
    22   12   26 1
    23   13   14 ar
    24   13   19 1
    25   14   15 ar
    26   14   27 1
    27   15   16 ar
    28   16   17 ar
    29   17   18 ar
    30   17   28 1
    31   19   29 1
    32   19   30 1
@<TRIPOS>MOLECULE
ZINC03815056
   56    58     0     0     0
SMALL
USER_CHARGES

@<TRIPOS>ATOM
      1 C1          4.4126   -1.5015   -1.8628 C.ar      1 <0>        -0.0897
      2 C2          3.1182   -1.2242   -1.4682 C.ar      1 <0>        -0.1178
      3 C3          2.5204   -0.0278   -1.8430 C.ar      1 <0>         0.1223
      4 C4          3.2249    0.8843   -2.6184 C.ar      1 <0>        -0.0767
      5 C5          4.5211    0.6032   -3.0059 C.ar      1 <0>        -0.0737
      6 C6          5.1134   -0.5900   -2.6305 C.ar      1 <0>        -0.0843
      7 Br1         5.4837    1.8463   -4.0565 Br        1 <0>        -0.0227
      8 N1          1.2106    0.2552   -1.4455 N.pl3     1 <0>        -0.6079
      9 C7          0.8395    1.5548   -1.1678 C.ar      1 <0>         0.4684
     10 C8         -0.5452    1.8994   -0.8606 C.ar      1 <0>        -0.0700
     11 C9         -1.5773    0.9594   -0.8246 C.ar      1 <0>        -0.1344
     12 C10        -2.8548    1.3979   -0.5213 C.ar      1 <0>         0.3899
     13 C11        -2.1719    3.6025   -0.2842 C.ar      1 <0>         0.2328
     14 C12        -0.8481    3.2577   -0.5862 C.ar      1 <0>         0.1288
     15 N2          0.1467    4.1544   -0.6220 N.ar      1 <0>        -0.5212
     16 C13         1.3727    3.7889   -0.9037 C.ar      1 <0>         0.3910
     17 N3          1.7279    2.5418   -1.1696 N.ar      1 <0>        -0.5413
     18 N4         -3.8995    0.4777   -0.4798 N.pl3     1 <0>        -0.7228
     19 C14        -3.6404   -0.9376   -0.7554 C.3       1 <0>         0.1189
     20 C15        -4.9469   -1.7262   -0.6450 C.3       1 <0>        -0.1670
     21 C16        -4.6763   -3.2043   -0.9329 C.3       1 <0>        -0.0057
     22 C17        -6.8743   -3.5671   -1.8813 C.3       1 <0>        -0.0064
     23 C18        -8.2728   -4.0802   -1.5322 C.3       1 <0>         0.0433
     24 O1         -8.7420   -3.4205   -0.3547 O.3       1 <0>        -0.5819
     25 C19        -5.6770   -5.4080   -0.8615 C.3       1 <0>        -0.0076
     26 C20        -5.0606   -5.8496    0.4674 C.3       1 <0>         0.0445
     27 O2         -6.0109   -5.6639    1.5183 O.3       1 <0>        -0.5780
     28 H1          4.8776   -2.4317   -1.5715 H         1 <0>         0.1452
     29 H2          2.5716   -1.9369   -0.8685 H         1 <0>         0.1337
     30 H3          2.7615    1.8137   -2.9149 H         1 <0>         0.1459
     31 H4          6.1250   -0.8097   -2.9382 H         1 <0>         0.1441
     32 H5          0.5625   -0.4620   -1.3650 H         1 <0>         0.4236
     33 H6         -1.3837   -0.0835   -1.0279 H         1 <0>         0.1768
     34 H7         -2.4267    4.6303   -0.0718 H         1 <0>         0.2219
     35 H8          2.1388    4.5500   -0.9199 H         1 <0>         0.2234
     36 H9         -4.7986    0.7739   -0.2683 H         1 <0>         0.4200
     37 H10        -3.2360   -1.0436   -1.7621 H         1 <0>         0.0931
     38 H11        -2.9213   -1.3228   -0.0326 H         1 <0>         0.0923
     39 H12        -5.3513   -1.6202    0.3616 H         1 <0>         0.1032
     40 H13        -5.6660   -1.3410   -1.3679 H         1 <0>         0.1021
     41 H14        -4.2719   -3.3103   -1.9395 H         1 <0>         0.1391
     42 H15        -3.9571   -3.5895   -0.2100 H         1 <0>         0.1344
     43 H16        -6.8957   -2.4803   -1.9619 H         1 <0>         0.1346
     44 H17        -6.5569   -3.9957   -2.8319 H         1 <0>         0.1464
     45 H18        -8.9523   -3.8744   -2.3592 H         1 <0>         0.0973
     46 H19        -8.2316   -5.1549   -1.3546 H         1 <0>         0.0741
     47 H20        -9.6250   -3.6974   -0.0741 H         1 <0>         0.4137
     48 H21        -6.6162   -5.9379   -1.0203 H         1 <0>         0.1405
     49 H22        -4.9886   -5.6368   -1.6751 H         1 <0>         0.1475
     50 H23        -4.7855   -6.9027    0.4082 H         1 <0>         0.0992
     51 H24        -4.1716   -5.2528    0.6717 H         1 <0>         0.0679
     52 H25        -5.6630   -5.8514    2.4009 H         1 <0>         0.4109
     53 N5         -3.1869    2.7020   -0.2502 N.ar      1 <0>        -0.4911
     54 H26        -4.1509    2.9811   -0.0336 H         1 <0>         0.4791
     55 N6         -5.9426   -3.9552   -0.8015 N.4       1 <0>        -0.3940
     56 H27        -6.3705   -3.7316    0.1046 H         1 <0>         0.4442
@<TRIPOS>BOND
     1    1    6 ar
     2    1    2 ar
     3    1   28 1
     4    2    3 ar
     5    2   29 1
     6    3    4 ar
     7    3    8 1
     8    4    5 ar
     9    4   30 1
    10    5    6 ar
    11    5    7 1
    12    6   31 1
    13    8    9 1
    14    8   32 1
    15    9   17 ar
    16    9   10 ar
    17   10   14 ar
    18   10   11 ar
    19   11   12 ar
    20   11   33 1
    21   12   18 1
    22   12   53 ar
    23   13   14 ar
    24   13   34 1
    25   13   53 ar
    26   14   15 ar
    27   15   16 ar
    28   16   17 ar
    29   16   35 1
    30   18   19 1
    31   18   36 1
    32   19   20 1
    33   19   37 1
    34   19   38 1
    35   20   21 1
    36   20   39 1
    37   20   40 1
    38   21   41 1
    39   21   42 1
    40   21   55 1
    41   22   23 1
    42   22   43 1
    43   22   44 1
    44   22   55 1
    45   23   24 1
    46   23   45 1
    47   23   46 1
    48   24   47 1
    49   25   26 1
    50   25   48 1
    51   25   49 1
    52   25   55 1
    53   26   27 1
    54   26   50 1
    55   26   51 1
    56   27   52 1
    57   53   54 1
    58   55   56 1
@<TRIPOS>MOLECULE
ZINC03815057
   34    37     0     0     0
SMALL
USER_CHARGES

@<TRIPOS>ATOM
      1 C1         -2.9614    4.9295    1.0221 C.3       1 <0>         0.1089
      2 N1         -2.4732    3.5507    0.9411 N.pl3     1 <0>        -0.4208
      3 C2         -1.1762    3.1790    0.6831 C.ar      1 <0>         0.1734
      4 C3         -0.0169    3.8950    0.4393 C.ar      1 <0>        -0.1486
      5 C4          1.1786    3.2162    0.2062 C.ar      1 <0>         0.2203
      6 C5          1.2023    1.7952    0.2199 C.ar      1 <0>        -0.2180
      7 C6          0.0353    1.0775    0.4653 C.ar      1 <0>         0.0211
      8 C7         -1.1532    1.7638    0.6914 C.ar      1 <0>        -0.1811
      9 C8         -2.5242    1.3357    0.9684 C.2       1 <0>         0.0845
     10 N2         -3.2558    2.4031    1.0995 N.2       1 <0>        -0.2366
     11 C9          2.4406    1.1451   -0.0217 C.ar      1 <0>         0.4853
     12 N3          3.5094    1.8963   -0.2472 N.ar      1 <0>        -0.5958
     13 C10         3.4388    3.2189   -0.2501 C.ar      1 <0>         0.3594
     14 N4          2.3258    3.8759   -0.0339 N.ar      1 <0>        -0.5533
     15 N5          2.5295   -0.2306   -0.0223 N.pl3     1 <0>        -0.6368
     16 C11         3.7766   -0.8503   -0.1421 C.ar      1 <0>         0.1568
     17 C12         4.8985   -0.2760    0.4427 C.ar      1 <0>        -0.0910
     18 C13         6.1292   -0.8907    0.3232 C.ar      1 <0>        -0.0933
     19 C14         6.2464   -2.0770   -0.3778 C.ar      1 <0>        -0.1025
     20 C15         5.1315   -2.6522   -0.9612 C.ar      1 <0>        -0.0721
     21 C16         3.8960   -2.0444   -0.8410 C.ar      1 <0>        -0.1179
     22 Br1         5.2970   -4.2748   -1.9182 Br        1 <0>        -0.0442
     23 H1         -3.2866    5.2584    0.0351 H         1 <0>         0.0722
     24 H2         -3.8008    4.9776    1.7159 H         1 <0>         0.0903
     25 H3         -2.1602    5.5785    1.3757 H         1 <0>         0.0876
     26 H4         -0.0381    4.9748    0.4299 H         1 <0>         0.1423
     27 H5          0.0516   -0.0023    0.4756 H         1 <0>         0.1361
     28 H6         -2.8677    0.3151    1.0501 H         1 <0>         0.2043
     29 H7          4.3406    3.7821   -0.4399 H         1 <0>         0.1979
     30 H8          1.7266   -0.7685    0.0604 H         1 <0>         0.4222
     31 H9          4.8080    0.6506    0.9901 H         1 <0>         0.1416
     32 H10         7.0013   -0.4446    0.7780 H         1 <0>         0.1374
     33 H11         7.2102   -2.5556   -0.4697 H         1 <0>         0.1350
     34 H12         3.0252   -2.4955   -1.2934 H         1 <0>         0.1351
@<TRIPOS>BOND
     1    1    2 1
     2    1   23 1
     3    1   24 1
     4    1   25 1
     5    2   10 1
     6    2    3 1
     7    3    8 ar
     8    3    4 ar
     9    4    5 ar
    10    4   26 1
    11    5   14 ar
    12    5    6 ar
    13    6    7 ar
    14    6   11 ar
    15    7    8 ar
    16    7   27 1
    17    8    9 1
    18    9   10 2
    19    9   28 1
    20   11   12 ar
    21   11   15 1
    22   12   13 ar
    23   13   14 ar
    24   13   29 1
    25   15   16 1
    26   15   30 1
    27   16   21 ar
    28   16   17 ar
    29   17   18 ar
    30   17   31 1
    31   18   19 ar
    32   18   32 1
    33   19   20 ar
    34   19   33 1
    35   20   21 ar
    36   20   22 1
    37   21   34 1
@<TRIPOS>MOLECULE
ZINC03815058
   31    34     0     0     0
SMALL
USER_CHARGES

@<TRIPOS>ATOM
      1 C1          1.5127   -1.9014    0.5725 C.ar      1 <0>        -0.0929
      2 C2          1.3358   -0.5317    0.5504 C.ar      1 <0>        -0.0935
      3 C3          0.1651    0.0079    0.0329 C.ar      1 <0>         0.1563
      4 C4         -0.8268   -0.8327   -0.4562 C.ar      1 <0>        -0.1194
      5 C5         -0.6419   -2.2018   -0.4352 C.ar      1 <0>        -0.0717
      6 C6          0.5261   -2.7357    0.0807 C.ar      1 <0>        -0.1036
      7 Br1        -1.9886   -3.3473   -1.1061 Br        1 <0>        -0.0442
      8 N1         -0.0169    1.3936    0.0097 N.pl3     1 <0>        -0.6353
      9 C7          1.0658    2.2281   -0.1688 C.ar      1 <0>         0.4847
     10 C8          0.9222    3.6373   -0.0789 C.ar      1 <0>        -0.2173
     11 C9         -0.3073    4.2315    0.1915 C.ar      1 <0>         0.0208
     12 C10        -0.3932    5.6173    0.2693 C.ar      1 <0>        -0.1816
     13 C11        -1.4952    6.5434    0.5290 C.2       1 <0>         0.0864
     14 N2         -1.0176    7.7525    0.4871 N.2       1 <0>        -0.2333
     15 N3          0.3531    7.7241    0.2134 N.pl3     1 <0>        -0.5231
     16 H1          0.9446    8.5262    0.1309 H         1 <0>         0.4518
     17 C12         0.7578    6.4186    0.0758 C.ar      1 <0>         0.1754
     18 C13         1.9812    5.8303   -0.1932 C.ar      1 <0>        -0.1496
     19 C14         2.0776    4.4413   -0.2733 C.ar      1 <0>         0.2207
     20 N4          3.2485    3.8323   -0.5322 N.ar      1 <0>        -0.5530
     21 C15         3.3179    2.5256   -0.6029 C.ar      1 <0>         0.3595
     22 N5          2.2700    1.7356   -0.4236 N.ar      1 <0>        -0.5954
     23 H2          2.4229   -2.3212    0.9748 H         1 <0>         0.1374
     24 H3          2.1071    0.1192    0.9348 H         1 <0>         0.1454
     25 H4         -1.7399   -0.4164   -0.8554 H         1 <0>         0.1350
     26 H5          0.6670   -3.8063    0.0996 H         1 <0>         0.1349
     27 H6         -0.9055    1.7678    0.1152 H         1 <0>         0.4223
     28 H7         -1.1865    3.6219    0.3391 H         1 <0>         0.1363
     29 H8         -2.5226    6.2717    0.7212 H         1 <0>         0.2042
     30 H9          2.8576    6.4442   -0.3400 H         1 <0>         0.1442
     31 H10         4.2751    2.0714   -0.8126 H         1 <0>         0.1983
@<TRIPOS>BOND
     1    1    6 ar
     2    1    2 ar
     3    1   23 1
     4    2    3 ar
     5    2   24 1
     6    3    4 ar
     7    3    8 1
     8    4    5 ar
     9    4   25 1
    10    5    6 ar
    11    5    7 1
    12    6   26 1
    13    8    9 1
    14    8   27 1
    15    9   22 ar
    16    9   10 ar
    17   10   19 ar
    18   10   11 ar
    19   11   12 ar
    20   11   28 1
    21   12   17 ar
    22   12   13 1
    23   13   14 2
    24   13   29 1
    25   14   15 1
    26   15   16 1
    27   15   17 1
    28   17   18 ar
    29   18   19 ar
    30   18   30 1
    31   19   20 ar
    32   20   21 ar
    33   21   22 ar
    34   21   31 1
@<TRIPOS>MOLECULE
ZINC03815059
   38    40     0     0     0
SMALL
USER_CHARGES

@<TRIPOS>ATOM
      1 C1         -3.6443   -2.0240   -0.1999 C.3       1 <0>         0.0779
      2 N1         -3.5888   -0.5619   -0.1270 N.pl3     1 <0>        -0.5514
      3 C2         -4.8227    0.2232   -0.2126 C.3       1 <0>         0.0429
      4 C3         -5.1064    0.5575   -1.6544 C.2       1 <0>         0.4381
      5 O1         -4.3549    0.1789   -2.5215 O.co2     1 <0>        -0.6135
      6 C4         -2.3630    0.0818    0.0237 C.ar      1 <0>         0.4233
      7 C5         -1.1975   -0.6654   -0.0016 C.ar      1 <0>        -0.1517
      8 C6          0.0199    0.0007    0.1514 C.ar      1 <0>        -0.0561
      9 C7          0.0114    1.4088    0.3255 C.ar      1 <0>         0.0953
     10 C8         -1.2200    2.0755    0.3424 C.ar      1 <0>         0.2188
     11 N2          1.1832    2.0418    0.4722 N.ar      1 <0>        -0.5183
     12 C9          2.3130    1.3791    0.4558 C.ar      1 <0>         0.3614
     13 N3          2.3968    0.0675    0.2981 N.ar      1 <0>        -0.5540
     14 C10         1.3108   -0.6806    0.1421 C.ar      1 <0>         0.4674
     15 N4          1.3992   -2.0476   -0.0228 N.pl3     1 <0>        -0.6166
     16 C11         2.6510   -2.6575   -0.1435 C.ar      1 <0>         0.1415
     17 C12         2.8501   -3.9416    0.3485 C.ar      1 <0>        -0.1223
     18 C13         4.0878   -4.5418    0.2275 C.ar      1 <0>        -0.0913
     19 C14         5.1289   -3.8668   -0.3832 C.ar      1 <0>        -0.0960
     20 C15         4.9344   -2.5882   -0.8748 C.ar      1 <0>        -0.0724
     21 C16         3.6967   -1.9836   -0.7606 C.ar      1 <0>        -0.0804
     22 Br1         6.3609   -1.6700   -1.7100 Br        1 <0>        -0.0360
     23 H1         -3.7590   -2.4337    0.8036 H         1 <0>         0.0785
     24 H2         -4.4927   -2.3252   -0.8144 H         1 <0>         0.0987
     25 H3         -2.7226   -2.4010   -0.6432 H         1 <0>         0.0812
     26 H4         -5.6509   -0.3559    0.1958 H         1 <0>         0.1195
     27 H5         -4.7074    1.1446    0.3582 H         1 <0>         0.0808
     28 H6         -1.2293   -1.7366   -0.1359 H         1 <0>         0.1775
     29 H7         -1.2516    3.1470    0.4735 H         1 <0>         0.2109
     30 H8          3.2304    1.9358    0.5779 H         1 <0>         0.2121
     31 H9          0.5925   -2.5854   -0.0548 H         1 <0>         0.4271
     32 H10         2.0377   -4.4696    0.8256 H         1 <0>         0.1352
     33 H11         4.2428   -5.5399    0.6098 H         1 <0>         0.1411
     34 H12         6.0958   -4.3388   -0.4768 H         1 <0>         0.1383
     35 H13         3.5441   -0.9870   -1.1477 H         1 <0>         0.1490
     36 O2         -6.1938    1.2760   -1.9753 O.co2     1 <0>        -0.7297
     37 N5         -2.4116    1.4433    0.1898 N.ar      1 <0>        -0.5020
     38 H14        -3.3012    1.9560    0.1983 H         1 <0>         0.4752
@<TRIPOS>BOND
     1    1    2 1
     2    1   23 1
     3    1   24 1
     4    1   25 1
     5    2    3 1
     6    2    6 1
     7    3    4 1
     8    3   26 1
     9    3   27 1
    10    4    5 2
    11    4   36 1
    12    6    7 ar
    13    6   37 ar
    14    7    8 ar
    15    7   28 1
    16    8   14 ar
    17    8    9 ar
    18    9   10 ar
    19    9   11 ar
    20   10   29 1
    21   10   37 ar
    22   11   12 ar
    23   12   13 ar
    24   12   30 1
    25   13   14 ar
    26   14   15 1
    27   15   16 1
    28   15   31 1
    29   16   21 ar
    30   16   17 ar
    31   17   18 ar
    32   17   32 1
    33   18   19 ar
    34   18   33 1
    35   19   20 ar
    36   19   34 1
    37   20   21 ar
    38   20   22 1
    39   21   35 1
    40   37   38 1
@<TRIPOS>MOLECULE
ZINC03815060
   36    38     0     0     0
SMALL
USER_CHARGES

@<TRIPOS>ATOM
      1 C1         -1.9932    0.9790   -1.4877 C.3       1 <0>        -0.1205
      2 C2         -0.9721    1.7510   -0.6924 C.ar      1 <0>        -0.0621
      3 C3         -0.0145    1.0758    0.0424 C.ar      1 <0>        -0.1165
      4 C4          0.9281    1.7802    0.7685 C.ar      1 <0>        -0.0943
      5 C5          0.9128    3.1613    0.7664 C.ar      1 <0>        -0.1093
      6 C6         -0.0510    3.8425    0.0342 C.ar      1 <0>         0.1229
      7 C7         -0.9969    3.1316   -0.6940 C.ar      1 <0>        -0.1343
      8 N1         -0.0691    5.2401    0.0295 N.pl3     1 <0>        -0.6068
      9 C8          1.1128    5.9456    0.1252 C.ar      1 <0>         0.4701
     10 C9          1.1206    7.4005    0.2434 C.ar      1 <0>        -0.0664
     11 C10        -0.0432    8.1720    0.2685 C.ar      1 <0>        -0.1367
     12 C11         0.0819    9.5457    0.3843 C.ar      1 <0>         0.3968
     13 C12         2.3991    9.4501    0.4516 C.ar      1 <0>         0.2191
     14 C13         2.3760    8.0541    0.3372 C.ar      1 <0>         0.1213
     15 N2          3.4886    7.3080    0.3130 N.ar      1 <0>        -0.5286
     16 C14         3.4226    6.0042    0.2052 C.ar      1 <0>         0.3826
     17 N3          2.2882    5.3276    0.1190 N.ar      1 <0>        -0.5478
     18 N4         -1.0655   10.3348    0.4119 N.pl3     1 <0>        -0.7129
     19 C15        -2.3870    9.7094    0.3182 C.3       1 <0>         0.0722
     20 H1         -2.8678    0.7865   -0.8663 H         1 <0>         0.0766
     21 H2         -2.2889    1.5604   -2.3610 H         1 <0>         0.0688
     22 H3         -1.5616    0.0317   -1.8109 H         1 <0>         0.0737
     23 H4         -0.0001   -0.0041    0.0454 H         1 <0>         0.1306
     24 H5          1.6772    1.2499    1.3376 H         1 <0>         0.1332
     25 H6          1.6497    3.7110    1.3332 H         1 <0>         0.1368
     26 H7         -1.7474    3.6582   -1.2647 H         1 <0>         0.1274
     27 H8         -0.9125    5.7140   -0.0411 H         1 <0>         0.4243
     28 H9         -1.0162    7.7085    0.1989 H         1 <0>         0.1795
     29 H10         3.3429    9.9700    0.5241 H         1 <0>         0.2170
     30 H11         4.3483    5.4481    0.1903 H         1 <0>         0.2182
     31 H12        -0.9896   11.2984    0.4931 H         1 <0>         0.4207
     32 H13        -3.1571   10.4798    0.3563 H         1 <0>         0.1057
     33 H14        -2.4650    9.1640   -0.6223 H         1 <0>         0.0785
     34 H15        -2.5221    9.0191    1.1508 H         1 <0>         0.0787
     35 N5          1.2775   10.2140    0.4775 N.ar      1 <0>        -0.4959
     36 H16         1.3208   11.2363    0.5621 H         1 <0>         0.4774
@<TRIPOS>BOND
     1    1    2 1
     2    1   20 1
     3    1   21 1
     4    1   22 1
     5    2    7 ar
     6    2    3 ar
     7    3    4 ar
     8    3   23 1
     9    4    5 ar
    10    4   24 1
    11    5    6 ar
    12    5   25 1
    13    6    7 ar
    14    6    8 1
    15    7   26 1
    16    8    9 1
    17    8   27 1
    18    9   17 ar
    19    9   10 ar
    20   10   14 ar
    21   10   11 ar
    22   11   12 ar
    23   11   28 1
    24   12   18 1
    25   12   35 ar
    26   13   14 ar
    27   13   29 1
    28   13   35 ar
    29   14   15 ar
    30   15   16 ar
    31   16   17 ar
    32   16   30 1
    33   18   19 1
    34   18   31 1
    35   19   32 1
    36   19   33 1
    37   19   34 1
    38   35   36 1
@<TRIPOS>MOLECULE
ZINC03815061
   33    36     0     0     0
SMALL
USER_CHARGES

@<TRIPOS>ATOM
      1 C1         -0.1959    1.2428   -0.0986 C.ar      1 <0>        -0.0910
      2 C2          0.9776    1.9330   -0.3319 C.ar      1 <0>        -0.1330
      3 C3          1.1690    3.1868    0.2347 C.ar      1 <0>         0.1628
      4 C4          0.1787    3.7427    1.0347 C.ar      1 <0>        -0.0864
      5 C5         -0.9929    3.0473    1.2642 C.ar      1 <0>        -0.0699
      6 C6         -1.1823    1.8007    0.6933 C.ar      1 <0>        -0.1077
      7 Br1        -2.3423    3.8028    2.3524 Br        1 <0>        -0.0443
      8 N1          2.3552    3.8876   -0.0000 N.pl3     1 <0>        -0.6457
      9 C7          2.3357    5.2714   -0.0971 C.ar      1 <0>         0.4842
     10 C8          3.5154    5.9938   -0.2104 C.ar      1 <0>        -0.2906
     11 C9          3.4973    7.3905   -0.3085 C.ar      1 <0>         0.2383
     12 C10         4.8133    8.0480   -0.4244 C.ar      1 <0>        -0.1546
     13 C11         5.0730    9.4329   -0.5366 C.ar      1 <0>         0.0090
     14 C12         6.3462    9.8981   -0.6366 C.ar      1 <0>        -0.2001
     15 C13         7.4372    9.0298   -0.6324 C.ar      1 <0>         0.2657
     16 C14         7.2177    7.6636   -0.5241 C.ar      1 <0>        -0.1750
     17 C15         5.9263    7.1898   -0.4221 C.ar      1 <0>        -0.0244
     18 S1          5.2328    5.5630   -0.2703 S.3       1 <0>         0.0760
     19 N2          8.7362    9.5292   -0.7361 N.pl3     1 <0>        -0.8617
     20 N3          2.2765    7.9720   -0.2850 N.ar      1 <0>        -0.5335
     21 C16         1.1839    7.2587   -0.1765 C.ar      1 <0>         0.3433
     22 N4          1.1833    5.9411   -0.0895 N.ar      1 <0>        -0.5523
     23 H1         -0.3449    0.2680   -0.5389 H         1 <0>         0.1373
     24 H2          1.7459    1.4981   -0.9539 H         1 <0>         0.1319
     25 H3          0.3243    4.7175    1.4764 H         1 <0>         0.1448
     26 H4         -2.1007    1.2608    0.8705 H         1 <0>         0.1346
     27 H5          3.1921    3.4065   -0.0950 H         1 <0>         0.4231
     28 H6          4.2488   10.1308   -0.5427 H         1 <0>         0.1365
     29 H7          6.5162   10.9612   -0.7212 H         1 <0>         0.1329
     30 H8          8.0514    6.9770   -0.5190 H         1 <0>         0.1366
     31 H9          8.8838   10.4849   -0.8116 H         1 <0>         0.4054
     32 H10         9.4915    8.9206   -0.7327 H         1 <0>         0.4043
     33 H11         0.2347    7.7738   -0.1631 H         1 <0>         0.2033
@<TRIPOS>BOND
     1    1    6 ar
     2    1    2 ar
     3    1   23 1
     4    2    3 ar
     5    2   24 1
     6    3    4 ar
     7    3    8 1
     8    4    5 ar
     9    4   25 1
    10    5    6 ar
    11    5    7 1
    12    6   26 1
    13    8    9 1
    14    8   27 1
    15    9   22 ar
    16    9   10 ar
    17   10   18 1
    18   10   11 ar
    19   11   12 1
    20   11   20 ar
    21   12   17 ar
    22   12   13 ar
    23   13   14 ar
    24   13   28 1
    25   14   15 ar
    26   14   29 1
    27   15   16 ar
    28   15   19 1
    29   16   17 ar
    30   16   30 1
    31   17   18 1
    32   19   31 1
    33   19   32 1
    34   20   21 ar
    35   21   22 ar
    36   21   33 1
@<TRIPOS>MOLECULE
ZINC03815062
   46    49     0     0     0
SMALL
USER_CHARGES

@<TRIPOS>ATOM
      1 C1          2.1577    5.6966    0.3942 C.ar      1 <0>        -0.0915
      2 C2          2.2603    4.3225    0.4909 C.ar      1 <0>        -0.0824
      3 C3          3.3215    3.6622   -0.1150 C.ar      1 <0>         0.1203
      4 C4          4.2797    4.3869   -0.8123 C.ar      1 <0>        -0.1019
      5 C5          4.1688    5.7608   -0.9094 C.ar      1 <0>        -0.0755
      6 C6          3.1100    6.4152   -0.3043 C.ar      1 <0>        -0.0822
      7 Br1         5.4687    6.7483   -1.8638 Br        1 <0>        -0.0262
      8 N1          3.4281    2.2717   -0.0184 N.pl3     1 <0>        -0.6076
      9 C7          2.2914    1.4919   -0.0144 C.ar      1 <0>         0.5205
     10 C8          2.3671    0.0967    0.2035 C.ar      1 <0>        -0.2630
     11 C9          3.5751   -0.5691    0.4250 C.ar      1 <0>         0.2681
     12 C10         2.4717   -2.6006    0.6204 C.ar      1 <0>         0.4361
     13 C11         1.2299   -2.0296    0.4098 C.ar      1 <0>        -0.1935
     14 C12         1.1580   -0.6486    0.1945 C.ar      1 <0>         0.3059
     15 N2          0.0031   -0.0057   -0.0186 N.ar      1 <0>        -0.5562
     16 C13        -0.0056    1.2929   -0.2155 C.ar      1 <0>         0.4287
     17 N3          1.0937    2.0290   -0.2163 N.ar      1 <0>        -0.5804
     18 N4          2.5608   -3.9699    0.8351 N.pl3     1 <0>        -0.7067
     19 C14         1.3480   -4.7916    0.8367 C.3       1 <0>         0.1125
     20 C15         1.7221   -6.2527    1.0938 C.3       1 <0>        -0.1525
     21 C16         0.4554   -7.1108    1.0955 C.3       1 <0>         0.1107
     22 N5          0.8137   -8.5098    1.3417 N.pl3     1 <0>        -0.4670
     23 C17         1.1160   -9.4498    0.3937 C.2       1 <0>        -0.0596
     24 C18         1.3873  -10.5932    1.0514 C.2       1 <0>        -0.0212
     25 N6          1.2452  -10.3603    2.3646 N.2       1 <0>        -0.4890
     26 C19         0.9017   -9.1144    2.5460 C.2       1 <0>         0.1826
     27 H1          1.3327    6.2103    0.8653 H         1 <0>         0.1450
     28 H2          1.5159    3.7620    1.0368 H         1 <0>         0.1420
     29 H3          5.1084    3.8769   -1.2807 H         1 <0>         0.1390
     30 H4          3.0277    7.4896   -0.3778 H         1 <0>         0.1432
     31 H5          4.3020    1.8556    0.0458 H         1 <0>         0.4246
     32 H6          4.5026   -0.0158    0.4344 H         1 <0>         0.1974
     33 H7          0.3360   -2.6356    0.4110 H         1 <0>         0.1908
     34 H8         -0.9530    1.7814   -0.3892 H         1 <0>         0.2221
     35 H9          3.4261   -4.3821    0.9840 H         1 <0>         0.4183
     36 H10         0.6755   -4.4452    1.6214 H         1 <0>         0.0941
     37 H11         0.8515   -4.7084   -0.1301 H         1 <0>         0.0934
     38 H12         2.3946   -6.5990    0.3090 H         1 <0>         0.0854
     39 H13         2.2186   -6.3358    2.0606 H         1 <0>         0.0861
     40 H14        -0.2171   -6.7644    1.8802 H         1 <0>         0.1021
     41 H15        -0.0410   -7.0276    0.1287 H         1 <0>         0.0997
     42 H16         1.1356   -9.3022   -0.6760 H         1 <0>         0.1755
     43 H17         1.6652  -11.5343    0.6002 H         1 <0>         0.1726
     44 H18         0.7188   -8.6446    3.5011 H         1 <0>         0.2051
     45 N7          3.6583   -1.9077    0.6351 N.ar      1 <0>        -0.5397
     46 H19         4.5576   -2.3762    0.7959 H         1 <0>         0.4737
@<TRIPOS>BOND
     1    1    6 ar
     2    1    2 ar
     3    1   27 1
     4    2    3 ar
     5    2   28 1
     6    3    4 ar
     7    3    8 1
     8    4    5 ar
     9    4   29 1
    10    5    6 ar
    11    5    7 1
    12    6   30 1
    13    8    9 1
    14    8   31 1
    15    9   17 ar
    16    9   10 ar
    17   10   14 ar
    18   10   11 ar
    19   11   32 1
    20   11   45 ar
    21   12   13 ar
    22   12   18 1
    23   12   45 ar
    24   13   14 ar
    25   13   33 1
    26   14   15 ar
    27   15   16 ar
    28   16   17 ar
    29   16   34 1
    30   18   19 1
    31   18   35 1
    32   19   20 1
    33   19   36 1
    34   19   37 1
    35   20   21 1
    36   20   38 1
    37   20   39 1
    38   21   22 1
    39   21   40 1
    40   21   41 1
    41   22   26 1
    42   22   23 1
    43   23   24 2
    44   23   42 1
    45   24   25 1
    46   24   43 1
    47   25   26 2
    48   26   44 1
    49   45   46 1
@<TRIPOS>MOLECULE
ZINC03815062
   47    50     0     0     0
SMALL
USER_CHARGES

@<TRIPOS>ATOM
      1 C1          2.1577    5.6966    0.3942 C.ar      1 <0>        -0.0912
      2 C2          2.2603    4.3225    0.4909 C.ar      1 <0>        -0.0814
      3 C3          3.3215    3.6622   -0.1150 C.ar      1 <0>         0.1133
      4 C4          4.2797    4.3869   -0.8123 C.ar      1 <0>        -0.0995
      5 C5          4.1688    5.7608   -0.9094 C.ar      1 <0>        -0.0759
      6 C6          3.1100    6.4152   -0.3043 C.ar      1 <0>        -0.0784
      7 Br1         5.4687    6.7483   -1.8638 Br        1 <0>        -0.0218
      8 N1          3.4281    2.2717   -0.0184 N.pl3     1 <0>        -0.6012
      9 C7          2.2914    1.4919   -0.0144 C.ar      1 <0>         0.5201
     10 C8          2.3671    0.0967    0.2035 C.ar      1 <0>        -0.2615
     11 C9          3.5751   -0.5691    0.4250 C.ar      1 <0>         0.2720
     12 C10         2.4717   -2.6006    0.6204 C.ar      1 <0>         0.4320
     13 C11         1.2299   -2.0296    0.4098 C.ar      1 <0>        -0.1925
     14 C12         1.1580   -0.6486    0.1945 C.ar      1 <0>         0.3083
     15 N2          0.0031   -0.0057   -0.0186 N.ar      1 <0>        -0.5576
     16 C13        -0.0056    1.2929   -0.2155 C.ar      1 <0>         0.4341
     17 N3          1.0937    2.0290   -0.2163 N.ar      1 <0>        -0.5765
     18 N4          2.5608   -3.9699    0.8351 N.pl3     1 <0>        -0.7175
     19 C14         1.3480   -4.7916    0.8367 C.3       1 <0>         0.1153
     20 C15         1.7221   -6.2527    1.0938 C.3       1 <0>        -0.1576
     21 C16         0.4554   -7.1108    1.0955 C.3       1 <0>         0.0980
     22 N5          0.8137   -8.5098    1.3417 N.pl3     1 <0>        -0.4164
     23 C17         1.1160   -9.4498    0.3937 C.2       1 <0>         0.0214
     24 C18         1.3873  -10.5932    1.0514 C.2       1 <0>         0.0119
     25 C19         0.9017   -9.1144    2.5460 C.cat     1 <0>         0.2897
     26 H1          1.3327    6.2103    0.8653 H         1 <0>         0.1463
     27 H2          1.5159    3.7620    1.0368 H         1 <0>         0.1413
     28 H3          5.1084    3.8769   -1.2807 H         1 <0>         0.1395
     29 H4          3.0277    7.4896   -0.3778 H         1 <0>         0.1451
     30 H5          4.3020    1.8556    0.0458 H         1 <0>         0.4251
     31 H6          4.5026   -0.0158    0.4344 H         1 <0>         0.1992
     32 H7          0.3360   -2.6356    0.4110 H         1 <0>         0.1893
     33 H8         -0.9530    1.7814   -0.3892 H         1 <0>         0.2244
     34 H9          3.4261   -4.3821    0.9840 H         1 <0>         0.4174
     35 H10         0.6755   -4.4452    1.6214 H         1 <0>         0.0962
     36 H11         0.8515   -4.7084   -0.1301 H         1 <0>         0.0963
     37 H12         2.3946   -6.5990    0.3090 H         1 <0>         0.0942
     38 H13         2.2186   -6.3358    2.0606 H         1 <0>         0.0921
     39 H14        -0.2171   -6.7644    1.8802 H         1 <0>         0.1287
     40 H15        -0.0410   -7.0276    0.1287 H         1 <0>         0.1312
     41 H16         1.1356   -9.3022   -0.6760 H         1 <0>         0.2235
     42 H17         1.6652  -11.5343    0.6002 H         1 <0>         0.2256
     43 H18         0.7188   -8.6446    3.5011 H         1 <0>         0.2599
     44 N6          3.6583   -1.9077    0.6351 N.ar      1 <0>        -0.5409
     45 H19         4.5576   -2.3762    0.7959 H         1 <0>         0.4735
     46 N7          1.2450  -10.3594    2.3636 N.pl3     1 <0>        -0.4803
     47 H20         1.3845  -11.0520    3.1086 H         1 <0>         0.4852
@<TRIPOS>BOND
     1    1    6 ar
     2    1    2 ar
     3    1   26 1
     4    2    3 ar
     5    2   27 1
     6    3    4 ar
     7    3    8 1
     8    4    5 ar
     9    4   28 1
    10    5    6 ar
    11    5    7 1
    12    6   29 1
    13    8    9 1
    14    8   30 1
    15    9   17 ar
    16    9   10 ar
    17   10   14 ar
    18   10   11 ar
    19   11   31 1
    20   11   44 ar
    21   12   13 ar
    22   12   18 1
    23   12   44 ar
    24   13   14 ar
    25   13   32 1
    26   14   15 ar
    27   15   16 ar
    28   16   17 ar
    29   16   33 1
    30   18   19 1
    31   18   34 1
    32   19   20 1
    33   19   35 1
    34   19   36 1
    35   20   21 1
    36   20   37 1
    37   20   38 1
    38   21   22 1
    39   21   39 1
    40   21   40 1
    41   22   25 1
    42   22   23 1
    43   23   24 2
    44   23   41 1
    45   24   42 1
    46   24   46 1
    47   25   43 1
    48   25   46 2
    49   44   45 1
    50   46   47 1
@<TRIPOS>MOLECULE
ZINC03815063
   44    46     0     0     0
SMALL
USER_CHARGES

@<TRIPOS>ATOM
      1 C1          3.3278   -2.2467   -0.3076 C.3       1 <0>         0.0642
      2 N1          3.4270   -0.7892   -0.1978 N.pl3     1 <0>        -0.5889
      3 C2          4.7364   -0.1365   -0.2723 C.3       1 <0>         0.0774
      4 C3          5.3322   -0.0267    1.1327 C.3       1 <0>         0.0863
      5 H1          4.6275    0.4863    1.7871 H         1 <0>         0.1089
      6 C4          6.6403    0.7646    1.0716 C.3       1 <0>         0.0442
      7 O1          7.1366    0.9675    2.3961 O.3       1 <0>        -0.5606
      8 O2          5.5909   -1.3357    1.6441 O.3       1 <0>        -0.5428
      9 C5          2.2765   -0.0242   -0.0225 C.ar      1 <0>         0.4005
     10 C6          2.3741    1.3570   -0.0252 C.ar      1 <0>        -0.1436
     11 C7          1.2077    2.1038    0.1513 C.ar      1 <0>        -0.0624
     12 C8         -0.0226    1.4191    0.3258 C.ar      1 <0>         0.1188
     13 C9         -0.0187    0.0187    0.3139 C.ar      1 <0>         0.2211
     14 N2         -1.1387    2.1421    0.4892 N.ar      1 <0>        -0.5230
     15 C10        -1.0975    3.4514    0.4983 C.ar      1 <0>         0.3817
     16 N3          0.0123    4.1557    0.3416 N.ar      1 <0>        -0.5467
     17 C11         1.1877    3.5633    0.1654 C.ar      1 <0>         0.4689
     18 N4          2.3439    4.2982    0.0016 N.pl3     1 <0>        -0.6096
     19 C12         2.2788    5.6909   -0.0963 C.ar      1 <0>         0.1288
     20 C13         3.3152    6.4728    0.3986 C.ar      1 <0>        -0.1184
     21 C14         3.2482    7.8486    0.3005 C.ar      1 <0>        -0.0896
     22 C15         2.1512    8.4488   -0.2901 C.ar      1 <0>        -0.0885
     23 C16         1.1172    7.6736   -0.7841 C.ar      1 <0>        -0.0736
     24 C17         1.1807    6.2959   -0.6937 C.ar      1 <0>        -0.0785
     25 Br1        -0.3806    8.4993   -1.5908 Br        1 <0>        -0.0289
     26 H2          3.2035   -2.5246   -1.3543 H         1 <0>         0.0847
     27 H3          4.2368   -2.7034    0.0840 H         1 <0>         0.1103
     28 H4          2.4693   -2.5967    0.2656 H         1 <0>         0.0698
     29 H5          5.4010   -0.7263   -0.9036 H         1 <0>         0.1143
     30 H6          4.6217    0.8607   -0.6972 H         1 <0>         0.1028
     31 H7          7.3748    0.2080    0.4896 H         1 <0>         0.0582
     32 H8          6.4590    1.7303    0.5996 H         1 <0>         0.0578
     33 H9          7.9658    1.4636    2.4338 H         1 <0>         0.3912
     34 H10         6.2114   -1.8509    1.1105 H         1 <0>         0.3795
     35 H11         3.3282    1.8444   -0.1612 H         1 <0>         0.1774
     36 H12        -0.9429   -0.5245    0.4447 H         1 <0>         0.2175
     37 H13        -2.0243    3.9880    0.6378 H         1 <0>         0.2193
     38 H14         3.2020    3.8483   -0.0455 H         1 <0>         0.4255
     39 H15         4.1723    6.0050    0.8601 H         1 <0>         0.1353
     40 H16         4.0536    8.4565    0.6852 H         1 <0>         0.1442
     41 H17         2.1017    9.5250   -0.3661 H         1 <0>         0.1419
     42 H18         0.3756    5.6907   -1.0834 H         1 <0>         0.1477
     43 N5          1.1062   -0.7218    0.1430 N.ar      1 <0>        -0.4971
     44 H19         1.0828   -1.7483    0.1378 H         1 <0>         0.4744
@<TRIPOS>BOND
     1    1    2 1
     2    1   26 1
     3    1   27 1
     4    1   28 1
     5    2    3 1
     6    2    9 1
     7    3    4 1
     8    3   29 1
     9    3   30 1
    10    4    5 1
    11    4    6 1
    12    4    8 1
    13    6    7 1
    14    6   31 1
    15    6   32 1
    16    7   33 1
    17    8   34 1
    18    9   10 ar
    19    9   43 ar
    20   10   11 ar
    21   10   35 1
    22   11   17 ar
    23   11   12 ar
    24   12   13 ar
    25   12   14 ar
    26   13   36 1
    27   13   43 ar
    28   14   15 ar
    29   15   16 ar
    30   15   37 1
    31   16   17 ar
    32   17   18 1
    33   18   19 1
    34   18   38 1
    35   19   24 ar
    36   19   20 ar
    37   20   21 ar
    38   20   39 1
    39   21   22 ar
    40   21   40 1
    41   22   23 ar
    42   22   41 1
    43   23   24 ar
    44   23   25 1
    45   24   42 1
    46   43   44 1
@<TRIPOS>MOLECULE
ZINC03815064
   38    40     0     0     0
SMALL
USER_CHARGES

@<TRIPOS>ATOM
      1 C1          2.1576    5.6966    0.3943 C.ar      1 <0>        -0.0918
      2 C2          2.2602    4.3225    0.4909 C.ar      1 <0>        -0.0840
      3 C3          3.3215    3.6622   -0.1146 C.ar      1 <0>         0.1316
      4 C4          4.2799    4.3869   -0.8116 C.ar      1 <0>        -0.1061
      5 C5          4.1693    5.7608   -0.9084 C.ar      1 <0>        -0.0750
      6 C6          3.1101    6.4152   -0.3040 C.ar      1 <0>        -0.0884
      7 Br1         5.4699    6.7485   -1.8618 Br        1 <0>        -0.0331
      8 N1          3.4281    2.2717   -0.0180 N.pl3     1 <0>        -0.6174
      9 C7          2.2914    1.4919   -0.0148 C.ar      1 <0>         0.5189
     10 C8          2.3670    0.0967    0.2030 C.ar      1 <0>        -0.2632
     11 C9          3.5749   -0.5691    0.4254 C.ar      1 <0>         0.2569
     12 C10         2.4714   -2.6007    0.6198 C.ar      1 <0>         0.4368
     13 C11         1.2297   -2.0296    0.4088 C.ar      1 <0>        -0.1878
     14 C12         1.1579   -0.6486    0.1936 C.ar      1 <0>         0.2972
     15 N2          0.0031   -0.0057   -0.0199 N.ar      1 <0>        -0.5501
     16 C13        -0.0055    1.2929   -0.2168 C.ar      1 <0>         0.4176
     17 N3          1.0938    2.0290   -0.2171 N.ar      1 <0>        -0.5858
     18 N4          2.5604   -3.9699    0.8350 N.pl3     1 <0>        -0.6885
     19 C14         1.3474   -4.7915    0.8366 C.3       1 <0>         0.1198
     20 C15         1.7214   -6.2525    1.0942 C.3       1 <0>        -0.1745
     21 C16         0.4737   -7.0977    1.0959 C.2       1 <0>         0.4644
     22 O1         -0.6041   -6.5841    0.9100 O.co2     1 <0>        -0.6330
     23 H1          1.3324    6.2103    0.8651 H         1 <0>         0.1430
     24 H2          1.5156    3.7620    1.0367 H         1 <0>         0.1431
     25 H3          5.1086    3.8769   -1.2801 H         1 <0>         0.1380
     26 H4          3.0277    7.4896   -0.3777 H         1 <0>         0.1404
     27 H5          4.3020    1.8556    0.0467 H         1 <0>         0.4234
     28 H6          4.5023   -0.0157    0.4358 H         1 <0>         0.1933
     29 H7          0.3358   -2.6356    0.4097 H         1 <0>         0.1962
     30 H8         -0.9528    1.7814   -0.3908 H         1 <0>         0.2184
     31 H9          3.4256   -4.3822    0.9842 H         1 <0>         0.4146
     32 H10         0.6748   -4.4448    1.6211 H         1 <0>         0.0944
     33 H11         0.8511   -4.7086   -0.1303 H         1 <0>         0.0944
     34 H12         2.3940   -6.5992    0.3097 H         1 <0>         0.0778
     35 H13         2.2177   -6.3354    2.0612 H         1 <0>         0.0778
     36 N5          3.6579   -1.9077    0.6354 N.ar      1 <0>        -0.5396
     37 H14         4.5572   -2.3762    0.7969 H         1 <0>         0.4713
     38 O2          0.5597   -8.4210    1.3038 O.co2     1 <0>        -0.7509
@<TRIPOS>BOND
     1    1    6 ar
     2    1    2 ar
     3    1   23 1
     4    2    3 ar
     5    2   24 1
     6    3    4 ar
     7    3    8 1
     8    4    5 ar
     9    4   25 1
    10    5    6 ar
    11    5    7 1
    12    6   26 1
    13    8    9 1
    14    8   27 1
    15    9   17 ar
    16    9   10 ar
    17   10   14 ar
    18   10   11 ar
    19   11   28 1
    20   11   36 ar
    21   12   13 ar
    22   12   18 1
    23   12   36 ar
    24   13   14 ar
    25   13   29 1
    26   14   15 ar
    27   15   16 ar
    28   16   17 ar
    29   16   30 1
    30   18   19 1
    31   18   31 1
    32   19   20 1
    33   19   32 1
    34   19   33 1
    35   20   21 1
    36   20   34 1
    37   20   35 1
    38   21   22 2
    39   21   38 1
    40   36   37 1
@<TRIPOS>MOLECULE
ZINC03815065
   50    53     0     0     0
SMALL
USER_CHARGES

@<TRIPOS>ATOM
      1 C1          4.0877   -4.5419    0.2273 C.ar      1 <0>        -0.0889
      2 C2          2.8497   -3.9414    0.3484 C.ar      1 <0>        -0.1182
      3 C3          2.6507   -2.6577   -0.1435 C.ar      1 <0>         0.1194
      4 C4          3.6968   -1.9837   -0.7607 C.ar      1 <0>        -0.0775
      5 C5          4.9342   -2.5880   -0.8745 C.ar      1 <0>        -0.0735
      6 C6          5.1286   -3.8672   -0.3832 C.ar      1 <0>        -0.0830
      7 Br1         6.3610   -1.6696   -1.7092 Br        1 <0>        -0.0207
      8 N1          1.3990   -2.0477   -0.0227 N.pl3     1 <0>        -0.6062
      9 C7          1.3107   -0.6807    0.1420 C.ar      1 <0>         0.4683
     10 C8          0.0199    0.0007    0.1513 C.ar      1 <0>        -0.0734
     11 C9         -1.1978   -0.6656   -0.0016 C.ar      1 <0>        -0.1315
     12 C10        -2.3630    0.0813    0.0236 C.ar      1 <0>         0.3843
     13 C11        -1.2204    2.0754    0.3421 C.ar      1 <0>         0.2405
     14 C12         0.0114    1.4085    0.3253 C.ar      1 <0>         0.1340
     15 N2          1.1830    2.0416    0.4719 N.ar      1 <0>        -0.5194
     16 C13         2.3130    1.3790    0.4556 C.ar      1 <0>         0.3949
     17 N3          2.3967    0.0674    0.2979 N.ar      1 <0>        -0.5384
     18 N4         -3.5889   -0.5624   -0.1270 N.pl3     1 <0>        -0.7239
     19 C14        -3.6357   -2.0152   -0.3097 C.3       1 <0>         0.0911
     20 C15        -5.0914   -2.4649   -0.4496 C.3       1 <0>        -0.0175
     21 C16        -4.5342   -4.3111   -1.9153 C.3       1 <0>        -0.0466
     22 C17        -4.5502   -5.8371   -2.0383 C.3       1 <0>         0.0339
     23 O1         -5.8948   -6.3067   -1.9085 O.3       1 <0>        -0.3506
     24 C18        -6.5137   -5.9458   -0.6707 C.3       1 <0>         0.0332
     25 C19        -6.5176   -4.4209   -0.5339 C.3       1 <0>        -0.0381
     26 H1          4.2427   -5.5400    0.6097 H         1 <0>         0.1459
     27 H2          2.0373   -4.4693    0.8254 H         1 <0>         0.1333
     28 H3          3.5442   -0.9870   -1.1479 H         1 <0>         0.1471
     29 H4          6.0953   -4.3394   -0.4772 H         1 <0>         0.1449
     30 H5          0.5923   -2.5855   -0.0548 H         1 <0>         0.4222
     31 H6         -1.2297   -1.7368   -0.1359 H         1 <0>         0.1747
     32 H7         -1.2521    3.1469    0.4732 H         1 <0>         0.2250
     33 H8          3.2303    1.9357    0.5779 H         1 <0>         0.2256
     34 H9         -4.4116   -0.0488   -0.1109 H         1 <0>         0.4241
     35 H10        -3.0837   -2.2862   -1.2097 H         1 <0>         0.1013
     36 H11        -3.1856   -2.5047    0.5539 H         1 <0>         0.1023
     37 H12        -5.6435   -2.1939    0.4503 H         1 <0>         0.1453
     38 H13        -5.5416   -1.9754   -1.3132 H         1 <0>         0.1461
     39 H14        -5.1053   -3.8740   -2.7343 H         1 <0>         0.1463
     40 H15        -3.5054   -3.9534   -1.9564 H         1 <0>         0.1382
     41 H16        -3.9351   -6.2722   -1.2506 H         1 <0>         0.0839
     42 H17        -4.1552   -6.1286   -3.0115 H         1 <0>         0.1460
     43 H18        -5.9557   -6.3840    0.1567 H         1 <0>         0.0849
     44 H19        -7.5391   -6.3152   -0.6552 H         1 <0>         0.1481
     45 H20        -6.9367   -4.1434    0.4333 H         1 <0>         0.1457
     46 H21        -7.1204   -3.9855   -1.3309 H         1 <0>         0.1454
     47 N5         -2.4118    1.4432    0.1898 N.ar      1 <0>        -0.4868
     48 H22        -3.3014    1.9559    0.1983 H         1 <0>         0.4811
     49 N6         -5.1244   -3.9344   -0.6134 N.4       1 <0>        -0.3930
     50 H23        -4.5762   -4.3665    0.1396 H         1 <0>         0.4301
@<TRIPOS>BOND
     1    1    6 ar
     2    1    2 ar
     3    1   26 1
     4    2    3 ar
     5    2   27 1
     6    3    4 ar
     7    3    8 1
     8    4    5 ar
     9    4   28 1
    10    5    6 ar
    11    5    7 1
    12    6   29 1
    13    8    9 1
    14    8   30 1
    15    9   17 ar
    16    9   10 ar
    17   10   14 ar
    18   10   11 ar
    19   11   12 ar
    20   11   31 1
    21   12   18 1
    22   12   47 ar
    23   13   14 ar
    24   13   32 1
    25   13   47 ar
    26   14   15 ar
    27   15   16 ar
    28   16   17 ar
    29   16   33 1
    30   18   19 1
    31   18   34 1
    32   19   20 1
    33   19   35 1
    34   19   36 1
    35   20   37 1
    36   20   38 1
    37   20   49 1
    38   21   22 1
    39   21   39 1
    40   21   40 1
    41   21   49 1
    42   22   23 1
    43   22   41 1
    44   22   42 1
    45   23   24 1
    46   24   25 1
    47   24   43 1
    48   24   44 1
    49   25   45 1
    50   25   46 1
    51   25   49 1
    52   47   48 1
    53   49   50 1
@<TRIPOS>MOLECULE
ZINC03815066
   40    42     0     0     0
SMALL
USER_CHARGES

@<TRIPOS>ATOM
      1 C1         -6.5500    2.0923    2.1120 C.3       1 <0>         0.0191
      2 O1         -5.3729    2.2322    1.3138 O.3       1 <0>        -0.2965
      3 C2         -4.2673    1.5563    1.7216 C.ar      1 <0>         0.1730
      4 C3         -4.3241    0.7814    2.8614 C.ar      1 <0>        -0.2095
      5 C4         -3.1878    0.0845    3.2846 C.ar      1 <0>         0.2368
      6 C5         -1.9881    0.1825    2.5358 C.ar      1 <0>        -0.2303
      7 C6         -1.9491    0.9765    1.3784 C.ar      1 <0>         0.1598
      8 C7         -3.0832    1.6601    0.9848 C.ar      1 <0>         0.0440
      9 O2         -3.0498    2.4359   -0.1332 O.3       1 <0>        -0.3164
     10 C8         -3.4276    1.8164   -1.3643 C.3       1 <0>         0.0353
     11 O3         -0.8036    1.0762    0.6546 O.3       1 <0>        -0.3287
     12 C9          0.0302    2.2078    0.9123 C.3       1 <0>         0.0183
     13 C10        -0.8578   -0.5345    2.9888 C.ar      1 <0>         0.4813
     14 N1         -0.9766   -1.2630    4.0919 N.ar      1 <0>        -0.5887
     15 C11        -2.1174   -1.3254    4.7599 C.ar      1 <0>         0.3602
     16 N2         -3.1982   -0.6822    4.3873 N.ar      1 <0>        -0.5498
     17 N3          0.3385   -0.4790    2.3018 N.pl3     1 <0>        -0.6323
     18 C12         1.4086   -1.2876    2.6954 C.ar      1 <0>         0.1554
     19 C13         2.7140   -0.8358    2.5468 C.ar      1 <0>        -0.1332
     20 C14         3.7692   -1.6367    2.9364 C.ar      1 <0>        -0.0914
     21 C15         3.5282   -2.8876    3.4746 C.ar      1 <0>        -0.1071
     22 C16         2.2296   -3.3408    3.6247 C.ar      1 <0>        -0.0705
     23 C17         1.1690   -2.5420    3.2411 C.ar      1 <0>        -0.0850
     24 Br1         1.9054   -5.0518    4.3618 Br        1 <0>        -0.0440
     25 H1         -6.3473    2.4452    3.1232 H         1 <0>         0.0640
     26 H2         -7.3566    2.6819    1.6763 H         1 <0>         0.1084
     27 H3         -6.8438    1.0432    2.1454 H         1 <0>         0.0633
     28 H4         -5.2429    0.7129    3.4249 H         1 <0>         0.1559
     29 H5         -2.7281    1.0135   -1.5967 H         1 <0>         0.0498
     30 H6         -4.4333    1.4064   -1.2711 H         1 <0>         0.0490
     31 H7         -3.4098    2.5568   -2.1641 H         1 <0>         0.0979
     32 H8         -0.5074    3.1209    0.6568 H         1 <0>         0.0712
     33 H9          0.9348    2.1376    0.3083 H         1 <0>         0.1089
     34 H10         0.2991    2.2280    1.9684 H         1 <0>         0.0529
     35 H11        -2.1606   -1.9334    5.6515 H         1 <0>         0.2012
     36 H12         0.4363    0.1211    1.5461 H         1 <0>         0.4269
     37 H13         2.9033    0.1409    2.1265 H         1 <0>         0.1299
     38 H14         4.7840   -1.2857    2.8209 H         1 <0>         0.1375
     39 H15         4.3554   -3.5118    3.7789 H         1 <0>         0.1348
     40 H16         0.1553   -2.8943    3.3621 H         1 <0>         0.1486
@<TRIPOS>BOND
     1    1    2 1
     2    1   25 1
     3    1   26 1
     4    1   27 1
     5    2    3 1
     6    3    8 ar
     7    3    4 ar
     8    4    5 ar
     9    4   28 1
    10    5   16 ar
    11    5    6 ar
    12    6    7 ar
    13    6   13 ar
    14    7    8 ar
    15    7   11 1
    16    8    9 1
    17    9   10 1
    18   10   29 1
    19   10   30 1
    20   10   31 1
    21   11   12 1
    22   12   32 1
    23   12   33 1
    24   12   34 1
    25   13   14 ar
    26   13   17 1
    27   14   15 ar
    28   15   16 ar
    29   15   35 1
    30   17   18 1
    31   17   36 1
    32   18   23 ar
    33   18   19 ar
    34   19   20 ar
    35   19   37 1
    36   20   21 ar
    37   20   38 1
    38   21   22 ar
    39   21   39 1
    40   22   23 ar
    41   22   24 1
    42   23   40 1
@<TRIPOS>MOLECULE
ZINC03815067
   46    49     0     0     0
SMALL
USER_CHARGES

@<TRIPOS>ATOM
      1 C1         -0.5284   -0.0684   -0.3144 C.3       1 <0>        -0.0422
      2 C2         -0.9082    2.0224    0.8462 C.3       1 <0>         0.0807
      3 C3         -1.8109    2.5593   -0.2344 C.2       1 <0>        -0.2483
      4 C4         -1.4444    2.9214   -1.4720 C.2       1 <0>         0.1356
      5 N1         -2.5346    3.3593   -2.1777 N.pl3     1 <0>        -0.5963
      6 H1         -2.5153    3.6708   -3.0961 H         1 <0>         0.4295
      7 C5         -3.6621    3.2968   -1.3863 C.ar      1 <0>         0.1528
      8 C6         -3.2563    2.7907   -0.1286 C.ar      1 <0>        -0.0991
      9 C7         -4.1792    2.6118    0.8918 C.ar      1 <0>        -0.0319
     10 C8         -5.5167    2.9359    0.6685 C.ar      1 <0>        -0.1911
     11 C9         -5.9260    3.4441   -0.5931 C.ar      1 <0>         0.2035
     12 C10        -4.9873    3.6194   -1.6116 C.ar      1 <0>        -0.1220
     13 N2         -7.2235    3.7458   -0.7738 N.ar      1 <0>        -0.5500
     14 C11        -8.0886    3.5731    0.1958 C.ar      1 <0>         0.3570
     15 N3         -7.7534    3.1027    1.3873 N.ar      1 <0>        -0.5870
     16 C12        -6.5017    2.7727    1.6752 C.ar      1 <0>         0.4781
     17 N4         -6.1669    2.2843    2.9209 N.pl3     1 <0>        -0.6345
     18 C13        -7.1680    2.0171    3.8590 C.ar      1 <0>         0.1533
     19 C14        -8.3997    1.5274    3.4425 C.ar      1 <0>        -0.0904
     20 C15        -9.3867    1.2639    4.3715 C.ar      1 <0>        -0.0929
     21 C16        -9.1506    1.4864    5.7158 C.ar      1 <0>        -0.1003
     22 C17        -7.9253    1.9740    6.1345 C.ar      1 <0>        -0.0719
     23 C18        -6.9317    2.2352    5.2100 C.ar      1 <0>        -0.1161
     24 Br1        -7.6073    2.2760    7.9740 Br        1 <0>        -0.0421
     25 C19        -0.3606    0.0242    2.0993 C.3       1 <0>        -0.0529
     26 C20        -0.7176   -1.4302    2.2674 C.2       1 <0>         0.4509
     27 O1         -1.4603   -1.9650    1.4786 O.co2     1 <0>        -0.6190
     28 H2         -0.7005   -1.1438   -0.2696 H         1 <0>         0.1398
     29 H3          0.5405    0.1251   -0.4046 H         1 <0>         0.1091
     30 H4         -1.0469    0.3469   -1.1786 H         1 <0>         0.1049
     31 H5         -1.1921    2.4555    1.8054 H         1 <0>         0.1267
     32 H6          0.1252    2.2855    0.6204 H         1 <0>         0.1321
     33 H7         -0.4367    2.8730   -1.8577 H         1 <0>         0.1853
     34 H8         -3.8646    2.2248    1.8498 H         1 <0>         0.1281
     35 H9         -5.2954    4.0052   -2.5721 H         1 <0>         0.1442
     36 H10        -9.1226    3.8267    0.0146 H         1 <0>         0.1994
     37 H11        -5.2367    2.1261    3.1459 H         1 <0>         0.4209
     38 H12        -8.5851    1.3532    2.3928 H         1 <0>         0.1411
     39 H13       -10.3442    0.8832    4.0479 H         1 <0>         0.1381
     40 H14        -9.9241    1.2788    6.4404 H         1 <0>         0.1360
     41 H15        -5.9738    2.6116    5.5375 H         1 <0>         0.1348
     42 H16         0.7182    0.1217    1.9773 H         1 <0>         0.1326
     43 H17        -0.6783    0.5806    2.9810 H         1 <0>         0.1281
     44 N5         -1.0661    0.5543    0.9135 N.4       1 <0>        -0.3765
     45 H18        -2.0649    0.3295    0.9915 H         1 <0>         0.4274
     46 O2         -0.2106   -2.1315    3.2935 O.co2     1 <0>        -0.7056
@<TRIPOS>BOND
     1    1   28 1
     2    1   29 1
     3    1   30 1
     4    1   44 1
     5    2    3 1
     6    2   31 1
     7    2   32 1
     8    2   44 1
     9    3    8 1
    10    3    4 2
    11    4    5 1
    12    4   33 1
    13    5    6 1
    14    5    7 1
    15    7   12 ar
    16    7    8 ar
    17    8    9 ar
    18    9   10 ar
    19    9   34 1
    20   10   16 ar
    21   10   11 ar
    22   11   12 ar
    23   11   13 ar
    24   12   35 1
    25   13   14 ar
    26   14   15 ar
    27   14   36 1
    28   15   16 ar
    29   16   17 1
    30   17   18 1
    31   17   37 1
    32   18   23 ar
    33   18   19 ar
    34   19   20 ar
    35   19   38 1
    36   20   21 ar
    37   20   39 1
    38   21   22 ar
    39   21   40 1
    40   22   23 ar
    41   22   24 1
    42   23   41 1
    43   25   26 1
    44   25   42 1
    45   25   43 1
    46   25   44 1
    47   26   27 2
    48   26   46 1
    49   44   45 1
@<TRIPOS>MOLECULE
ZINC03815068
   53    56     0     0     0
SMALL
USER_CHARGES

@<TRIPOS>ATOM
      1 C1          2.1576    5.6966    0.3943 C.ar      1 <0>        -0.0915
      2 C2          2.2602    4.3225    0.4909 C.ar      1 <0>        -0.0824
      3 C3          3.3215    3.6622   -0.1146 C.ar      1 <0>         0.1208
      4 C4          4.2799    4.3869   -0.8116 C.ar      1 <0>        -0.1020
      5 C5          4.1693    5.7608   -0.9084 C.ar      1 <0>        -0.0755
      6 C6          3.1101    6.4152   -0.3040 C.ar      1 <0>        -0.0825
      7 Br1         5.4699    6.7485   -1.8618 Br        1 <0>        -0.0265
      8 N1          3.4281    2.2717   -0.0180 N.pl3     1 <0>        -0.6079
      9 C7          2.2914    1.4919   -0.0148 C.ar      1 <0>         0.5206
     10 C8          2.3670    0.0967    0.2030 C.ar      1 <0>        -0.2632
     11 C9          3.5749   -0.5691    0.4254 C.ar      1 <0>         0.2680
     12 C10         2.4714   -2.6007    0.6198 C.ar      1 <0>         0.4369
     13 C11         1.2297   -2.0296    0.4088 C.ar      1 <0>        -0.1939
     14 C12         1.1579   -0.6486    0.1936 C.ar      1 <0>         0.3058
     15 N2          0.0031   -0.0057   -0.0199 N.ar      1 <0>        -0.5563
     16 C13        -0.0055    1.2929   -0.2168 C.ar      1 <0>         0.4282
     17 N3          1.0938    2.0290   -0.2171 N.ar      1 <0>        -0.5807
     18 N4          2.5604   -3.9699    0.8350 N.pl3     1 <0>        -0.7049
     19 C14         1.3474   -4.7915    0.8366 C.3       1 <0>         0.1132
     20 C15         1.7214   -6.2525    1.0942 C.3       1 <0>        -0.1465
     21 C16         0.4547   -7.1106    1.0959 C.3       1 <0>         0.0230
     22 N5          0.8138   -8.5133    1.3433 N.4       1 <0>        -0.1186
     23 C17         1.8121   -8.9451    0.3554 C.3       1 <0>        -0.0222
     24 C18         2.1845  -10.4069    0.6153 C.3       1 <0>         0.0544
     25 O1          1.0040  -11.2122    0.5559 O.3       1 <0>        -0.3754
     26 C19        -0.0089  -10.8151    1.4844 C.3       1 <0>         0.0544
     27 C20        -0.3856   -9.3541    1.2260 C.3       1 <0>        -0.0167
     28 O2          1.3714   -8.6440    2.6895 O.3       1 <0>        -0.6378
     29 H1          1.3324    6.2103    0.8651 H         1 <0>         0.1449
     30 H2          1.5156    3.7620    1.0367 H         1 <0>         0.1420
     31 H3          5.1086    3.8769   -1.2801 H         1 <0>         0.1390
     32 H4          3.0277    7.4896   -0.3777 H         1 <0>         0.1431
     33 H5          4.3020    1.8556    0.0467 H         1 <0>         0.4246
     34 H6          4.5023   -0.0157    0.4358 H         1 <0>         0.1974
     35 H7          0.3357   -2.6355    0.4104 H         1 <0>         0.1905
     36 H8         -0.9528    1.7814   -0.3908 H         1 <0>         0.2219
     37 H9          3.4256   -4.3822    0.9842 H         1 <0>         0.4189
     38 H10         0.6748   -4.4448    1.6211 H         1 <0>         0.0944
     39 H11         0.8511   -4.7086   -0.1303 H         1 <0>         0.0917
     40 H12         2.3940   -6.5992    0.3097 H         1 <0>         0.0843
     41 H13         2.2177   -6.3354    2.0612 H         1 <0>         0.1060
     42 H14        -0.2180   -6.7639    1.8805 H         1 <0>         0.1130
     43 H15        -0.0416   -7.0276    0.1290 H         1 <0>         0.0945
     44 H16         1.3964   -8.8487   -0.6476 H         1 <0>         0.0966
     45 H17         2.7022   -8.3221    0.4418 H         1 <0>         0.1122
     46 H18         2.6373  -10.4970    1.6027 H         1 <0>         0.0823
     47 H19         2.8929  -10.7429   -0.1420 H         1 <0>         0.1131
     48 H20         0.3688  -10.9192    2.5016 H         1 <0>         0.0835
     49 H21        -0.8883  -11.4460    1.3557 H         1 <0>         0.1162
     50 H22        -1.1267   -9.0347    1.9587 H         1 <0>         0.1164
     51 H23        -0.8008   -9.2574    0.2229 H         1 <0>         0.0980
     52 N6          3.6579   -1.9077    0.6354 N.ar      1 <0>        -0.5394
     53 H24         4.5572   -2.3762    0.7969 H         1 <0>         0.4738
@<TRIPOS>BOND
     1    1    6 ar
     2    1    2 ar
     3    1   29 1
     4    2    3 ar
     5    2   30 1
     6    3    4 ar
     7    3    8 1
     8    4    5 ar
     9    4   31 1
    10    5    6 ar
    11    5    7 1
    12    6   32 1
    13    8    9 1
    14    8   33 1
    15    9   17 ar
    16    9   10 ar
    17   10   14 ar
    18   10   11 ar
    19   11   34 1
    20   11   52 ar
    21   12   13 ar
    22   12   18 1
    23   12   52 ar
    24   13   14 ar
    25   13   35 1
    26   14   15 ar
    27   15   16 ar
    28   16   17 ar
    29   16   36 1
    30   18   19 1
    31   18   37 1
    32   19   20 1
    33   19   38 1
    34   19   39 1
    35   20   21 1
    36   20   40 1
    37   20   41 1
    38   21   22 1
    39   21   42 1
    40   21   43 1
    41   22   27 1
    42   22   23 1
    43   22   28 1
    44   23   24 1
    45   23   44 1
    46   23   45 1
    47   24   25 1
    48   24   46 1
    49   24   47 1
    50   25   26 1
    51   26   27 1
    52   26   48 1
    53   26   49 1
    54   27   50 1
    55   27   51 1
    56   52   53 1
@<TRIPOS>MOLECULE
ZINC03815069
   31    33     0     0     0
SMALL
USER_CHARGES

@<TRIPOS>ATOM
      1 C1          8.2860    6.3392   -0.4854 C.3       1 <0>         0.1020
      2 N1          7.0618    5.5436   -0.3650 N.pl3     1 <0>        -0.6972
      3 C2          5.8277    6.1708   -0.3446 C.ar      1 <0>         0.5586
      4 N2          5.7831    7.4979   -0.4361 N.ar      1 <0>        -0.5241
      5 C3          4.6406    8.1522   -0.4224 C.ar      1 <0>         0.2528
      6 C4          3.4482    7.4139   -0.3077 C.ar      1 <0>         0.0303
      7 C5          3.5393    6.0050   -0.2074 C.ar      1 <0>         0.0847
      8 N3          4.7410    5.4294   -0.2348 N.ar      1 <0>        -0.5489
      9 C6          2.3353    5.2648   -0.0976 C.ar      1 <0>         0.4635
     10 N4          1.1907    5.9331   -0.0852 N.ar      1 <0>        -0.5529
     11 C7          1.1582    7.2532   -0.1771 C.ar      1 <0>         0.3252
     12 N5          2.2403    7.9882   -0.2853 N.ar      1 <0>        -0.5052
     13 N6          2.3547    3.8878   -0.0005 N.pl3     1 <0>        -0.6224
     14 C8          1.1558    3.1697   -0.0090 C.ar      1 <0>         0.1567
     15 C9          1.0435    1.9936    0.7223 C.ar      1 <0>        -0.1307
     16 C10        -0.1422    1.2859    0.7117 C.ar      1 <0>        -0.0913
     17 C11        -1.2160    1.7435   -0.0299 C.ar      1 <0>        -0.1064
     18 C12        -1.1098    2.9171   -0.7551 C.ar      1 <0>        -0.0704
     19 C13         0.0743    3.6300   -0.7486 C.ar      1 <0>        -0.0863
     20 Br1        -2.5833    3.5419   -1.7622 Br        1 <0>        -0.0434
     21 H1          8.3551    7.0292    0.3557 H         1 <0>         0.0624
     22 H2          9.1515    5.6767   -0.4839 H         1 <0>         0.0797
     23 H3          8.2621    6.9038   -1.4175 H         1 <0>         0.0624
     24 H4          7.1159    4.5773   -0.2995 H         1 <0>         0.4175
     25 H5          4.6191    9.2294   -0.4971 H         1 <0>         0.1941
     26 H6          0.1982    7.7477   -0.1620 H         1 <0>         0.2049
     27 H7          3.2005    3.4187    0.0736 H         1 <0>         0.4321
     28 H8          1.8828    1.6334    1.2987 H         1 <0>         0.1323
     29 H9         -0.2295    0.3715    1.2797 H         1 <0>         0.1376
     30 H10        -2.1409    1.1859   -0.0397 H         1 <0>         0.1350
     31 H11         0.1584    4.5436   -1.3184 H         1 <0>         0.1472
@<TRIPOS>BOND
     1    1    2 1
     2    1   21 1
     3    1   22 1
     4    1   23 1
     5    2    3 1
     6    2   24 1
     7    3    8 ar
     8    3    4 ar
     9    4    5 ar
    10    5    6 ar
    11    5   25 1
    12    6   12 ar
    13    6    7 ar
    14    7    8 ar
    15    7    9 ar
    16    9   10 ar
    17    9   13 1
    18   10   11 ar
    19   11   12 ar
    20   11   26 1
    21   13   14 1
    22   13   27 1
    23   14   19 ar
    24   14   15 ar
    25   15   16 ar
    26   15   28 1
    27   16   17 ar
    28   16   29 1
    29   17   18 ar
    30   17   30 1
    31   18   19 ar
    32   18   20 1
    33   19   31 1
@<TRIPOS>MOLECULE
ZINC03815070
   31    33     0     0     0
SMALL
USER_CHARGES

@<TRIPOS>ATOM
      1 C1          8.2851    6.3305   -0.4872 C.3       1 <0>         0.0845
      2 N1          7.0693    5.5221   -0.3658 N.pl3     1 <0>        -0.7108
      3 C2          5.8253    6.1383   -0.3437 C.ar      1 <0>         0.3569
      4 C3          5.7377    7.5374   -0.4380 C.ar      1 <0>         0.1020
      5 N2          4.5698    8.1376   -0.4192 N.ar      1 <0>        -0.3903
      6 C4          3.4529    7.4117   -0.3088 C.ar      1 <0>         0.2726
      7 C5          3.5407    6.0030   -0.2074 C.ar      1 <0>         0.0054
      8 N3          4.7321    5.4054   -0.2336 N.ar      1 <0>        -0.4829
      9 C6          2.3354    5.2642   -0.0975 C.ar      1 <0>         0.4788
     10 N4          1.1895    5.9312   -0.0850 N.ar      1 <0>        -0.5657
     11 C7          1.1583    7.2504   -0.1774 C.ar      1 <0>         0.3499
     12 N5          2.2410    7.9837   -0.2860 N.ar      1 <0>        -0.5145
     13 N6          2.3548    3.8878   -0.0005 N.pl3     1 <0>        -0.6216
     14 C8          1.1558    3.1697   -0.0089 C.ar      1 <0>         0.1565
     15 C9          0.0739    3.6299   -0.7494 C.ar      1 <0>        -0.0963
     16 C10        -1.1096    2.9186   -0.7556 C.ar      1 <0>        -0.0918
     17 C11        -1.2210    1.7518   -0.0216 C.ar      1 <0>        -0.1042
     18 C12        -0.1442    1.2876    0.7128 C.ar      1 <0>        -0.0708
     19 C13         1.0431    1.9949    0.7231 C.ar      1 <0>        -0.1184
     20 Br1        -0.2995   -0.3122    1.7091 Br        1 <0>        -0.0445
     21 H1          8.3480    7.0207    0.3541 H         1 <0>         0.0643
     22 H2          9.1575    5.6770   -0.4870 H         1 <0>         0.0889
     23 H3          8.2543    6.8953   -1.4190 H         1 <0>         0.0643
     24 H4          7.1335    4.5565   -0.3009 H         1 <0>         0.4120
     25 H5          6.6395    8.1248   -0.5273 H         1 <0>         0.1834
     26 H6          0.1989    7.7461   -0.1623 H         1 <0>         0.2092
     27 H7          3.2005    3.4187    0.0736 H         1 <0>         0.4313
     28 H8          0.1587    4.5429   -1.3200 H         1 <0>         0.1436
     29 H9         -1.9508    3.2763   -1.3308 H         1 <0>         0.1379
     30 H10        -2.1493    1.1999   -0.0246 H         1 <0>         0.1352
     31 H11         1.8821    1.6348    1.3000 H         1 <0>         0.1350
@<TRIPOS>BOND
     1    1    2 1
     2    1   21 1
     3    1   22 1
     4    1   23 1
     5    2    3 1
     6    2   24 1
     7    3    8 ar
     8    3    4 ar
     9    4    5 ar
    10    4   25 1
    11    5    6 ar
    12    6   12 ar
    13    6    7 ar
    14    7    8 ar
    15    7    9 ar
    16    9   10 ar
    17    9   13 1
    18   10   11 ar
    19   11   12 ar
    20   11   26 1
    21   13   14 1
    22   13   27 1
    23   14   19 ar
    24   14   15 ar
    25   15   16 ar
    26   15   28 1
    27   16   17 ar
    28   16   29 1
    29   17   18 ar
    30   17   30 1
    31   18   19 ar
    32   18   20 1
    33   19   31 1
@<TRIPOS>MOLECULE
ZINC03815071
   43    46     0     0     0
SMALL
USER_CHARGES

@<TRIPOS>ATOM
      1 C1          4.0877   -4.5419    0.2273 C.ar      1 <0>        -0.0901
      2 C2          2.8497   -3.9414    0.3484 C.ar      1 <0>        -0.1181
      3 C3          2.6507   -2.6577   -0.1435 C.ar      1 <0>         0.1298
      4 C4          3.6968   -1.9837   -0.7607 C.ar      1 <0>        -0.0784
      5 C5          4.9342   -2.5880   -0.8745 C.ar      1 <0>        -0.0737
      6 C6          5.1286   -3.8672   -0.3832 C.ar      1 <0>        -0.0890
      7 Br1         6.3610   -1.6696   -1.7092 Br        1 <0>        -0.0296
      8 N1          1.3990   -2.0477   -0.0227 N.pl3     1 <0>        -0.6087
      9 C7          1.3107   -0.6807    0.1420 C.ar      1 <0>         0.4695
     10 C8          0.0199    0.0007    0.1513 C.ar      1 <0>        -0.0640
     11 C9         -1.1978   -0.6656   -0.0016 C.ar      1 <0>        -0.1368
     12 C10        -2.3630    0.0813    0.0236 C.ar      1 <0>         0.4033
     13 C11        -1.2204    2.0754    0.3421 C.ar      1 <0>         0.2198
     14 C12         0.0114    1.4085    0.3253 C.ar      1 <0>         0.1186
     15 N2          1.1830    2.0416    0.4719 N.ar      1 <0>        -0.5248
     16 C13         2.3130    1.3790    0.4556 C.ar      1 <0>         0.3816
     17 N3          2.3967    0.0674    0.2979 N.ar      1 <0>        -0.5487
     18 N4         -3.5889   -0.5624   -0.1270 N.pl3     1 <0>        -0.7079
     19 C14        -3.6357   -2.0152   -0.3097 C.3       1 <0>         0.1160
     20 C15        -5.0914   -2.4649   -0.4496 C.3       1 <0>        -0.0395
     21 C16        -5.1396   -3.9594   -0.6376 C.2       1 <0>        -0.0176
     22 C17        -5.8397   -4.8295    0.1150 C.2       1 <0>        -0.0350
     23 N5         -5.6033   -6.0763   -0.3980 N.pl3     1 <0>        -0.5685
     24 H1         -5.9799   -6.9385   -0.0593 H         1 <0>         0.4338
     25 C18        -4.7665   -5.9246   -1.4470 C.2       1 <0>         0.1980
     26 N6         -4.4974   -4.6554   -1.5874 N.2       1 <0>        -0.4933
     27 H2          4.2427   -5.5400    0.6097 H         1 <0>         0.1437
     28 H3          2.0373   -4.4693    0.8254 H         1 <0>         0.1353
     29 H4          3.5442   -0.9870   -1.1479 H         1 <0>         0.1479
     30 H5          6.0953   -4.3394   -0.4772 H         1 <0>         0.1415
     31 H6          0.5923   -2.5855   -0.0548 H         1 <0>         0.4275
     32 H7         -1.2297   -1.7368   -0.1359 H         1 <0>         0.1795
     33 H8         -1.2521    3.1469    0.4732 H         1 <0>         0.2168
     34 H9          3.2303    1.9357    0.5779 H         1 <0>         0.2185
     35 H10        -4.4116   -0.0488   -0.1109 H         1 <0>         0.4184
     36 H11        -3.0837   -2.2862   -1.2097 H         1 <0>         0.0944
     37 H12        -3.1856   -2.5047    0.5539 H         1 <0>         0.0839
     38 H13        -5.6435   -2.1939    0.4503 H         1 <0>         0.0875
     39 H14        -5.5416   -1.9754   -1.3132 H         1 <0>         0.0876
     40 H15        -6.4668   -4.5896    0.9610 H         1 <0>         0.1782
     41 H16        -4.3862   -6.7213   -2.0691 H         1 <0>         0.2122
     42 N7         -2.4118    1.4432    0.1898 N.ar      1 <0>        -0.4969
     43 H17        -3.3014    1.9559    0.1983 H         1 <0>         0.4773
@<TRIPOS>BOND
     1    1    6 ar
     2    1    2 ar
     3    1   27 1
     4    2    3 ar
     5    2   28 1
     6    3    4 ar
     7    3    8 1
     8    4    5 ar
     9    4   29 1
    10    5    6 ar
    11    5    7 1
    12    6   30 1
    13    8    9 1
    14    8   31 1
    15    9   17 ar
    16    9   10 ar
    17   10   14 ar
    18   10   11 ar
    19   11   12 ar
    20   11   32 1
    21   12   18 1
    22   12   42 ar
    23   13   14 ar
    24   13   33 1
    25   13   42 ar
    26   14   15 ar
    27   15   16 ar
    28   16   17 ar
    29   16   34 1
    30   18   19 1
    31   18   35 1
    32   19   20 1
    33   19   36 1
    34   19   37 1
    35   20   21 1
    36   20   38 1
    37   20   39 1
    38   21   26 1
    39   21   22 2
    40   22   23 1
    41   22   40 1
    42   23   24 1
    43   23   25 1
    44   25   26 2
    45   25   41 1
    46   42   43 1
@<TRIPOS>MOLECULE
ZINC03815071
   43    46     0     0     0
SMALL
USER_CHARGES

@<TRIPOS>ATOM
      1 C1          4.0877   -4.5419    0.2273 C.ar      1 <0>        -0.0901
      2 C2          2.8497   -3.9414    0.3484 C.ar      1 <0>        -0.1181
      3 C3          2.6507   -2.6577   -0.1435 C.ar      1 <0>         0.1298
      4 C4          3.6968   -1.9837   -0.7607 C.ar      1 <0>        -0.0784
      5 C5          4.9342   -2.5880   -0.8745 C.ar      1 <0>        -0.0737
      6 C6          5.1286   -3.8672   -0.3832 C.ar      1 <0>        -0.0890
      7 Br1         6.3610   -1.6696   -1.7092 Br        1 <0>        -0.0296
      8 N1          1.3990   -2.0477   -0.0227 N.pl3     1 <0>        -0.6087
      9 C7          1.3107   -0.6807    0.1420 C.ar      1 <0>         0.4695
     10 C8          0.0199    0.0007    0.1513 C.ar      1 <0>        -0.0640
     11 C9         -1.1978   -0.6656   -0.0016 C.ar      1 <0>        -0.1368
     12 C10        -2.3630    0.0813    0.0236 C.ar      1 <0>         0.4033
     13 C11        -1.2204    2.0754    0.3421 C.ar      1 <0>         0.2198
     14 C12         0.0114    1.4085    0.3253 C.ar      1 <0>         0.1186
     15 N2          1.1830    2.0416    0.4719 N.ar      1 <0>        -0.5248
     16 C13         2.3130    1.3790    0.4556 C.ar      1 <0>         0.3816
     17 N3          2.3967    0.0674    0.2979 N.ar      1 <0>        -0.5487
     18 N4         -3.5889   -0.5624   -0.1270 N.pl3     1 <0>        -0.7079
     19 C14        -3.6357   -2.0152   -0.3097 C.3       1 <0>         0.1160
     20 C15        -5.0914   -2.4649   -0.4496 C.3       1 <0>        -0.0395
     21 C16        -5.1396   -3.9594   -0.6376 C.2       1 <0>        -0.0176
     22 C17        -5.8397   -4.8295    0.1150 C.2       1 <0>        -0.0350
     23 N5         -5.6033   -6.0763   -0.3980 N.pl3     1 <0>        -0.5685
     24 H1         -5.9799   -6.9385   -0.0593 H         1 <0>         0.4338
     25 C18        -4.7665   -5.9246   -1.4470 C.2       1 <0>         0.1980
     26 N6         -4.4974   -4.6554   -1.5874 N.2       1 <0>        -0.4933
     27 H2          4.2427   -5.5400    0.6097 H         1 <0>         0.1437
     28 H3          2.0373   -4.4693    0.8254 H         1 <0>         0.1353
     29 H4          3.5442   -0.9870   -1.1479 H         1 <0>         0.1479
     30 H5          6.0953   -4.3394   -0.4772 H         1 <0>         0.1415
     31 H6          0.5923   -2.5855   -0.0548 H         1 <0>         0.4275
     32 H7         -1.2297   -1.7368   -0.1359 H         1 <0>         0.1795
     33 H8         -1.2521    3.1469    0.4732 H         1 <0>         0.2168
     34 H9          3.2303    1.9357    0.5779 H         1 <0>         0.2185
     35 H10        -4.4116   -0.0488   -0.1109 H         1 <0>         0.4184
     36 H11        -3.0837   -2.2862   -1.2097 H         1 <0>         0.0944
     37 H12        -3.1856   -2.5047    0.5539 H         1 <0>         0.0839
     38 H13        -5.6435   -2.1939    0.4503 H         1 <0>         0.0875
     39 H14        -5.5416   -1.9754   -1.3132 H         1 <0>         0.0876
     40 H15        -6.4668   -4.5896    0.9610 H         1 <0>         0.1782
     41 H16        -4.3862   -6.7213   -2.0691 H         1 <0>         0.2122
     42 N7         -2.4118    1.4432    0.1898 N.ar      1 <0>        -0.4969
     43 H17        -3.3014    1.9559    0.1983 H         1 <0>         0.4773
@<TRIPOS>BOND
     1    1    6 ar
     2    1    2 ar
     3    1   27 1
     4    2    3 ar
     5    2   28 1
     6    3    4 ar
     7    3    8 1
     8    4    5 ar
     9    4   29 1
    10    5    6 ar
    11    5    7 1
    12    6   30 1
    13    8    9 1
    14    8   31 1
    15    9   17 ar
    16    9   10 ar
    17   10   14 ar
    18   10   11 ar
    19   11   12 ar
    20   11   32 1
    21   12   18 1
    22   12   42 ar
    23   13   14 ar
    24   13   33 1
    25   13   42 ar
    26   14   15 ar
    27   15   16 ar
    28   16   17 ar
    29   16   34 1
    30   18   19 1
    31   18   35 1
    32   19   20 1
    33   19   36 1
    34   19   37 1
    35   20   21 1
    36   20   38 1
    37   20   39 1
    38   21   26 1
    39   21   22 2
    40   22   23 1
    41   22   40 1
    42   23   24 1
    43   23   25 1
    44   25   26 2
    45   25   41 1
    46   42   43 1
@<TRIPOS>MOLECULE
ZINC03815071
   44    47     0     0     0
SMALL
USER_CHARGES

@<TRIPOS>ATOM
      1 C1          4.0877   -4.5419    0.2273 C.ar      1 <0>        -0.0893
      2 C2          2.8497   -3.9414    0.3484 C.ar      1 <0>        -0.1199
      3 C3          2.6507   -2.6577   -0.1435 C.ar      1 <0>         0.1227
      4 C4          3.6968   -1.9837   -0.7607 C.ar      1 <0>        -0.0781
      5 C5          4.9342   -2.5880   -0.8745 C.ar      1 <0>        -0.0730
      6 C6          5.1286   -3.8672   -0.3832 C.ar      1 <0>        -0.0848
      7 Br1         6.3610   -1.6696   -1.7092 Br        1 <0>        -0.0216
      8 N1          1.3990   -2.0477   -0.0227 N.pl3     1 <0>        -0.6086
      9 C7          1.3107   -0.6807    0.1420 C.ar      1 <0>         0.4672
     10 C8          0.0199    0.0007    0.1513 C.ar      1 <0>        -0.0698
     11 C9         -1.1978   -0.6656   -0.0016 C.ar      1 <0>        -0.1368
     12 C10        -2.3630    0.0813    0.0236 C.ar      1 <0>         0.3906
     13 C11        -1.2204    2.0754    0.3421 C.ar      1 <0>         0.2365
     14 C12         0.0114    1.4085    0.3253 C.ar      1 <0>         0.1280
     15 N2          1.1830    2.0416    0.4719 N.ar      1 <0>        -0.5192
     16 C13         2.3130    1.3790    0.4556 C.ar      1 <0>         0.3904
     17 N3          2.3967    0.0674    0.2979 N.ar      1 <0>        -0.5402
     18 N4         -3.5889   -0.5624   -0.1270 N.pl3     1 <0>        -0.7215
     19 C14        -3.6357   -2.0152   -0.3097 C.3       1 <0>         0.1120
     20 C15        -5.0914   -2.4649   -0.4496 C.3       1 <0>        -0.0725
     21 C16        -5.1396   -3.9594   -0.6376 C.2       1 <0>         0.0160
     22 C17        -5.8397   -4.8295    0.1150 C.2       1 <0>         0.0540
     23 N5         -5.6033   -6.0763   -0.3980 N.pl3     1 <0>        -0.5128
     24 H1         -5.9799   -6.9385   -0.0593 H         1 <0>         0.4814
     25 C18        -4.7665   -5.9246   -1.4470 C.cat     1 <0>         0.3211
     26 H2          4.2427   -5.5400    0.6097 H         1 <0>         0.1450
     27 H3          2.0373   -4.4693    0.8254 H         1 <0>         0.1326
     28 H4          3.5442   -0.9870   -1.1479 H         1 <0>         0.1475
     29 H5          6.0953   -4.3394   -0.4772 H         1 <0>         0.1443
     30 H6          0.5923   -2.5855   -0.0548 H         1 <0>         0.4223
     31 H7         -1.2297   -1.7368   -0.1359 H         1 <0>         0.1741
     32 H8         -1.2521    3.1469    0.4732 H         1 <0>         0.2228
     33 H9          3.2303    1.9357    0.5779 H         1 <0>         0.2239
     34 H10        -4.4116   -0.0488   -0.1109 H         1 <0>         0.4226
     35 H11        -3.0837   -2.2862   -1.2097 H         1 <0>         0.0801
     36 H12        -3.1856   -2.5047    0.5539 H         1 <0>         0.0929
     37 H13        -5.6435   -2.1939    0.4503 H         1 <0>         0.1258
     38 H14        -5.5416   -1.9754   -1.3132 H         1 <0>         0.1152
     39 H15        -6.4668   -4.5896    0.9610 H         1 <0>         0.2283
     40 H16        -4.3862   -6.7213   -2.0691 H         1 <0>         0.2693
     41 N6         -2.4118    1.4432    0.1898 N.ar      1 <0>        -0.4904
     42 H17        -3.3014    1.9559    0.1983 H         1 <0>         0.4804
     43 N7         -4.4982   -4.6559   -1.5864 N.pl3     1 <0>        -0.4880
     44 H18        -3.8907   -4.2536   -2.3098 H         1 <0>         0.4796
@<TRIPOS>BOND
     1    1    6 ar
     2    1    2 ar
     3    1   26 1
     4    2    3 ar
     5    2   27 1
     6    3    4 ar
     7    3    8 1
     8    4    5 ar
     9    4   28 1
    10    5    6 ar
    11    5    7 1
    12    6   29 1
    13    8    9 1
    14    8   30 1
    15    9   17 ar
    16    9   10 ar
    17   10   14 ar
    18   10   11 ar
    19   11   12 ar
    20   11   31 1
    21   12   18 1
    22   12   41 ar
    23   13   14 ar
    24   13   32 1
    25   13   41 ar
    26   14   15 ar
    27   15   16 ar
    28   16   17 ar
    29   16   33 1
    30   18   19 1
    31   18   34 1
    32   19   20 1
    33   19   35 1
    34   19   36 1
    35   20   21 1
    36   20   37 1
    37   20   38 1
    38   21   22 2
    39   21   43 1
    40   22   23 1
    41   22   39 1
    42   23   24 1
    43   23   25 1
    44   25   40 1
    45   25   43 2
    46   41   42 1
    47   43   44 1
@<TRIPOS>MOLECULE
ZINC03815072
   30    32     0     0     0
SMALL
USER_CHARGES

@<TRIPOS>ATOM
      1 C1         -2.4921    4.2052    0.4275 C.ar      1 <0>        -0.0931
      2 C2         -1.2843    3.5412    0.5183 C.ar      1 <0>        -0.0931
      3 C3         -0.1517    4.0771   -0.0810 C.ar      1 <0>         0.1608
      4 C4         -0.2363    5.2827   -0.7658 C.ar      1 <0>        -0.1205
      5 C5         -1.4485    5.9395   -0.8575 C.ar      1 <0>        -0.0715
      6 C6         -2.5749    5.4023   -0.2590 C.ar      1 <0>        -0.1052
      7 Br1        -1.5670    7.5775   -1.7949 Br        1 <0>        -0.0457
      8 N1          1.0720    3.4075    0.0097 N.pl3     1 <0>        -0.6419
      9 C7          1.1064    2.0281   -0.0040 C.ar      1 <0>         0.4747
     10 C8          2.3185    1.3297    0.2077 C.ar      1 <0>        -0.2359
     11 C9          3.5279    1.9971    0.4387 C.ar      1 <0>        -0.0289
     12 C10         4.6682    1.2801    0.6360 C.ar      1 <0>        -0.1838
     13 C11         4.6486   -0.1191    0.6112 C.ar      1 <0>         0.2607
     14 C12         3.4708   -0.8038    0.3858 C.ar      1 <0>        -0.2130
     15 C13         2.2872   -0.0869    0.1806 C.ar      1 <0>         0.2337
     16 N2          1.1154   -0.7021   -0.0431 N.ar      1 <0>        -0.5561
     17 C14         0.0223   -0.0017   -0.2326 C.ar      1 <0>         0.3524
     18 N3          0.0035    1.3213   -0.2164 N.ar      1 <0>        -0.5957
     19 N4          5.8299   -0.8287    0.8162 N.pl3     1 <0>        -0.8641
     20 H1         -3.3729    3.7888    0.8938 H         1 <0>         0.1367
     21 H2         -1.2208    2.6059    1.0546 H         1 <0>         0.1412
     22 H3          0.6434    5.7041   -1.2294 H         1 <0>         0.1341
     23 H4         -3.5205    5.9196   -0.3282 H         1 <0>         0.1344
     24 H5          1.8969    3.9126    0.0822 H         1 <0>         0.4211
     25 H6          3.5559    3.0766    0.4598 H         1 <0>         0.1271
     26 H7          5.5993    1.7974    0.8142 H         1 <0>         0.1315
     27 H8          3.4634   -1.8837    0.3685 H         1 <0>         0.1375
     28 H9         -0.9037   -0.5286   -0.4100 H         1 <0>         0.1951
     29 H10         6.6601   -0.3528    0.9750 H         1 <0>         0.4028
     30 H11         5.8222   -1.7985    0.8001 H         1 <0>         0.4045
@<TRIPOS>BOND
     1    1    6 ar
     2    1    2 ar
     3    1   20 1
     4    2    3 ar
     5    2   21 1
     6    3    4 ar
     7    3    8 1
     8    4    5 ar
     9    4   22 1
    10    5    6 ar
    11    5    7 1
    12    6   23 1
    13    8    9 1
    14    8   24 1
    15    9   18 ar
    16    9   10 ar
    17   10   15 ar
    18   10   11 ar
    19   11   12 ar
    20   11   25 1
    21   12   13 ar
    22   12   26 1
    23   13   14 ar
    24   13   19 1
    25   14   15 ar
    26   14   27 1
    27   15   16 ar
    28   16   17 ar
    29   17   18 ar
    30   17   28 1
    31   19   29 1
    32   19   30 1
@<TRIPOS>MOLECULE
ZINC03815073
   35    38     0     0     0
SMALL
USER_CHARGES

@<TRIPOS>ATOM
      1 C1         -4.9120    5.5863   -0.8883 C.3       1 <0>         0.0772
      2 N1         -3.4881    5.9262   -0.8325 N.pl3     1 <0>        -0.5021
      3 C2         -2.9722    7.1847   -1.0015 C.2       1 <0>         0.0706
      4 C3         -1.6365    7.1544   -0.8914 C.2       1 <0>        -0.2050
      5 C4         -1.2578    5.7609   -0.6297 C.ar      1 <0>        -0.1071
      6 C5         -2.4678    5.0275   -0.6027 C.ar      1 <0>         0.1554
      7 C6         -2.4500    3.6642   -0.3748 C.ar      1 <0>        -0.1360
      8 C7         -1.2327    3.0114   -0.1709 C.ar      1 <0>         0.1973
      9 C8         -0.0195    3.7494   -0.1984 C.ar      1 <0>        -0.2017
     10 C9         -0.0415    5.1242   -0.4290 C.ar      1 <0>        -0.0234
     11 C10         1.1947    3.0484    0.0133 C.ar      1 <0>         0.4767
     12 N2          1.1350    1.7408    0.2259 N.ar      1 <0>        -0.5930
     13 C11        -0.0204    1.0944    0.2426 C.ar      1 <0>         0.3465
     14 N3         -1.1738    1.6866    0.0488 N.ar      1 <0>        -0.5490
     15 N4          2.4055    3.7088   -0.0019 N.pl3     1 <0>        -0.6392
     16 C12         3.5977    2.9846    0.0884 C.ar      1 <0>         0.1602
     17 C13         3.7003    1.7352   -0.5105 C.ar      1 <0>        -0.0923
     18 C14         4.8795    1.0222   -0.4202 C.ar      1 <0>        -0.0932
     19 C15         5.9582    1.5505    0.2652 C.ar      1 <0>        -0.1045
     20 C16         5.8600    2.7947    0.8625 C.ar      1 <0>        -0.0717
     21 C17         4.6839    3.5151    0.7720 C.ar      1 <0>        -0.1197
     22 Br1         7.3381    3.5128    1.7980 Br        1 <0>        -0.0455
     23 H1         -5.3448    5.6699    0.1086 H         1 <0>         0.0720
     24 H2         -5.4229    6.2714   -1.5649 H         1 <0>         0.0860
     25 H3         -5.0277    4.5646   -1.2501 H         1 <0>         0.0833
     26 H4         -3.5568    8.0718   -1.1954 H         1 <0>         0.1742
     27 H5         -0.9658    7.9963   -0.9794 H         1 <0>         0.1537
     28 H6         -3.3743    3.1060   -0.3542 H         1 <0>         0.1368
     29 H7          0.8793    5.6883   -0.4504 H         1 <0>         0.1293
     30 H8         -0.0119    0.0291    0.4199 H         1 <0>         0.1953
     31 H9          2.4297    4.6757   -0.0752 H         1 <0>         0.4219
     32 H10         2.8585    1.3217   -1.0460 H         1 <0>         0.1415
     33 H11         4.9595    0.0510   -0.8857 H         1 <0>         0.1368
     34 H12         6.8793    0.9910    0.3340 H         1 <0>         0.1344
     35 H13         4.6088    4.4880    1.2348 H         1 <0>         0.1345
@<TRIPOS>BOND
     1    1    2 1
     2    1   23 1
     3    1   24 1
     4    1   25 1
     5    2    6 1
     6    2    3 1
     7    3    4 2
     8    3   26 1
     9    4    5 1
    10    4   27 1
    11    5   10 ar
    12    5    6 ar
    13    6    7 ar
    14    7    8 ar
    15    7   28 1
    16    8   14 ar
    17    8    9 ar
    18    9   10 ar
    19    9   11 ar
    20   10   29 1
    21   11   12 ar
    22   11   15 1
    23   12   13 ar
    24   13   14 ar
    25   13   30 1
    26   15   16 1
    27   15   31 1
    28   16   21 ar
    29   16   17 ar
    30   17   18 ar
    31   17   32 1
    32   18   19 ar
    33   18   33 1
    34   19   20 ar
    35   19   34 1
    36   20   21 ar
    37   20   22 1
    38   21   35 1
@<TRIPOS>MOLECULE
ZINC03815074
   48    51     0     0     0
SMALL
USER_CHARGES

@<TRIPOS>ATOM
      1 C1         -4.2872    4.3842    8.3641 C.ar      1 <0>        -0.0906
      2 C2         -3.6333    4.0623    7.1908 C.ar      1 <0>        -0.1267
      3 C3         -2.8509    2.9164    7.1249 C.ar      1 <0>         0.1450
      4 C4         -2.7329    2.0945    8.2386 C.ar      1 <0>        -0.0840
      5 C5         -3.3860    2.4243    9.4107 C.ar      1 <0>        -0.0714
      6 C6         -4.1642    3.5671    9.4726 C.ar      1 <0>        -0.0992
      7 Br1        -3.2221    1.3095   10.9293 Br        1 <0>        -0.0364
      8 N1         -2.1886    2.5880    5.9389 N.pl3     1 <0>        -0.6144
      9 C7         -0.9703    1.9402    5.9852 C.ar      1 <0>         0.4733
     10 C8         -0.3104    1.4773    4.7662 C.ar      1 <0>         0.0799
     11 C9          0.9376    0.8222    4.9020 C.ar      1 <0>         0.0466
     12 C10         1.5822    0.3723    3.7357 C.ar      1 <0>         0.2512
     13 N2          0.9945    0.5819    2.5757 N.ar      1 <0>        -0.5338
     14 C11        -0.1797    1.2020    2.4898 C.ar      1 <0>         0.5483
     15 N3         -0.8261    1.6496    3.5512 N.ar      1 <0>        -0.5290
     16 N4         -0.7430    1.3904    1.2391 N.pl3     1 <0>        -0.7017
     17 C12        -0.0472    0.9103    0.0426 C.3       1 <0>         0.1166
     18 C13        -0.8781    1.2427   -1.1983 C.3       1 <0>        -0.0179
     19 C14         1.0701    1.5035   -2.6137 C.3       1 <0>        -0.0453
     20 C15         1.7925    0.9313   -3.8363 C.3       1 <0>         0.0352
     21 O1          0.9232    0.9944   -4.9702 O.3       1 <0>        -0.3559
     22 C16        -0.3043    0.2817   -4.7949 C.3       1 <0>         0.0345
     23 C17        -1.0479    0.8472   -3.5820 C.3       1 <0>        -0.0373
     24 N5          1.4505    0.6589    6.1263 N.ar      1 <0>        -0.5159
     25 C18         0.8144    1.0942    7.1863 C.ar      1 <0>         0.3470
     26 N6         -0.3535    1.7145    7.1383 N.ar      1 <0>        -0.5528
     27 H1         -4.8956    5.2750    8.4156 H         1 <0>         0.1403
     28 H2         -3.7300    4.7012    6.3254 H         1 <0>         0.1325
     29 H3         -2.1286    1.2007    8.1894 H         1 <0>         0.1472
     30 H4         -4.6769    3.8210   10.3886 H         1 <0>         0.1383
     31 H5         -2.5848    2.8153    5.0831 H         1 <0>         0.4313
     32 H6          2.5352   -0.1329    3.7899 H         1 <0>         0.1975
     33 H7         -1.5983    1.8402    1.1552 H         1 <0>         0.4212
     34 H8          0.0893   -0.1690    0.1101 H         1 <0>         0.0890
     35 H9          0.9260    1.3957   -0.0311 H         1 <0>         0.0884
     36 H10        -1.8513    0.7573   -1.1247 H         1 <0>         0.1393
     37 H11        -1.0146    2.3220   -1.2658 H         1 <0>         0.1401
     38 H12         0.8440    2.5561   -2.7841 H         1 <0>         0.1425
     39 H13         1.7078    1.4051   -1.7352 H         1 <0>         0.1437
     40 H14         2.0662   -0.1062   -3.6448 H         1 <0>         0.0830
     41 H15         2.6919    1.5144   -4.0344 H         1 <0>         0.1433
     42 H16        -0.0915   -0.7748   -4.6313 H         1 <0>         0.0825
     43 H17        -0.9217    0.3955   -5.6859 H         1 <0>         0.1432
     44 H18        -1.9563    0.2699   -3.4103 H         1 <0>         0.1427
     45 H19        -1.3079    1.8893   -3.7679 H         1 <0>         0.1419
     46 H20         1.2693    0.9383    8.1533 H         1 <0>         0.2084
     47 N7         -0.1733    0.7353   -2.3954 N.4       1 <0>        -0.3915
     48 H21         0.0656   -0.2524   -2.2484 H         1 <0>         0.4299
@<TRIPOS>BOND
     1    1    6 ar
     2    1    2 ar
     3    1   27 1
     4    2    3 ar
     5    2   28 1
     6    3    4 ar
     7    3    8 1
     8    4    5 ar
     9    4   29 1
    10    5    6 ar
    11    5    7 1
    12    6   30 1
    13    8    9 1
    14    8   31 1
    15    9   26 ar
    16    9   10 ar
    17   10   15 ar
    18   10   11 ar
    19   11   12 ar
    20   11   24 ar
    21   12   13 ar
    22   12   32 1
    23   13   14 ar
    24   14   15 ar
    25   14   16 1
    26   16   17 1
    27   16   33 1
    28   17   18 1
    29   17   34 1
    30   17   35 1
    31   18   36 1
    32   18   37 1
    33   18   47 1
    34   19   20 1
    35   19   38 1
    36   19   39 1
    37   19   47 1
    38   20   21 1
    39   20   40 1
    40   20   41 1
    41   21   22 1
    42   22   23 1
    43   22   42 1
    44   22   43 1
    45   23   44 1
    46   23   45 1
    47   23   47 1
    48   24   25 ar
    49   25   26 ar
    50   25   46 1
    51   47   48 1
@<TRIPOS>MOLECULE
ZINC03815075
   36    38     0     0     0
SMALL
USER_CHARGES

@<TRIPOS>ATOM
      1 C1         -0.1079    7.8041   -0.3050 C.3       1 <0>         0.0216
      2 O1          1.1552    7.1532   -0.1533 O.3       1 <0>        -0.3000
      3 C2          1.1386    5.8027    0.0050 C.ar      1 <0>         0.1111
      4 C3         -0.0548    5.1381    0.0126 C.ar      1 <0>        -0.1487
      5 C4         -0.0731    3.7478    0.1755 C.ar      1 <0>        -0.1821
      6 C5          1.1438    3.0386    0.3314 C.ar      1 <0>         0.2016
      7 C6          2.3555    3.7401    0.3205 C.ar      1 <0>        -0.1835
      8 C7          2.3463    5.1080    0.1591 C.ar      1 <0>         0.1638
      9 O2          3.5205    5.7912    0.1487 O.3       1 <0>        -0.2971
     10 C8          4.7172    5.0270    0.3103 C.3       1 <0>         0.0200
     11 N1          1.0982    1.7061    0.4863 N.ar      1 <0>        -0.5407
     12 C9         -0.0525    1.0764    0.4928 C.ar      1 <0>         0.3433
     13 N2         -1.2129    1.6958    0.3458 N.ar      1 <0>        -0.5802
     14 C10        -1.2816    3.0116    0.1911 C.ar      1 <0>         0.4631
     15 N3         -2.4993    3.6452    0.0441 N.pl3     1 <0>        -0.6400
     16 C11        -3.6722    2.8912   -0.0543 C.ar      1 <0>         0.1568
     17 C12        -4.8637    3.3868    0.4605 C.ar      1 <0>        -0.1305
     18 C13        -6.0208    2.6398    0.3614 C.ar      1 <0>        -0.0935
     19 C14        -5.9949    1.3993   -0.2494 C.ar      1 <0>        -0.1015
     20 C15        -4.8105    0.9028   -0.7635 C.ar      1 <0>        -0.0807
     21 C16        -3.6501    1.6475   -0.6718 C.ar      1 <0>        -0.0790
     22 I1         -4.7777   -0.9764   -1.6890 I         1 <0>        -0.0356
     23 H1         -0.6151    7.4121   -1.1866 H         1 <0>         0.0574
     24 H2         -0.7198    7.6202    0.5781 H         1 <0>         0.0572
     25 H3          0.0479    8.8766   -0.4222 H         1 <0>         0.1071
     26 H4         -0.9799    5.6825   -0.1069 H         1 <0>         0.1390
     27 H5          3.2904    3.2126    0.4386 H         1 <0>         0.1564
     28 H6          4.6895    4.5068    1.2677 H         1 <0>         0.0623
     29 H7          4.7949    4.2986   -0.4969 H         1 <0>         0.0624
     30 H8          5.5798    5.6928    0.2833 H         1 <0>         0.1075
     31 H9         -0.0528    0.0038    0.6193 H         1 <0>         0.1980
     32 H10        -2.5410    4.6137    0.0090 H         1 <0>         0.4205
     33 H11        -4.8848    4.3553    0.9380 H         1 <0>         0.1307
     34 H12        -6.9473    3.0249    0.7611 H         1 <0>         0.1361
     35 H13        -6.9013    0.8171   -0.3256 H         1 <0>         0.1310
     36 H14        -2.7264    1.2613   -1.0769 H         1 <0>         0.1463
@<TRIPOS>BOND
     1    1    2 1
     2    1   23 1
     3    1   24 1
     4    1   25 1
     5    2    3 1
     6    3    8 ar
     7    3    4 ar
     8    4    5 ar
     9    4   26 1
    10    5   14 ar
    11    5    6 ar
    12    6    7 ar
    13    6   11 ar
    14    7    8 ar
    15    7   27 1
    16    8    9 1
    17    9   10 1
    18   10   28 1
    19   10   29 1
    20   10   30 1
    21   11   12 ar
    22   12   13 ar
    23   12   31 1
    24   13   14 ar
    25   14   15 1
    26   15   16 1
    27   15   32 1
    28   16   21 ar
    29   16   17 ar
    30   17   18 ar
    31   17   33 1
    32   18   19 ar
    33   18   34 1
    34   19   20 ar
    35   19   35 1
    36   20   21 ar
    37   20   22 1
    38   21   36 1
@<TRIPOS>MOLECULE
ZINC03815076
   43    46     0     0     0
SMALL
USER_CHARGES

@<TRIPOS>ATOM
      1 C1          8.4867    5.7345    0.3312 C.ar      1 <0>        -0.0916
      2 C2          7.3064    5.0259    0.4446 C.ar      1 <0>        -0.0827
      3 C3          7.1872    3.7773   -0.1520 C.ar      1 <0>         0.1228
      4 C4          8.2583    3.2424   -0.8565 C.ar      1 <0>        -0.1029
      5 C5          9.4346    3.9582   -0.9704 C.ar      1 <0>        -0.0754
      6 C6          9.5494    5.2022   -0.3749 C.ar      1 <0>        -0.0836
      7 Br1        10.8914    3.2343   -1.9346 Br        1 <0>        -0.0277
      8 N1          5.9940    3.0581   -0.0389 N.pl3     1 <0>        -0.6098
      9 C7          4.7866    3.7232   -0.0283 C.ar      1 <0>         0.5200
     10 C8          3.5763    3.0304    0.2060 C.ar      1 <0>        -0.2628
     11 C9          3.5261    1.6534    0.4361 C.ar      1 <0>         0.2649
     12 C10         1.2174    1.7283    0.6536 C.ar      1 <0>         0.4373
     13 C11         1.1679    3.0928    0.4350 C.ar      1 <0>        -0.1914
     14 C12         2.3673    3.7759    0.2040 C.ar      1 <0>         0.3039
     15 N2          2.4208    5.0951   -0.0179 N.ar      1 <0>        -0.5553
     16 C13         3.5751    5.6849   -0.2297 C.ar      1 <0>         0.4260
     17 N3          4.7265    5.0334   -0.2374 N.ar      1 <0>        -0.5818
     18 N4          0.0362    1.0351    0.8845 N.pl3     1 <0>        -0.7035
     19 C14        -1.2432    1.7489    0.8885 C.3       1 <0>         0.1155
     20 C15        -2.3785    0.7592    1.1577 C.3       1 <0>        -0.0393
     21 C16        -3.6945    1.4935    1.1618 C.2       1 <0>        -0.0164
     22 C17        -4.7674    1.1990    0.4030 C.2       1 <0>        -0.0364
     23 N5         -5.7392    2.1090    0.7210 N.pl3     1 <0>        -0.5690
     24 H1         -6.6576    2.1579    0.3285 H         1 <0>         0.4333
     25 C18        -5.2260    2.9284    1.6638 C.2       1 <0>         0.1984
     26 N6         -4.0046    2.5512    1.9261 N.2       1 <0>        -0.4921
     27 H2          8.5796    6.7054    0.7951 H         1 <0>         0.1445
     28 H3          6.4768    5.4426    0.9964 H         1 <0>         0.1422
     29 H4          8.1703    2.2698   -1.3178 H         1 <0>         0.1387
     30 H5         10.4712    5.7582   -0.4617 H         1 <0>         0.1426
     31 H6          6.0155    2.0909    0.0321 H         1 <0>         0.4243
     32 H7          4.4371    1.0733    0.4409 H         1 <0>         0.1964
     33 H8          0.2250    3.6195    0.4428 H         1 <0>         0.1912
     34 H9          3.5848    6.7505   -0.4052 H         1 <0>         0.2210
     35 H10         0.0579    0.0778    1.0392 H         1 <0>         0.4167
     36 H11        -1.2321    2.5101    1.6686 H         1 <0>         0.0981
     37 H12        -1.3973    2.2238   -0.0804 H         1 <0>         0.0877
     38 H13        -2.3896   -0.0020    0.3777 H         1 <0>         0.0862
     39 H14        -2.2244    0.2843    2.1267 H         1 <0>         0.0863
     40 H15        -4.8458    0.3989   -0.3182 H         1 <0>         0.1778
     41 H16        -5.7424    3.7562    2.1270 H         1 <0>         0.2124
     42 N7          2.3701    0.9804    0.6679 N.ar      1 <0>        -0.5396
     43 H17         2.3578   -0.0311    0.8442 H         1 <0>         0.4729
@<TRIPOS>BOND
     1    1    6 ar
     2    1    2 ar
     3    1   27 1
     4    2    3 ar
     5    2   28 1
     6    3    4 ar
     7    3    8 1
     8    4    5 ar
     9    4   29 1
    10    5    6 ar
    11    5    7 1
    12    6   30 1
    13    8    9 1
    14    8   31 1
    15    9   17 ar
    16    9   10 ar
    17   10   14 ar
    18   10   11 ar
    19   11   32 1
    20   11   42 ar
    21   12   13 ar
    22   12   18 1
    23   12   42 ar
    24   13   14 ar
    25   13   33 1
    26   14   15 ar
    27   15   16 ar
    28   16   17 ar
    29   16   34 1
    30   18   19 1
    31   18   35 1
    32   19   20 1
    33   19   36 1
    34   19   37 1
    35   20   21 1
    36   20   38 1
    37   20   39 1
    38   21   26 1
    39   21   22 2
    40   22   23 1
    41   22   40 1
    42   23   24 1
    43   23   25 1
    44   25   26 2
    45   25   41 1
    46   42   43 1
@<TRIPOS>MOLECULE
ZINC03815076
   43    46     0     0     0
SMALL
USER_CHARGES

@<TRIPOS>ATOM
      1 C1          8.4867    5.7345    0.3312 C.ar      1 <0>        -0.0916
      2 C2          7.3064    5.0259    0.4446 C.ar      1 <0>        -0.0827
      3 C3          7.1872    3.7773   -0.1520 C.ar      1 <0>         0.1228
      4 C4          8.2583    3.2424   -0.8565 C.ar      1 <0>        -0.1029
      5 C5          9.4346    3.9582   -0.9704 C.ar      1 <0>        -0.0754
      6 C6          9.5494    5.2022   -0.3749 C.ar      1 <0>        -0.0836
      7 Br1        10.8914    3.2343   -1.9346 Br        1 <0>        -0.0277
      8 N1          5.9940    3.0581   -0.0389 N.pl3     1 <0>        -0.6098
      9 C7          4.7866    3.7232   -0.0283 C.ar      1 <0>         0.5200
     10 C8          3.5763    3.0304    0.2060 C.ar      1 <0>        -0.2628
     11 C9          3.5261    1.6534    0.4361 C.ar      1 <0>         0.2649
     12 C10         1.2174    1.7283    0.6536 C.ar      1 <0>         0.4373
     13 C11         1.1679    3.0928    0.4350 C.ar      1 <0>        -0.1914
     14 C12         2.3673    3.7759    0.2040 C.ar      1 <0>         0.3039
     15 N2          2.4208    5.0951   -0.0179 N.ar      1 <0>        -0.5553
     16 C13         3.5751    5.6849   -0.2297 C.ar      1 <0>         0.4260
     17 N3          4.7265    5.0334   -0.2374 N.ar      1 <0>        -0.5818
     18 N4          0.0362    1.0351    0.8845 N.pl3     1 <0>        -0.7035
     19 C14        -1.2432    1.7489    0.8885 C.3       1 <0>         0.1155
     20 C15        -2.3785    0.7592    1.1577 C.3       1 <0>        -0.0393
     21 C16        -3.6945    1.4935    1.1618 C.2       1 <0>        -0.0164
     22 C17        -4.7674    1.1990    0.4030 C.2       1 <0>        -0.0364
     23 N5         -5.7392    2.1090    0.7210 N.pl3     1 <0>        -0.5690
     24 H1         -6.6576    2.1579    0.3285 H         1 <0>         0.4333
     25 C18        -5.2260    2.9284    1.6638 C.2       1 <0>         0.1984
     26 N6         -4.0046    2.5512    1.9261 N.2       1 <0>        -0.4921
     27 H2          8.5796    6.7054    0.7951 H         1 <0>         0.1445
     28 H3          6.4768    5.4426    0.9964 H         1 <0>         0.1422
     29 H4          8.1703    2.2698   -1.3178 H         1 <0>         0.1387
     30 H5         10.4712    5.7582   -0.4617 H         1 <0>         0.1426
     31 H6          6.0155    2.0909    0.0321 H         1 <0>         0.4243
     32 H7          4.4371    1.0733    0.4409 H         1 <0>         0.1964
     33 H8          0.2250    3.6195    0.4428 H         1 <0>         0.1912
     34 H9          3.5848    6.7505   -0.4052 H         1 <0>         0.2210
     35 H10         0.0579    0.0778    1.0392 H         1 <0>         0.4167
     36 H11        -1.2321    2.5101    1.6686 H         1 <0>         0.0981
     37 H12        -1.3973    2.2238   -0.0804 H         1 <0>         0.0877
     38 H13        -2.3896   -0.0020    0.3777 H         1 <0>         0.0862
     39 H14        -2.2244    0.2843    2.1267 H         1 <0>         0.0863
     40 H15        -4.8458    0.3989   -0.3182 H         1 <0>         0.1778
     41 H16        -5.7424    3.7562    2.1270 H         1 <0>         0.2124
     42 N7          2.3701    0.9804    0.6679 N.ar      1 <0>        -0.5396
     43 H17         2.3578   -0.0311    0.8442 H         1 <0>         0.4729
@<TRIPOS>BOND
     1    1    6 ar
     2    1    2 ar
     3    1   27 1
     4    2    3 ar
     5    2   28 1
     6    3    4 ar
     7    3    8 1
     8    4    5 ar
     9    4   29 1
    10    5    6 ar
    11    5    7 1
    12    6   30 1
    13    8    9 1
    14    8   31 1
    15    9   17 ar
    16    9   10 ar
    17   10   14 ar
    18   10   11 ar
    19   11   32 1
    20   11   42 ar
    21   12   13 ar
    22   12   18 1
    23   12   42 ar
    24   13   14 ar
    25   13   33 1
    26   14   15 ar
    27   15   16 ar
    28   16   17 ar
    29   16   34 1
    30   18   19 1
    31   18   35 1
    32   19   20 1
    33   19   36 1
    34   19   37 1
    35   20   21 1
    36   20   38 1
    37   20   39 1
    38   21   26 1
    39   21   22 2
    40   22   23 1
    41   22   40 1
    42   23   24 1
    43   23   25 1
    44   25   26 2
    45   25   41 1
    46   42   43 1
@<TRIPOS>MOLECULE
ZINC03815076
   44    47     0     0     0
SMALL
USER_CHARGES

@<TRIPOS>ATOM
      1 C1          8.4867    5.7345    0.3312 C.ar      1 <0>        -0.0914
      2 C2          7.3064    5.0259    0.4446 C.ar      1 <0>        -0.0812
      3 C3          7.1872    3.7773   -0.1520 C.ar      1 <0>         0.1118
      4 C4          8.2583    3.2424   -0.8565 C.ar      1 <0>        -0.0987
      5 C5          9.4346    3.9582   -0.9704 C.ar      1 <0>        -0.0759
      6 C6          9.5494    5.2022   -0.3749 C.ar      1 <0>        -0.0776
      7 Br1        10.8914    3.2343   -1.9346 Br        1 <0>        -0.0208
      8 N1          5.9940    3.0581   -0.0389 N.pl3     1 <0>        -0.5994
      9 C7          4.7866    3.7232   -0.0283 C.ar      1 <0>         0.5206
     10 C8          3.5763    3.0304    0.2060 C.ar      1 <0>        -0.2622
     11 C9          3.5261    1.6534    0.4361 C.ar      1 <0>         0.2747
     12 C10         1.2174    1.7283    0.6536 C.ar      1 <0>         0.4333
     13 C11         1.1679    3.0928    0.4350 C.ar      1 <0>        -0.1957
     14 C12         2.3673    3.7759    0.2040 C.ar      1 <0>         0.3093
     15 N2          2.4208    5.0951   -0.0179 N.ar      1 <0>        -0.5600
     16 C13         3.5751    5.6849   -0.2297 C.ar      1 <0>         0.4348
     17 N3          4.7265    5.0334   -0.2374 N.ar      1 <0>        -0.5761
     18 N4          0.0362    1.0351    0.8845 N.pl3     1 <0>        -0.7172
     19 C14        -1.2432    1.7489    0.8885 C.3       1 <0>         0.1113
     20 C15        -2.3785    0.7592    1.1577 C.3       1 <0>        -0.0725
     21 C16        -3.6945    1.4935    1.1618 C.2       1 <0>         0.0173
     22 C17        -4.7674    1.1990    0.4030 C.2       1 <0>         0.0525
     23 N5         -5.7392    2.1090    0.7210 N.pl3     1 <0>        -0.5135
     24 H1         -6.6576    2.1579    0.3285 H         1 <0>         0.4809
     25 C18        -5.2260    2.9284    1.6638 C.cat     1 <0>         0.3216
     26 H2          8.5796    6.7054    0.7951 H         1 <0>         0.1464
     27 H3          6.4768    5.4426    0.9964 H         1 <0>         0.1410
     28 H4          8.1703    2.2698   -1.3178 H         1 <0>         0.1399
     29 H5         10.4712    5.7582   -0.4617 H         1 <0>         0.1454
     30 H6          6.0155    2.0909    0.0321 H         1 <0>         0.4255
     31 H7          4.4371    1.0733    0.4409 H         1 <0>         0.2002
     32 H8          0.2250    3.6195    0.4428 H         1 <0>         0.1856
     33 H9          3.5848    6.7505   -0.4052 H         1 <0>         0.2243
     34 H10         0.0579    0.0778    1.0392 H         1 <0>         0.4211
     35 H11        -1.2321    2.5101    1.6686 H         1 <0>         0.0841
     36 H12        -1.3973    2.2238   -0.0804 H         1 <0>         0.0967
     37 H13        -2.3896   -0.0020    0.3777 H         1 <0>         0.1245
     38 H14        -2.2244    0.2843    2.1267 H         1 <0>         0.1139
     39 H15        -4.8458    0.3989   -0.3182 H         1 <0>         0.2277
     40 H16        -5.7424    3.7562    2.1270 H         1 <0>         0.2693
     41 N6          2.3701    0.9804    0.6679 N.ar      1 <0>        -0.5401
     42 H17         2.3578   -0.0311    0.8442 H         1 <0>         0.4752
     43 N7         -4.0054    2.5506    1.9252 N.pl3     1 <0>        -0.4869
     44 H18        -3.3804    2.9936    2.6088 H         1 <0>         0.4803
@<TRIPOS>BOND
     1    1    6 ar
     2    1    2 ar
     3    1   26 1
     4    2    3 ar
     5    2   27 1
     6    3    4 ar
     7    3    8 1
     8    4    5 ar
     9    4   28 1
    10    5    6 ar
    11    5    7 1
    12    6   29 1
    13    8    9 1
    14    8   30 1
    15    9   17 ar
    16    9   10 ar
    17   10   14 ar
    18   10   11 ar
    19   11   31 1
    20   11   41 ar
    21   12   13 ar
    22   12   18 1
    23   12   41 ar
    24   13   14 ar
    25   13   32 1
    26   14   15 ar
    27   15   16 ar
    28   16   17 ar
    29   16   33 1
    30   18   19 1
    31   18   34 1
    32   19   20 1
    33   19   35 1
    34   19   36 1
    35   20   21 1
    36   20   37 1
    37   20   38 1
    38   21   22 2
    39   21   43 1
    40   22   23 1
    41   22   39 1
    42   23   24 1
    43   23   25 1
    44   25   40 1
    45   25   43 2
    46   41   42 1
    47   43   44 1
@<TRIPOS>MOLECULE
ZINC03815077
   41    43     0     0     0
SMALL
USER_CHARGES

@<TRIPOS>ATOM
      1 C1          2.1577    5.6966    0.3942 C.ar      1 <0>        -0.0916
      2 C2          2.2603    4.3225    0.4909 C.ar      1 <0>        -0.0825
      3 C3          3.3215    3.6622   -0.1150 C.ar      1 <0>         0.1210
      4 C4          4.2797    4.3869   -0.8123 C.ar      1 <0>        -0.1020
      5 C5          4.1688    5.7608   -0.9094 C.ar      1 <0>        -0.0755
      6 C6          3.1100    6.4152   -0.3043 C.ar      1 <0>        -0.0826
      7 Br1         5.4687    6.7483   -1.8638 Br        1 <0>        -0.0265
      8 N1          3.4281    2.2717   -0.0184 N.pl3     1 <0>        -0.6080
      9 C7          2.2914    1.4919   -0.0144 C.ar      1 <0>         0.5208
     10 C8          2.3671    0.0967    0.2035 C.ar      1 <0>        -0.2638
     11 C9          3.5751   -0.5691    0.4250 C.ar      1 <0>         0.2687
     12 C10         2.4717   -2.6006    0.6204 C.ar      1 <0>         0.4374
     13 C11         1.2299   -2.0296    0.4098 C.ar      1 <0>        -0.1964
     14 C12         1.1580   -0.6486    0.1945 C.ar      1 <0>         0.3061
     15 N2          0.0031   -0.0057   -0.0186 N.ar      1 <0>        -0.5569
     16 C13        -0.0056    1.2929   -0.2155 C.ar      1 <0>         0.4281
     17 N3          1.0937    2.0290   -0.2163 N.ar      1 <0>        -0.5810
     18 N4          2.5608   -3.9699    0.8351 N.pl3     1 <0>        -0.6986
     19 C14         1.3480   -4.7916    0.8367 C.3       1 <0>         0.0782
     20 C15         1.7221   -6.2527    1.0938 C.3       1 <0>         0.0948
     21 H1          2.4628   -6.5725    0.3608 H         1 <0>         0.1191
     22 C16         0.4732   -7.1280    0.9721 C.3       1 <0>         0.0472
     23 O1          0.8413   -8.5031    1.0967 O.3       1 <0>        -0.5614
     24 O2          2.2671   -6.3805    2.4086 O.3       1 <0>        -0.5472
     25 H2          1.3327    6.2103    0.8653 H         1 <0>         0.1448
     26 H3          1.5159    3.7620    1.0368 H         1 <0>         0.1420
     27 H4          5.1084    3.8769   -1.2807 H         1 <0>         0.1391
     28 H5          3.0277    7.4896   -0.3778 H         1 <0>         0.1431
     29 H6          4.3020    1.8556    0.0458 H         1 <0>         0.4247
     30 H7          4.5026   -0.0158    0.4344 H         1 <0>         0.1976
     31 H8          0.3360   -2.6356    0.4110 H         1 <0>         0.1896
     32 H9         -0.9530    1.7814   -0.3892 H         1 <0>         0.2217
     33 H10         3.4261   -4.3821    0.9840 H         1 <0>         0.4226
     34 H11         0.6755   -4.4452    1.6214 H         1 <0>         0.0957
     35 H12         0.8515   -4.7084   -0.1301 H         1 <0>         0.1017
     36 H13        -0.2315   -6.8675    1.7618 H         1 <0>         0.0579
     37 H14         0.0073   -6.9632    0.0005 H         1 <0>         0.0627
     38 H15         0.0973   -9.1171    1.0292 H         1 <0>         0.3920
     39 H16         1.6613   -6.1128    3.1132 H         1 <0>         0.3819
     40 N5          3.6583   -1.9077    0.6351 N.ar      1 <0>        -0.5388
     41 H17         4.5576   -2.3762    0.7959 H         1 <0>         0.4744
@<TRIPOS>BOND
     1    1    6 ar
     2    1    2 ar
     3    1   25 1
     4    2    3 ar
     5    2   26 1
     6    3    4 ar
     7    3    8 1
     8    4    5 ar
     9    4   27 1
    10    5    6 ar
    11    5    7 1
    12    6   28 1
    13    8    9 1
    14    8   29 1
    15    9   17 ar
    16    9   10 ar
    17   10   14 ar
    18   10   11 ar
    19   11   30 1
    20   11   40 ar
    21   12   13 ar
    22   12   18 1
    23   12   40 ar
    24   13   14 ar
    25   13   31 1
    26   14   15 ar
    27   15   16 ar
    28   16   17 ar
    29   16   32 1
    30   18   19 1
    31   18   33 1
    32   19   20 1
    33   19   34 1
    34   19   35 1
    35   20   21 1
    36   20   22 1
    37   20   24 1
    38   22   23 1
    39   22   36 1
    40   22   37 1
    41   23   38 1
    42   24   39 1
    43   40   41 1
@<TRIPOS>MOLECULE
ZINC03815078
   53    55     0     0     0
SMALL
USER_CHARGES

@<TRIPOS>ATOM
      1 C1          3.6230   -4.3808   -3.1889 C.ar      1 <0>        -0.0895
      2 C2          2.4881   -3.7820   -2.6776 C.ar      1 <0>        -0.1167
      3 C3          2.0944   -2.5332   -3.1411 C.ar      1 <0>         0.1194
      4 C4          2.8409   -1.8925   -4.1219 C.ar      1 <0>        -0.0766
      5 C5          3.9778   -2.4946   -4.6259 C.ar      1 <0>        -0.0741
      6 C6          4.3670   -3.7390   -4.1615 C.ar      1 <0>        -0.0830
      7 Br1         4.9985   -1.6212   -5.9567 Br        1 <0>        -0.0217
      8 N1          0.9462   -1.9251   -2.6259 N.pl3     1 <0>        -0.6054
      9 C7          0.8892   -0.5521   -2.5017 C.ar      1 <0>         0.4689
     10 C8         -0.3264    0.1194   -2.0523 C.ar      1 <0>        -0.0731
     11 C9         -1.4987   -0.5628   -1.7200 C.ar      1 <0>        -0.1305
     12 C10        -2.5932    0.1759   -1.3045 C.ar      1 <0>         0.3847
     13 C11        -1.4643    2.1919   -1.5150 C.ar      1 <0>         0.2375
     14 C12        -0.3067    1.5341   -1.9505 C.ar      1 <0>         0.1340
     15 N2          0.8213    2.1824   -2.2704 N.ar      1 <0>        -0.5209
     16 C13         1.8841    1.5282   -2.6685 C.ar      1 <0>         0.3947
     17 N3          1.9380    0.2109   -2.7869 N.ar      1 <0>        -0.5400
     18 N4         -3.7729   -0.4837   -0.9681 N.pl3     1 <0>        -0.7232
     19 C14        -3.8461   -1.9442   -1.0558 C.3       1 <0>         0.0919
     20 C15        -5.2408   -2.4111   -0.6342 C.3       1 <0>        -0.0229
     21 C16        -4.6049   -4.4681    0.4736 C.3       1 <0>        -0.0062
     22 C17        -4.4697   -5.9783    0.2691 C.3       1 <0>         0.0431
     23 O1         -3.6236   -6.2331   -0.8540 O.3       1 <0>        -0.5818
     24 C18        -6.6904   -4.3470   -0.7506 C.3       1 <0>        -0.0083
     25 C19        -7.2269   -4.1354   -2.1677 C.3       1 <0>         0.0437
     26 O2         -6.4954   -4.9552   -3.0814 O.3       1 <0>        -0.5780
     27 H1          3.9294   -5.3518   -2.8287 H         1 <0>         0.1457
     28 H2          1.9077   -4.2842   -1.9179 H         1 <0>         0.1338
     29 H3          2.5351   -0.9233   -4.4872 H         1 <0>         0.1474
     30 H4          5.2535   -4.2098   -4.5601 H         1 <0>         0.1446
     31 H5          0.1894   -2.4683   -2.3556 H         1 <0>         0.4234
     32 H6         -1.5500   -1.6396   -1.7851 H         1 <0>         0.1760
     33 H7         -1.4733    3.2685   -1.4296 H         1 <0>         0.2243
     34 H8          2.7685    2.0971   -2.9146 H         1 <0>         0.2249
     35 H9         -4.5460    0.0240   -0.6758 H         1 <0>         0.4232
     36 H10        -3.6532   -2.2567   -2.0821 H         1 <0>         0.1038
     37 H11        -3.1000   -2.3857   -0.3952 H         1 <0>         0.1016
     38 H12        -5.4471   -2.0695    0.3801 H         1 <0>         0.1461
     39 H13        -5.9840   -1.9969   -1.3154 H         1 <0>         0.1419
     40 H14        -3.6139   -4.0238    0.5664 H         1 <0>         0.1344
     41 H15        -5.1764   -4.2741    1.3813 H         1 <0>         0.1490
     42 H16        -4.0343   -6.4282    1.1614 H         1 <0>         0.0996
     43 H17        -5.4540   -6.4100    0.0879 H         1 <0>         0.0758
     44 H18        -3.4929   -7.1724   -1.0429 H         1 <0>         0.4149
     45 H19        -6.7297   -5.4076   -0.5018 H         1 <0>         0.1451
     46 H20        -7.3005   -3.7851   -0.0434 H         1 <0>         0.1491
     47 H21        -8.2821   -4.4065   -2.2009 H         1 <0>         0.1012
     48 H22        -7.1119   -3.0881   -2.4471 H         1 <0>         0.0672
     49 H23        -6.7825   -4.8721   -4.0010 H         1 <0>         0.4128
     50 N5         -2.6128    1.5441   -1.1933 N.ar      1 <0>        -0.4870
     51 H24        -3.4509    2.0499   -0.8836 H         1 <0>         0.4804
     52 N6         -5.2866   -3.8869   -0.7021 N.4       1 <0>        -0.3906
     53 H25        -4.8045   -4.1967   -1.5541 H         1 <0>         0.4454
@<TRIPOS>BOND
     1    1    6 ar
     2    1    2 ar
     3    1   27 1
     4    2    3 ar
     5    2   28 1
     6    3    4 ar
     7    3    8 1
     8    4    5 ar
     9    4   29 1
    10    5    6 ar
    11    5    7 1
    12    6   30 1
    13    8    9 1
    14    8   31 1
    15    9   17 ar
    16    9   10 ar
    17   10   14 ar
    18   10   11 ar
    19   11   12 ar
    20   11   32 1
    21   12   18 1
    22   12   50 ar
    23   13   14 ar
    24   13   33 1
    25   13   50 ar
    26   14   15 ar
    27   15   16 ar
    28   16   17 ar
    29   16   34 1
    30   18   19 1
    31   18   35 1
    32   19   20 1
    33   19   36 1
    34   19   37 1
    35   20   38 1
    36   20   39 1
    37   20   52 1
    38   21   22 1
    39   21   40 1
    40   21   41 1
    41   21   52 1
    42   22   23 1
    43   22   42 1
    44   22   43 1
    45   23   44 1
    46   24   25 1
    47   24   45 1
    48   24   46 1
    49   24   52 1
    50   25   26 1
    51   25   47 1
    52   25   48 1
    53   26   49 1
    54   50   51 1
    55   52   53 1
@<TRIPOS>MOLECULE
ZINC03815079
   34    36     0     0     0
SMALL
USER_CHARGES

@<TRIPOS>ATOM
      1 C1          0.0360    0.9175    0.0872 C.3       1 <0>         0.0980
      2 N1         -0.6631    1.3924    1.2839 N.pl3     1 <0>        -0.5865
      3 C2         -2.1269    1.4482    1.3034 C.3       1 <0>         0.1000
      4 C3          0.0597    1.7884    2.3964 C.ar      1 <0>         0.5578
      5 N2          1.3885    1.7272    2.3509 N.ar      1 <0>        -0.5254
      6 C4          2.1311    2.0895    3.3760 C.ar      1 <0>         0.2529
      7 C5          1.4869    2.5500    4.5392 C.ar      1 <0>         0.0292
      8 C6          0.0724    2.5997    4.5469 C.ar      1 <0>         0.0852
      9 N3         -0.5958    2.2170    3.4591 N.ar      1 <0>        -0.5468
     10 C7         -0.5724    3.0642    5.7208 C.ar      1 <0>         0.4629
     11 N4          0.1845    3.4265    6.7469 N.ar      1 <0>        -0.5527
     12 C8          1.5054    3.3614    6.6905 C.ar      1 <0>         0.3239
     13 N5          2.1548    2.9402    5.6305 N.ar      1 <0>        -0.5047
     14 N6         -1.9491    3.1376    5.7930 N.pl3     1 <0>        -0.6228
     15 C9         -2.5680    3.4873    6.9963 C.ar      1 <0>         0.1573
     16 C10        -3.7585    4.2037    6.9843 C.ar      1 <0>        -0.1310
     17 C11        -4.3678    4.5479    8.1747 C.ar      1 <0>        -0.0913
     18 C12        -3.7948    4.1802    9.3785 C.ar      1 <0>        -0.1066
     19 C13        -2.6094    3.4668    9.3945 C.ar      1 <0>        -0.0702
     20 C14        -1.9974    3.1147    8.2063 C.ar      1 <0>        -0.0864
     21 Br1        -1.8305    2.9658   11.0432 Br        1 <0>        -0.0436
     22 H1          0.1775   -0.1613    0.1532 H         1 <0>         0.0558
     23 H2          1.0069    1.4076    0.0151 H         1 <0>         0.0825
     24 H3         -0.5564    1.1528   -0.7970 H         1 <0>         0.0732
     25 H4         -2.5218    0.5011    1.6710 H         1 <0>         0.0553
     26 H5         -2.4509    2.2561    1.9594 H         1 <0>         0.0787
     27 H6         -2.4970    1.6291    0.2942 H         1 <0>         0.0736
     28 H7          3.2085    2.0344    3.3255 H         1 <0>         0.1938
     29 H8          2.0743    3.6691    7.5554 H         1 <0>         0.2045
     30 H9         -2.4868    2.9465    5.0087 H         1 <0>         0.4315
     31 H10        -4.2067    4.4914    6.0448 H         1 <0>         0.1321
     32 H11        -5.2931    5.1048    8.1657 H         1 <0>         0.1375
     33 H12        -4.2739    4.4501   10.3080 H         1 <0>         0.1349
     34 H13        -1.0744    2.5539    8.2190 H         1 <0>         0.1472
@<TRIPOS>BOND
     1    1    2 1
     2    1   22 1
     3    1   23 1
     4    1   24 1
     5    2    3 1
     6    2    4 1
     7    3   25 1
     8    3   26 1
     9    3   27 1
    10    4    9 ar
    11    4    5 ar
    12    5    6 ar
    13    6    7 ar
    14    6   28 1
    15    7   13 ar
    16    7    8 ar
    17    8    9 ar
    18    8   10 ar
    19   10   11 ar
    20   10   14 1
    21   11   12 ar
    22   12   13 ar
    23   12   29 1
    24   14   15 1
    25   14   30 1
    26   15   20 ar
    27   15   16 ar
    28   16   17 ar
    29   16   31 1
    30   17   18 ar
    31   17   32 1
    32   18   19 ar
    33   18   33 1
    34   19   20 ar
    35   19   21 1
    36   20   34 1
@<TRIPOS>MOLECULE
ZINC03815080
   34    36     0     0     0
SMALL
USER_CHARGES

@<TRIPOS>ATOM
      1 C1         -2.4452    1.2355    0.3067 C.3       1 <0>         0.0855
      2 N1         -1.2080    2.0120    0.1946 N.pl3     1 <0>        -0.5989
      3 C2         -1.2518    3.4745    0.2691 C.3       1 <0>         0.0890
      4 C3          0.0061    1.3620    0.0177 C.ar      1 <0>         0.3573
      5 C4          0.0323   -0.0316   -0.1586 C.ar      1 <0>         0.1005
      6 N2          1.1705   -0.6630   -0.3327 N.ar      1 <0>        -0.3896
      7 C5          2.3160    0.0258   -0.3424 C.ar      1 <0>         0.2710
      8 C6          2.2904    1.4294   -0.1649 C.ar      1 <0>         0.0070
      9 N3          1.1282    2.0584    0.0109 N.ar      1 <0>        -0.4830
     10 C7          3.5242    2.1280   -0.1819 C.ar      1 <0>         0.4762
     11 N4          4.6376    1.4311   -0.3630 N.ar      1 <0>        -0.5644
     12 C8          4.6110    0.1185   -0.5247 C.ar      1 <0>         0.3495
     13 N5          3.4993   -0.5787   -0.5179 N.ar      1 <0>        -0.5132
     14 N6          3.5651    3.4973   -0.0147 N.pl3     1 <0>        -0.6222
     15 C9          4.7955    4.1530    0.0816 C.ar      1 <0>         0.1559
     16 C10         4.9376    5.4431   -0.4146 C.ar      1 <0>        -0.1304
     17 C11         6.1543    6.0888   -0.3177 C.ar      1 <0>        -0.0916
     18 C12         7.2313    5.4533    0.2729 C.ar      1 <0>        -0.1059
     19 C13         7.0938    4.1687    0.7681 C.ar      1 <0>        -0.0705
     20 C14         5.8772    3.5188    0.6785 C.ar      1 <0>        -0.0853
     21 Br1         8.5695    3.3042    1.5747 Br        1 <0>        -0.0430
     22 H1         -2.6294    0.9946    1.3536 H         1 <0>         0.0627
     23 H2         -3.2780    1.8205   -0.0835 H         1 <0>         0.0821
     24 H3         -2.3487    0.3135   -0.2667 H         1 <0>         0.0753
     25 H4         -0.2428    3.8739    0.1666 H         1 <0>         0.0875
     26 H5         -1.8788    3.8606   -0.5346 H         1 <0>         0.0610
     27 H6         -1.6664    3.7770    1.2307 H         1 <0>         0.0607
     28 H7         -0.8927   -0.5892   -0.1506 H         1 <0>         0.1845
     29 H8          5.5459   -0.4027   -0.6684 H         1 <0>         0.2089
     30 H9          2.7399    4.0045    0.0360 H         1 <0>         0.4310
     31 H10         4.0971    5.9402   -0.8760 H         1 <0>         0.1321
     32 H11         6.2649    7.0915   -0.7033 H         1 <0>         0.1376
     33 H12         8.1816    5.9609    0.3480 H         1 <0>         0.1350
     34 H13         5.7690    2.5176    1.0688 H         1 <0>         0.1477
@<TRIPOS>BOND
     1    1    2 1
     2    1   22 1
     3    1   23 1
     4    1   24 1
     5    2    3 1
     6    2    4 1
     7    3   25 1
     8    3   26 1
     9    3   27 1
    10    4    9 ar
    11    4    5 ar
    12    5    6 ar
    13    5   28 1
    14    6    7 ar
    15    7   13 ar
    16    7    8 ar
    17    8    9 ar
    18    8   10 ar
    19   10   11 ar
    20   10   14 1
    21   11   12 ar
    22   12   13 ar
    23   12   29 1
    24   14   15 1
    25   14   30 1
    26   15   20 ar
    27   15   16 ar
    28   16   17 ar
    29   16   31 1
    30   17   18 ar
    31   17   32 1
    32   18   19 ar
    33   18   33 1
    34   19   20 ar
    35   19   21 1
    36   20   34 1
@<TRIPOS>MOLECULE
ZINC03815082
   38    41     0     0     0
SMALL
USER_CHARGES

@<TRIPOS>ATOM
      1 C1          1.2158    2.0869   -1.4921 C.ar      1 <0>        -0.0726
      2 C2          1.1575    3.4234   -1.1473 C.ar      1 <0>        -0.1451
      3 C3          0.0416    3.9234   -0.4873 C.ar      1 <0>         0.1801
      4 C4         -1.0146    3.0777   -0.1750 C.ar      1 <0>        -0.1816
      5 C5         -0.9541    1.7390   -0.5274 C.ar      1 <0>         0.1336
      6 C6          0.1658    1.2440   -1.1815 C.ar      1 <0>        -0.1658
      7 O1         -1.9885    0.9098   -0.2281 O.3       1 <0>        -0.4975
      8 N1         -0.0175    5.2747   -0.1382 N.pl3     1 <0>        -0.6403
      9 C7          1.1572    5.9740    0.1482 C.2       1 <0>         0.3775
     10 C8          1.2675    7.4051    0.4136 C.ar      1 <0>        -0.3402
     11 C9          2.6325    7.6626    0.6499 C.ar      1 <0>         0.3996
     12 N2          3.2836    6.4722    0.5333 N.pl3     1 <0>        -0.4740
     13 H1          4.2684    6.3386    0.6447 H         1 <0>         0.4580
     14 N3          2.3597    5.4654    0.2334 N.2       1 <0>        -0.2824
     15 N4          3.0092    8.9118    0.9215 N.ar      1 <0>        -0.5687
     16 C10         2.1249    9.8842    0.9680 C.ar      1 <0>         0.3919
     17 N5          0.8362    9.6882    0.7536 N.ar      1 <0>        -0.5919
     18 C11         0.3624    8.4776    0.4739 C.ar      1 <0>         0.5120
     19 N6         -0.9871    8.2793    0.2498 N.pl3     1 <0>        -0.6414
     20 C12        -1.8562    9.3732    0.2043 C.ar      1 <0>         0.1630
     21 C13        -1.4131   10.5943   -0.2886 C.ar      1 <0>        -0.1048
     22 C14        -2.2738   11.6732   -0.3329 C.ar      1 <0>        -0.0853
     23 C15        -3.5761   11.5399    0.1127 C.ar      1 <0>        -0.1230
     24 C16        -4.0214   10.3252    0.6038 C.ar      1 <0>        -0.0144
     25 C17        -3.1659    9.2401    0.6462 C.ar      1 <0>        -0.1414
     26 Cl1        -5.6573   10.1622    1.1615 Cl        1 <0>        -0.0633
     27 H2          2.0839    1.7000   -2.0050 H         1 <0>         0.1324
     28 H3          1.9795    4.0801   -1.3912 H         1 <0>         0.1382
     29 H4         -1.8832    3.4635    0.3379 H         1 <0>         0.1316
     30 H5          0.2145    0.1996   -1.4521 H         1 <0>         0.1311
     31 H6         -1.9144    0.4852    0.6375 H         1 <0>         0.3939
     32 H7         -0.8743    5.7273   -0.0946 H         1 <0>         0.4133
     33 H8          2.4664   10.8842    1.1911 H         1 <0>         0.2102
     34 H9         -1.3310    7.3811    0.1240 H         1 <0>         0.4125
     35 H10        -0.3961   10.6997   -0.6365 H         1 <0>         0.1455
     36 H11        -1.9295   12.6224   -0.7163 H         1 <0>         0.1384
     37 H12        -4.2471   12.3854    0.0769 H         1 <0>         0.1360
     38 H13        -3.5146    8.2911    1.0258 H         1 <0>         0.1348
@<TRIPOS>BOND
     1    1    6 ar
     2    1    2 ar
     3    1   27 1
     4    2    3 ar
     5    2   28 1
     6    3    4 ar
     7    3    8 1
     8    4    5 ar
     9    4   29 1
    10    5    6 ar
    11    5    7 1
    12    6   30 1
    13    7   31 1
    14    8    9 1
    15    8   32 1
    16    9   14 2
    17    9   10 1
    18   10   18 ar
    19   10   11 ar
    20   11   12 1
    21   11   15 ar
    22   12   13 1
    23   12   14 1
    24   15   16 ar
    25   16   17 ar
    26   16   33 1
    27   17   18 ar
    28   18   19 1
    29   19   20 1
    30   19   34 1
    31   20   25 ar
    32   20   21 ar
    33   21   22 ar
    34   21   35 1
    35   22   23 ar
    36   22   36 1
    37   23   24 ar
    38   23   37 1
    39   24   25 ar
    40   24   26 1
    41   25   38 1
@<TRIPOS>MOLECULE
ZINC03815083
   34    35     0     0     0
SMALL
USER_CHARGES

@<TRIPOS>ATOM
      1 C1          3.1777   -3.3300    1.7386 C.3       1 <0>        -0.1178
      2 C2          2.7812   -2.3037    0.7088 C.ar      1 <0>        -0.0589
      3 C3          3.6195   -2.0364   -0.3583 C.ar      1 <0>        -0.1370
      4 C4          3.2592   -1.0961   -1.3059 C.ar      1 <0>        -0.0917
      5 C5          2.0581   -0.4237   -1.1919 C.ar      1 <0>        -0.1535
      6 C6          1.2164   -0.6859   -0.1188 C.ar      1 <0>         0.1677
      7 C7          1.5813   -1.6316    0.8313 C.ar      1 <0>        -0.1449
      8 N1          0.0021   -0.0041    0.0020 N.pl3     1 <0>        -0.6564
      9 C8         -0.0598    1.3555   -0.2671 C.ar      1 <0>         0.4550
     10 C9          1.1037    2.0827   -0.5002 C.ar      1 <0>        -0.3552
     11 C10         0.9880    3.4436   -0.7661 C.ar      1 <0>         0.4606
     12 N2         -0.2233    3.9972   -0.7879 N.ar      1 <0>        -0.6057
     13 C11        -1.3012    3.2744   -0.5620 C.ar      1 <0>         0.3765
     14 N3         -1.2338    1.9827   -0.3117 N.ar      1 <0>        -0.6063
     15 N4          2.1169    4.2121   -1.0045 N.pl3     1 <0>        -0.7055
     16 C12         3.4440    3.5922   -0.9775 C.3       1 <0>         0.1257
     17 C13         4.5080    4.6522   -1.2699 C.3       1 <0>         0.0637
     18 O1          4.5203    5.6179   -0.2167 O.3       1 <0>        -0.5703
     19 H1          2.8070   -4.3096    1.4367 H         1 <0>         0.0739
     20 H2          4.2641   -3.3620    1.8202 H         1 <0>         0.0697
     21 H3          2.7486   -3.0608    2.7038 H         1 <0>         0.0679
     22 H4          4.5575   -2.5635   -0.4518 H         1 <0>         0.1251
     23 H5          3.9159   -0.8900   -2.1381 H         1 <0>         0.1274
     24 H6          1.7753    0.3076   -1.9346 H         1 <0>         0.1274
     25 H7          0.9270   -1.8411    1.6646 H         1 <0>         0.1270
     26 H8         -0.7973   -0.4815    0.2740 H         1 <0>         0.4176
     27 H9          2.0711    1.6032   -0.4757 H         1 <0>         0.1456
     28 H10        -2.2687    3.7538   -0.5873 H         1 <0>         0.1984
     29 H11         2.0281    5.1602   -1.1892 H         1 <0>         0.4114
     30 H12         3.6230    3.1596    0.0068 H         1 <0>         0.0738
     31 H13         3.4945    2.8086   -1.7335 H         1 <0>         0.0803
     32 H14         5.4861    4.1760   -1.3377 H         1 <0>         0.0674
     33 H15         4.2784    5.1468   -2.2137 H         1 <0>         0.0562
     34 H16         5.1726    6.3217   -0.3360 H         1 <0>         0.3852
@<TRIPOS>BOND
     1    1    2 1
     2    1   19 1
     3    1   20 1
     4    1   21 1
     5    2    7 ar
     6    2    3 ar
     7    3    4 ar
     8    3   22 1
     9    4    5 ar
    10    4   23 1
    11    5    6 ar
    12    5   24 1
    13    6    7 ar
    14    6    8 1
    15    7   25 1
    16    8    9 1
    17    8   26 1
    18    9   14 ar
    19    9   10 ar
    20   10   11 ar
    21   10   27 1
    22   11   12 ar
    23   11   15 1
    24   12   13 ar
    25   13   14 ar
    26   13   28 1
    27   15   16 1
    28   15   29 1
    29   16   17 1
    30   16   30 1
    31   16   31 1
    32   17   18 1
    33   17   32 1
    34   17   33 1
    35   18   34 1
@<TRIPOS>MOLECULE
ZINC03815084
   33    36     0     0     0
SMALL
USER_CHARGES

@<TRIPOS>ATOM
      1 C1         -5.1219   10.9594    0.3985 C.ar      1 <0>        -0.0905
      2 C2         -4.0547   10.0872    0.4897 C.ar      1 <0>        -0.1333
      3 C3         -4.1670    8.7987   -0.0168 C.ar      1 <0>         0.1616
      4 C4         -5.3515    8.3930   -0.6186 C.ar      1 <0>        -0.0879
      5 C5         -6.4172    9.2685   -0.7021 C.ar      1 <0>        -0.0697
      6 C6         -6.3014   10.5515   -0.1962 C.ar      1 <0>        -0.1077
      7 Br1        -8.0327    8.7155   -1.5145 Br        1 <0>        -0.0437
      8 N1         -3.0887    7.9143    0.0736 N.pl3     1 <0>        -0.6438
      9 C7         -3.3178    6.5547    0.2283 C.ar      1 <0>         0.4853
     10 C8         -2.2667    5.6486    0.2057 C.ar      1 <0>        -0.2879
     11 C9         -2.4964    4.2759    0.3612 C.ar      1 <0>         0.2359
     12 C10        -1.3014    3.4113    0.3196 C.ar      1 <0>        -0.1258
     13 C11        -1.2577    2.0030    0.4443 C.ar      1 <0>        -0.0281
     14 C12        -0.0645    1.3317    0.3901 C.ar      1 <0>         0.0188
     15 C13         1.1389    2.0133    0.1994 C.ar      1 <0>         0.2398
     16 C14         1.1236    3.3941    0.0686 C.ar      1 <0>        -0.1499
     17 C15        -0.0764    4.0721    0.1286 C.ar      1 <0>        -0.0363
     18 S1         -0.5116    5.7890    0.0093 S.3       1 <0>         0.0916
     19 N2          2.3456    1.3122    0.1414 N.pl3     1 <0>        -0.8553
     20 F1         -0.0529   -0.0132    0.5179 F         1 <0>        -0.1353
     21 N3         -3.7857    3.9049    0.5315 N.ar      1 <0>        -0.5309
     22 C16        -4.7525    4.7877    0.5472 C.ar      1 <0>         0.3453
     23 N4         -4.5529    6.0849    0.4020 N.ar      1 <0>        -0.5495
     24 H1         -5.0346   11.9614    0.7919 H         1 <0>         0.1375
     25 H2         -3.1338   10.4067    0.9547 H         1 <0>         0.1321
     26 H3         -5.4407    7.3931   -1.0171 H         1 <0>         0.1471
     27 H4         -7.1341   11.2356   -0.2665 H         1 <0>         0.1348
     28 H5         -2.1801    8.2509    0.0282 H         1 <0>         0.4235
     29 H6         -2.1747    1.4511    0.5884 H         1 <0>         0.1504
     30 H7          2.0463    3.9357   -0.0791 H         1 <0>         0.1479
     31 H8          2.3504    0.3466    0.2338 H         1 <0>         0.4096
     32 H9          3.1787    1.7909    0.0087 H         1 <0>         0.4094
     33 H10        -5.7645    4.4372    0.6862 H         1 <0>         0.2051
@<TRIPOS>BOND
     1    1    6 ar
     2    1    2 ar
     3    1   24 1
     4    2    3 ar
     5    2   25 1
     6    3    4 ar
     7    3    8 1
     8    4    5 ar
     9    4   26 1
    10    5    6 ar
    11    5    7 1
    12    6   27 1
    13    8    9 1
    14    8   28 1
    15    9   23 ar
    16    9   10 ar
    17   10   18 1
    18   10   11 ar
    19   11   12 1
    20   11   21 ar
    21   12   17 ar
    22   12   13 ar
    23   13   14 ar
    24   13   29 1
    25   14   15 ar
    26   14   20 1
    27   15   16 ar
    28   15   19 1
    29   16   17 ar
    30   16   30 1
    31   17   18 1
    32   19   31 1
    33   19   32 1
    34   21   22 ar
    35   22   23 ar
    36   22   33 1
@<TRIPOS>MOLECULE
ZINC03815085
   53    56     0     0     0
SMALL
USER_CHARGES

@<TRIPOS>ATOM
      1 C1          4.0877   -4.5419    0.2273 C.ar      1 <0>        -0.0893
      2 C2          2.8497   -3.9414    0.3484 C.ar      1 <0>        -0.1183
      3 C3          2.6507   -2.6577   -0.1435 C.ar      1 <0>         0.1219
      4 C4          3.6968   -1.9837   -0.7607 C.ar      1 <0>        -0.0779
      5 C5          4.9342   -2.5880   -0.8745 C.ar      1 <0>        -0.0735
      6 C6          5.1286   -3.8672   -0.3832 C.ar      1 <0>        -0.0844
      7 Br1         6.3610   -1.6696   -1.7092 Br        1 <0>        -0.0225
      8 N1          1.3990   -2.0477   -0.0227 N.pl3     1 <0>        -0.6068
      9 C7          1.3107   -0.6807    0.1420 C.ar      1 <0>         0.4683
     10 C8          0.0199    0.0007    0.1513 C.ar      1 <0>        -0.0706
     11 C9         -1.1978   -0.6656   -0.0016 C.ar      1 <0>        -0.1332
     12 C10        -2.3630    0.0813    0.0236 C.ar      1 <0>         0.3885
     13 C11        -1.2204    2.0754    0.3421 C.ar      1 <0>         0.2331
     14 C12         0.0114    1.4085    0.3253 C.ar      1 <0>         0.1299
     15 N2          1.1830    2.0416    0.4719 N.ar      1 <0>        -0.5214
     16 C13         2.3130    1.3790    0.4556 C.ar      1 <0>         0.3918
     17 N3          2.3967    0.0674    0.2979 N.ar      1 <0>        -0.5410
     18 N4         -3.5889   -0.5624   -0.1270 N.pl3     1 <0>        -0.7243
     19 C14        -3.6357   -2.0152   -0.3097 C.3       1 <0>         0.1189
     20 C15        -5.0914   -2.4649   -0.4496 C.3       1 <0>        -0.1681
     21 C16        -5.1404   -3.9822   -0.6405 C.3       1 <0>        -0.0008
     22 C17        -7.2777   -4.2017    0.4779 C.3       1 <0>        -0.0431
     23 C18        -8.7399   -4.6081    0.2760 C.3       1 <0>         0.0335
     24 O1         -8.7952   -5.9686   -0.1615 O.3       1 <0>        -0.3524
     25 C19        -8.0856   -6.2110   -1.3793 C.3       1 <0>         0.0327
     26 C20        -6.6168   -5.8208   -1.1942 C.3       1 <0>        -0.0385
     27 H1          4.2427   -5.5400    0.6097 H         1 <0>         0.1454
     28 H2          2.0373   -4.4693    0.8254 H         1 <0>         0.1338
     29 H3          3.5442   -0.9870   -1.1479 H         1 <0>         0.1472
     30 H4          6.0953   -4.3394   -0.4772 H         1 <0>         0.1442
     31 H5          0.5923   -2.5855   -0.0548 H         1 <0>         0.4236
     32 H6         -1.2297   -1.7368   -0.1359 H         1 <0>         0.1768
     33 H7         -1.2521    3.1469    0.4732 H         1 <0>         0.2222
     34 H8          3.2303    1.9357    0.5779 H         1 <0>         0.2238
     35 H9         -4.4116   -0.0488   -0.1109 H         1 <0>         0.4192
     36 H10        -3.0837   -2.2862   -1.2097 H         1 <0>         0.0934
     37 H11        -3.1856   -2.5047    0.5539 H         1 <0>         0.0931
     38 H12        -5.6435   -2.1939    0.4503 H         1 <0>         0.1016
     39 H13        -5.5416   -1.9754   -1.3132 H         1 <0>         0.1022
     40 H14        -4.5883   -4.2532   -1.5404 H         1 <0>         0.1386
     41 H15        -4.6902   -4.4717    0.2231 H         1 <0>         0.1392
     42 H16        -6.8369   -4.8091    1.2683 H         1 <0>         0.1432
     43 H17        -7.2277   -3.1490    0.7562 H         1 <0>         0.1377
     44 H18        -9.1958   -3.9649   -0.4767 H         1 <0>         0.0822
     45 H19        -9.2793   -4.5064    1.2177 H         1 <0>         0.1440
     46 H20        -8.5226   -5.6144   -2.1801 H         1 <0>         0.0832
     47 H21        -8.1519   -7.2686   -1.6348 H         1 <0>         0.1462
     48 H22        -6.0844   -5.9501   -2.1365 H         1 <0>         0.1438
     49 H23        -6.1655   -6.4542   -0.4305 H         1 <0>         0.1434
     50 N5         -2.4118    1.4432    0.1898 N.ar      1 <0>        -0.4908
     51 H24        -3.3014    1.9559    0.1983 H         1 <0>         0.4789
     52 N6         -6.5510   -4.3994   -0.7936 N.4       1 <0>        -0.3966
     53 H25        -6.9913   -3.8260   -1.5227 H         1 <0>         0.4283
@<TRIPOS>BOND
     1    1    6 ar
     2    1    2 ar
     3    1   27 1
     4    2    3 ar
     5    2   28 1
     6    3    4 ar
     7    3    8 1
     8    4    5 ar
     9    4   29 1
    10    5    6 ar
    11    5    7 1
    12    6   30 1
    13    8    9 1
    14    8   31 1
    15    9   17 ar
    16    9   10 ar
    17   10   14 ar
    18   10   11 ar
    19   11   12 ar
    20   11   32 1
    21   12   18 1
    22   12   50 ar
    23   13   14 ar
    24   13   33 1
    25   13   50 ar
    26   14   15 ar
    27   15   16 ar
    28   16   17 ar
    29   16   34 1
    30   18   19 1
    31   18   35 1
    32   19   20 1
    33   19   36 1
    34   19   37 1
    35   20   21 1
    36   20   38 1
    37   20   39 1
    38   21   40 1
    39   21   41 1
    40   21   52 1
    41   22   23 1
    42   22   42 1
    43   22   43 1
    44   22   52 1
    45   23   24 1
    46   23   44 1
    47   23   45 1
    48   24   25 1
    49   25   26 1
    50   25   46 1
    51   25   47 1
    52   26   48 1
    53   26   49 1
    54   26   52 1
    55   50   51 1
    56   52   53 1
@<TRIPOS>MOLECULE
ZINC03815086
   36    39     0     0     0
SMALL
USER_CHARGES

@<TRIPOS>ATOM
      1 C1          0.0414    0.7893    0.1043 C.3       1 <0>         0.0859
      2 N1         -0.6788    1.3837    1.2331 N.pl3     1 <0>        -0.7386
      3 C2         -1.9944    1.0023    1.5000 C.ar      1 <0>         0.2623
      4 C3         -2.6304    0.0563    0.6971 C.ar      1 <0>        -0.1992
      5 C4         -3.9109   -0.3293    0.9394 C.ar      1 <0>         0.0089
      6 C5         -4.6417    0.2182    2.0183 C.ar      1 <0>        -0.1545
      7 C6         -3.9828    1.1697    2.8158 C.ar      1 <0>        -0.0247
      8 C7         -2.6816    1.5566    2.5711 C.ar      1 <0>        -0.1721
      9 S1         -5.1799    1.6258    4.0443 S.3       1 <0>         0.0750
     10 C8         -6.5220    0.5912    3.5271 C.ar      1 <0>        -0.2905
     11 C9         -6.0294   -0.0954    2.4101 C.ar      1 <0>         0.2390
     12 N2         -6.8827   -0.9645    1.8231 N.ar      1 <0>        -0.5336
     13 C10        -8.0959   -1.1439    2.2824 C.ar      1 <0>         0.3430
     14 N3         -8.5752   -0.5053    3.3338 N.ar      1 <0>        -0.5525
     15 C11        -7.8137    0.3741    3.9850 C.ar      1 <0>         0.4836
     16 N4         -8.3003    1.0549    5.0915 N.pl3     1 <0>        -0.6449
     17 C12        -9.6384    0.9103    5.4682 C.ar      1 <0>         0.1630
     18 C13        -9.9946    0.9718    6.8098 C.ar      1 <0>        -0.1341
     19 C14       -11.3175    0.8291    7.1789 C.ar      1 <0>        -0.0906
     20 C15       -12.2881    0.6251    6.2152 C.ar      1 <0>        -0.1087
     21 C16       -11.9373    0.5632    4.8782 C.ar      1 <0>        -0.0694
     22 C17       -10.6156    0.7106    4.5018 C.ar      1 <0>        -0.0883
     23 Br1       -13.2684    0.2847    3.5642 Br        1 <0>        -0.0445
     24 H1          0.1027   -0.2904    0.2404 H         1 <0>         0.0587
     25 H2          1.0470    1.2069    0.0545 H         1 <0>         0.0792
     26 H3         -0.4896    1.0093   -0.8219 H         1 <0>         0.0587
     27 H4         -0.2413    2.0423    1.7950 H         1 <0>         0.4063
     28 H5         -2.0949   -0.3784   -0.1340 H         1 <0>         0.1332
     29 H6         -4.3762   -1.0641    0.2991 H         1 <0>         0.1360
     30 H7         -2.2026    2.2876    3.2056 H         1 <0>         0.1364
     31 H8         -8.7367   -1.8504    1.7756 H         1 <0>         0.2033
     32 H9         -7.7119    1.6312    5.6038 H         1 <0>         0.4231
     33 H10        -9.2374    1.1307    7.5632 H         1 <0>         0.1318
     34 H11       -11.5946    0.8772    8.2217 H         1 <0>         0.1372
     35 H12       -13.3221    0.5141    6.5067 H         1 <0>         0.1345
     36 H13       -10.3426    0.6664    3.4578 H         1 <0>         0.1471
@<TRIPOS>BOND
     1    1    2 1
     2    1   24 1
     3    1   25 1
     4    1   26 1
     5    2    3 1
     6    2   27 1
     7    3    8 ar
     8    3    4 ar
     9    4    5 ar
    10    4   28 1
    11    5    6 ar
    12    5   29 1
    13    6   11 1
    14    6    7 ar
    15    7    8 ar
    16    7    9 1
    17    8   30 1
    18    9   10 1
    19   10   15 ar
    20   10   11 ar
    21   11   12 ar
    22   12   13 ar
    23   13   14 ar
    24   13   31 1
    25   14   15 ar
    26   15   16 1
    27   16   17 1
    28   16   32 1
    29   17   22 ar
    30   17   18 ar
    31   18   19 ar
    32   18   33 1
    33   19   20 ar
    34   19   34 1
    35   20   21 ar
    36   20   35 1
    37   21   22 ar
    38   21   23 1
    39   22   36 1
@<TRIPOS>MOLECULE
ZINC03815087
   45    47     0     0     0
SMALL
USER_CHARGES

@<TRIPOS>ATOM
      1 C1         -4.6716   -4.6187    0.5724 C.3       1 <0>        -0.0526
      2 C2         -6.4894   -4.3613   -1.0062 C.3       1 <0>        -0.0444
      3 C3         -5.0914   -2.4643   -0.4498 C.3       1 <0>        -0.0193
      4 C4         -3.6357   -2.0147   -0.3098 C.3       1 <0>         0.0901
      5 N1         -3.5888   -0.5619   -0.1270 N.pl3     1 <0>        -0.7240
      6 C5         -2.3630    0.0818    0.0237 C.ar      1 <0>         0.3849
      7 C6         -1.1975   -0.6654   -0.0016 C.ar      1 <0>        -0.1315
      8 C7          0.0199    0.0007    0.1514 C.ar      1 <0>        -0.0731
      9 C8          0.0114    1.4088    0.3255 C.ar      1 <0>         0.1336
     10 C9         -1.2200    2.0755    0.3424 C.ar      1 <0>         0.2393
     11 N2          1.1832    2.0418    0.4722 N.ar      1 <0>        -0.5196
     12 C10         2.3130    1.3791    0.4558 C.ar      1 <0>         0.3948
     13 N3          2.3968    0.0675    0.2981 N.ar      1 <0>        -0.5387
     14 C11         1.3108   -0.6806    0.1421 C.ar      1 <0>         0.4682
     15 N4          1.3992   -2.0476   -0.0228 N.pl3     1 <0>        -0.6061
     16 C12         2.6510   -2.6575   -0.1435 C.ar      1 <0>         0.1196
     17 C13         2.8501   -3.9416    0.3485 C.ar      1 <0>        -0.1181
     18 C14         4.0878   -4.5418    0.2275 C.ar      1 <0>        -0.0889
     19 C15         5.1289   -3.8668   -0.3832 C.ar      1 <0>        -0.0831
     20 C16         4.9344   -2.5882   -0.8748 C.ar      1 <0>        -0.0735
     21 C17         3.6967   -1.9836   -0.7606 C.ar      1 <0>        -0.0776
     22 Br1         6.3609   -1.6700   -1.7100 Br        1 <0>        -0.0208
     23 H1         -5.3080   -4.3519    1.4161 H         1 <0>         0.1296
     24 H2         -4.7167   -5.6956    0.4094 H         1 <0>         0.1338
     25 H3         -3.6435   -4.3264    0.7861 H         1 <0>         0.1196
     26 H4         -6.7829   -3.8819   -1.9400 H         1 <0>         0.1266
     27 H5         -6.4960   -5.4436   -1.1357 H         1 <0>         0.1328
     28 H6         -7.1917   -4.0852   -0.2196 H         1 <0>         0.1285
     29 H7         -5.6435   -2.1934    0.4502 H         1 <0>         0.1449
     30 H8         -5.5415   -1.9747   -1.3133 H         1 <0>         0.1433
     31 H9         -3.0837   -2.2856   -1.2098 H         1 <0>         0.1021
     32 H10        -3.1856   -2.5043    0.5537 H         1 <0>         0.1017
     33 H11        -4.4115   -0.0483   -0.1109 H         1 <0>         0.4239
     34 H12        -1.2293   -1.7366   -0.1359 H         1 <0>         0.1751
     35 H13        -1.2516    3.1470    0.4735 H         1 <0>         0.2247
     36 H14         3.2304    1.9358    0.5779 H         1 <0>         0.2254
     37 H15         0.5925   -2.5854   -0.0548 H         1 <0>         0.4224
     38 H16         2.0377   -4.4696    0.8256 H         1 <0>         0.1334
     39 H17         4.2428   -5.5399    0.6098 H         1 <0>         0.1459
     40 H18         6.0958   -4.3388   -0.4768 H         1 <0>         0.1449
     41 H19         3.5441   -0.9870   -1.1477 H         1 <0>         0.1471
     42 N5         -5.1208   -3.9278   -0.6546 N.4       1 <0>        -0.3938
     43 H20        -4.4862   -4.1696   -1.4248 H         1 <0>         0.4353
     44 N6         -2.4116    1.4433    0.1898 N.ar      1 <0>        -0.4871
     45 H21        -3.3012    1.9560    0.1983 H         1 <0>         0.4810
@<TRIPOS>BOND
     1    1   23 1
     2    1   24 1
     3    1   25 1
     4    1   42 1
     5    2   26 1
     6    2   27 1
     7    2   28 1
     8    2   42 1
     9    3    4 1
    10    3   29 1
    11    3   30 1
    12    3   42 1
    13    4    5 1
    14    4   31 1
    15    4   32 1
    16    5    6 1
    17    5   33 1
    18    6    7 ar
    19    6   44 ar
    20    7    8 ar
    21    7   34 1
    22    8   14 ar
    23    8    9 ar
    24    9   10 ar
    25    9   11 ar
    26   10   35 1
    27   10   44 ar
    28   11   12 ar
    29   12   13 ar
    30   12   36 1
    31   13   14 ar
    32   14   15 1
    33   15   16 1
    34   15   37 1
    35   16   21 ar
    36   16   17 ar
    37   17   18 ar
    38   17   38 1
    39   18   19 ar
    40   18   39 1
    41   19   20 ar
    42   19   40 1
    43   20   21 ar
    44   20   22 1
    45   21   41 1
    46   42   43 1
    47   44   45 1
@<TRIPOS>MOLECULE
ZINC03815088
   36    38     0     0     0
SMALL
USER_CHARGES

@<TRIPOS>ATOM
      1 C1         -2.3863    9.7100    0.3182 C.3       1 <0>         0.0712
      2 N1         -1.0648   10.3352    0.4129 N.pl3     1 <0>        -0.7112
      3 C2          0.0824    9.5459    0.3863 C.ar      1 <0>         0.3994
      4 C3         -0.0428    8.1718    0.2699 C.ar      1 <0>        -0.1379
      5 C4          1.1206    7.4005    0.2453 C.ar      1 <0>        -0.0642
      6 C5          2.3763    8.0540    0.3401 C.ar      1 <0>         0.1190
      7 C6          2.3995    9.4496    0.4549 C.ar      1 <0>         0.2226
      8 N2          3.4888    7.3077    0.3163 N.ar      1 <0>        -0.5234
      9 C7          3.4226    6.0039    0.2080 C.ar      1 <0>         0.3818
     10 N3          2.2882    5.3276    0.1205 N.ar      1 <0>        -0.5487
     11 C8          1.1128    5.9456    0.1266 C.ar      1 <0>         0.4710
     12 N4         -0.0690    5.2401    0.0304 N.pl3     1 <0>        -0.6101
     13 C9         -0.0435    3.8623   -0.2034 C.ar      1 <0>         0.1247
     14 C10         0.9630    3.3071   -0.9838 C.ar      1 <0>        -0.0728
     15 C11         0.9851    1.9457   -1.2131 C.ar      1 <0>        -0.0956
     16 C12         0.0067    1.1349   -0.6669 C.ar      1 <0>        -0.0686
     17 C13        -0.9996    1.6849    0.1055 C.ar      1 <0>        -0.1596
     18 C14        -1.0244    3.0452    0.3436 C.ar      1 <0>        -0.0842
     19 C15        -2.0670    0.7983    0.6935 C.3       1 <0>         0.5088
     20 F1         -1.8279   -0.5290    0.3215 F         1 <0>        -0.1706
     21 F2         -2.0441    0.9031    2.0883 F         1 <0>        -0.1735
     22 F3         -3.3200    1.1977    0.2163 F         1 <0>        -0.1740
     23 H1         -2.4637    9.1646   -0.6223 H         1 <0>         0.0795
     24 H2         -2.5222    9.0197    1.1508 H         1 <0>         0.0793
     25 H3         -3.1563   10.4806    0.3558 H         1 <0>         0.1065
     26 H4         -0.9888   11.2988    0.4942 H         1 <0>         0.4213
     27 H5         -1.0158    7.7085    0.1996 H         1 <0>         0.1803
     28 H6          3.3434    9.9693    0.5282 H         1 <0>         0.2179
     29 H7          4.3483    5.4477    0.1935 H         1 <0>         0.2198
     30 H8         -0.9177    5.7003    0.1250 H         1 <0>         0.4273
     31 H9          1.7271    3.9397   -1.4109 H         1 <0>         0.1462
     32 H10         1.7670    1.5135   -1.8199 H         1 <0>         0.1476
     33 H11         0.0263    0.0703   -0.8478 H         1 <0>         0.1482
     34 H12        -1.8084    3.4736    0.9504 H         1 <0>         0.1402
     35 N5          1.2778   10.2138    0.4803 N.ar      1 <0>        -0.4962
     36 H13         1.3213   11.2361    0.5652 H         1 <0>         0.4781
@<TRIPOS>BOND
     1    1    2 1
     2    1   23 1
     3    1   24 1
     4    1   25 1
     5    2    3 1
     6    2   26 1
     7    3    4 ar
     8    3   35 ar
     9    4    5 ar
    10    4   27 1
    11    5   11 ar
    12    5    6 ar
    13    6    7 ar
    14    6    8 ar
    15    7   28 1
    16    7   35 ar
    17    8    9 ar
    18    9   10 ar
    19    9   29 1
    20   10   11 ar
    21   11   12 1
    22   12   13 1
    23   12   30 1
    24   13   18 ar
    25   13   14 ar
    26   14   15 ar
    27   14   31 1
    28   15   16 ar
    29   15   32 1
    30   16   17 ar
    31   16   33 1
    32   17   18 ar
    33   17   19 1
    34   18   34 1
    35   19   20 1
    36   19   21 1
    37   19   22 1
    38   35   36 1
@<TRIPOS>MOLECULE
ZINC03815089
   38    41     0     0     0
SMALL
USER_CHARGES

@<TRIPOS>ATOM
      1 C1          1.4363   -6.8871   -0.6802 C.3       1 <0>         0.0272
      2 O1          0.7178   -5.6570   -0.5671 O.3       1 <0>        -0.3174
      3 C2          1.4439   -4.5412   -0.2897 C.ar      1 <0>         0.1070
      4 C3          2.8223   -4.6321   -0.1294 C.ar      1 <0>        -0.1728
      5 C4          3.5699   -3.5090    0.1516 C.ar      1 <0>        -0.0943
      6 C5          2.9487   -2.2708    0.2792 C.ar      1 <0>         0.1015
      7 C6          1.5586   -2.1780    0.1178 C.ar      1 <0>        -0.0486
      8 C7          0.8104   -3.3185   -0.1670 C.ar      1 <0>        -0.1137
      9 C8          1.2087   -0.7593    0.3096 C.ar      1 <0>        -0.1684
     10 C9          2.4082   -0.0842    0.5747 C.ar      1 <0>         0.1919
     11 N1          3.4409   -1.0043    0.5529 N.pl3     1 <0>        -0.6145
     12 H1          4.3751   -0.7935    0.7066 H         1 <0>         0.4189
     13 C10         2.3826    1.2895    0.7999 C.ar      1 <0>        -0.1935
     14 C11         1.1875    1.9766    0.7619 C.ar      1 <0>        -0.0322
     15 C12         0.0002    1.3140    0.5004 C.ar      1 <0>        -0.2288
     16 C13         0.0016   -0.0534    0.2732 C.ar      1 <0>         0.2608
     17 N2         -1.1943   -0.7219    0.0092 N.pl3     1 <0>        -0.6781
     18 C14        -2.4123   -0.0484    0.1295 C.ar      1 <0>         0.1728
     19 C15        -2.6325    0.8058    1.2031 C.ar      1 <0>        -0.1342
     20 C16        -3.8353    1.4746    1.3163 C.ar      1 <0>        -0.0875
     21 C17        -4.8249    1.2866    0.3688 C.ar      1 <0>        -0.1121
     22 C18        -4.6116    0.4325   -0.6987 C.ar      1 <0>        -0.0644
     23 C19        -3.4079   -0.2355   -0.8208 C.ar      1 <0>        -0.1244
     24 Br1        -5.9684    0.1785   -1.9911 Br        1 <0>        -0.0447
     25 H2          0.7398   -7.6955   -0.9028 H         1 <0>         0.1009
     26 H3          2.1690   -6.8073   -1.4832 H         1 <0>         0.0556
     27 H4          1.9480   -7.0967    0.2591 H         1 <0>         0.0556
     28 H5          3.3109   -5.5903   -0.2269 H         1 <0>         0.1358
     29 H6          4.6398   -3.5905    0.2742 H         1 <0>         0.1291
     30 H7         -0.2600   -3.2476   -0.2918 H         1 <0>         0.1246
     31 H8          3.3016    1.8187    1.0046 H         1 <0>         0.1242
     32 H9          1.1776    3.0421    0.9379 H         1 <0>         0.1319
     33 H10        -0.9285    1.8645    0.4690 H         1 <0>         0.1352
     34 H11        -1.1800   -1.6543   -0.2579 H         1 <0>         0.4111
     35 H12        -1.8620    0.9499    1.9461 H         1 <0>         0.1383
     36 H13        -4.0052    2.1417    2.1485 H         1 <0>         0.1373
     37 H14        -5.7665    1.8073    0.4624 H         1 <0>         0.1348
     38 H15        -3.2417   -0.9024   -1.6539 H         1 <0>         0.1351
@<TRIPOS>BOND
     1    1    2 1
     2    1   25 1
     3    1   26 1
     4    1   27 1
     5    2    3 1
     6    3    8 ar
     7    3    4 ar
     8    4    5 ar
     9    4   28 1
    10    5    6 ar
    11    5   29 1
    12    6   11 1
    13    6    7 ar
    14    7    8 ar
    15    7    9 1
    16    8   30 1
    17    9   16 ar
    18    9   10 ar
    19   10   11 1
    20   10   13 ar
    21   11   12 1
    22   13   14 ar
    23   13   31 1
    24   14   15 ar
    25   14   32 1
    26   15   16 ar
    27   15   33 1
    28   16   17 1
    29   17   18 1
    30   17   34 1
    31   18   23 ar
    32   18   19 ar
    33   19   20 ar
    34   19   35 1
    35   20   21 ar
    36   20   36 1
    37   21   22 ar
    38   21   37 1
    39   22   23 ar
    40   22   24 1
    41   23   38 1
@<TRIPOS>MOLECULE
ZINC03815090
   48    50     0     0     0
SMALL
USER_CHARGES

@<TRIPOS>ATOM
      1 C1         -7.1356   -3.8862   -2.0093 C.3       1 <0>        -0.0493
      2 C2         -6.6442   -5.8775   -0.7224 C.3       1 <0>        -0.0447
      3 C3         -5.1405   -3.9816   -0.6407 C.3       1 <0>        -0.0025
      4 C4         -5.0914   -2.4643   -0.4498 C.3       1 <0>        -0.1686
      5 C5         -3.6357   -2.0147   -0.3098 C.3       1 <0>         0.1183
      6 N1         -3.5888   -0.5619   -0.1270 N.pl3     1 <0>        -0.7239
      7 C6         -2.3630    0.0818    0.0237 C.ar      1 <0>         0.3891
      8 C7         -1.1975   -0.6654   -0.0016 C.ar      1 <0>        -0.1334
      9 C8          0.0199    0.0007    0.1514 C.ar      1 <0>        -0.0703
     10 C9          0.0114    1.4088    0.3255 C.ar      1 <0>         0.1295
     11 C10        -1.2200    2.0755    0.3424 C.ar      1 <0>         0.2323
     12 N2          1.1832    2.0418    0.4722 N.ar      1 <0>        -0.5214
     13 C11         2.3130    1.3791    0.4558 C.ar      1 <0>         0.3916
     14 N3          2.3968    0.0675    0.2981 N.ar      1 <0>        -0.5412
     15 C12         1.3108   -0.6806    0.1421 C.ar      1 <0>         0.4682
     16 N4          1.3992   -2.0476   -0.0228 N.pl3     1 <0>        -0.6069
     17 C13         2.6510   -2.6575   -0.1435 C.ar      1 <0>         0.1220
     18 C14         2.8501   -3.9416    0.3485 C.ar      1 <0>        -0.1184
     19 C15         4.0878   -4.5418    0.2275 C.ar      1 <0>        -0.0893
     20 C16         5.1289   -3.8668   -0.3832 C.ar      1 <0>        -0.0845
     21 C17         4.9344   -2.5882   -0.8748 C.ar      1 <0>        -0.0736
     22 C18         3.6967   -1.9836   -0.7606 C.ar      1 <0>        -0.0779
     23 Br1         6.3609   -1.6700   -1.7100 Br        1 <0>        -0.0225
     24 H1         -6.5733   -4.2499   -2.8693 H         1 <0>         0.1267
     25 H2         -8.1703   -4.2209   -2.0838 H         1 <0>         0.1288
     26 H3         -7.1066   -2.7968   -1.9905 H         1 <0>         0.1192
     27 H4         -6.2580   -6.2357    0.2319 H         1 <0>         0.1246
     28 H5         -7.6893   -6.1700   -0.8242 H         1 <0>         0.1285
     29 H6         -6.0641   -6.3133   -1.5358 H         1 <0>         0.1265
     30 H7         -4.5884   -4.2525   -1.5407 H         1 <0>         0.1381
     31 H8         -4.6904   -4.4712    0.2229 H         1 <0>         0.1364
     32 H9         -5.6435   -2.1934    0.4502 H         1 <0>         0.1017
     33 H10        -5.5415   -1.9747   -1.3133 H         1 <0>         0.1019
     34 H11        -3.0837   -2.2856   -1.2098 H         1 <0>         0.0927
     35 H12        -3.1856   -2.5043    0.5537 H         1 <0>         0.0928
     36 H13        -4.4115   -0.0483   -0.1109 H         1 <0>         0.4193
     37 H14        -1.2293   -1.7366   -0.1359 H         1 <0>         0.1768
     38 H15        -1.2516    3.1470    0.4735 H         1 <0>         0.2220
     39 H16         3.2304    1.9358    0.5779 H         1 <0>         0.2237
     40 H17         0.5925   -2.5854   -0.0548 H         1 <0>         0.4237
     41 H18         2.0377   -4.4696    0.8256 H         1 <0>         0.1338
     42 H19         4.2428   -5.5399    0.6098 H         1 <0>         0.1454
     43 H20         6.0958   -4.3388   -0.4768 H         1 <0>         0.1441
     44 H21         3.5441   -0.9870   -1.1477 H         1 <0>         0.1472
     45 N5         -6.5528   -4.4026   -0.7529 N.4       1 <0>        -0.3978
     46 H22        -7.0791   -4.0193    0.0411 H         1 <0>         0.4331
     47 N6         -2.4116    1.4433    0.1898 N.ar      1 <0>        -0.4909
     48 H23        -3.3012    1.9560    0.1983 H         1 <0>         0.4789
@<TRIPOS>BOND
     1    1   24 1
     2    1   25 1
     3    1   26 1
     4    1   45 1
     5    2   27 1
     6    2   28 1
     7    2   29 1
     8    2   45 1
     9    3    4 1
    10    3   30 1
    11    3   31 1
    12    3   45 1
    13    4    5 1
    14    4   32 1
    15    4   33 1
    16    5    6 1
    17    5   34 1
    18    5   35 1
    19    6    7 1
    20    6   36 1
    21    7    8 ar
    22    7   47 ar
    23    8    9 ar
    24    8   37 1
    25    9   15 ar
    26    9   10 ar
    27   10   11 ar
    28   10   12 ar
    29   11   38 1
    30   11   47 ar
    31   12   13 ar
    32   13   14 ar
    33   13   39 1
    34   14   15 ar
    35   15   16 1
    36   16   17 1
    37   16   40 1
    38   17   22 ar
    39   17   18 ar
    40   18   19 ar
    41   18   41 1
    42   19   20 ar
    43   19   42 1
    44   20   21 ar
    45   20   43 1
    46   21   22 ar
    47   21   23 1
    48   22   44 1
    49   45   46 1
    50   47   48 1
@<TRIPOS>MOLECULE
ZINC03815091
   45    48     0     0     0
SMALL
USER_CHARGES

@<TRIPOS>ATOM
      1 C1         -5.9154    1.7466    0.0319 C.ar      1 <0>        -0.0684
      2 C2         -6.0071    2.6667    1.0654 C.ar      1 <0>        -0.1637
      3 C3         -4.9066    2.8855    1.8718 C.ar      1 <0>         0.1056
      4 N1         -3.7813    2.2277    1.6706 N.ar      1 <0>        -0.4846
      5 C4         -3.6565    1.3497    0.6948 C.ar      1 <0>         0.1139
      6 C5         -4.7148    1.0785   -0.1520 C.ar      1 <0>        -0.1618
      7 C6         -2.3467    0.6289    0.5045 C.3       1 <0>        -0.0773
      8 C7         -1.2190    1.6518    0.3531 C.3       1 <0>         0.1168
      9 N2          0.0542    0.9512    0.1681 N.pl3     1 <0>        -0.7089
     10 C8          1.2309    1.6774    0.0017 C.ar      1 <0>         0.4029
     11 C9          1.1816    3.0611    0.0192 C.ar      1 <0>        -0.1367
     12 C10         2.3734    3.7685   -0.1490 C.ar      1 <0>        -0.0642
     13 C11         3.5792    3.0431   -0.3301 C.ar      1 <0>         0.1197
     14 C12         3.5265    1.6436   -0.3329 C.ar      1 <0>         0.2204
     15 N3          4.7193    3.7283   -0.4905 N.ar      1 <0>        -0.5246
     16 C13         4.7246    5.0382   -0.4811 C.ar      1 <0>         0.3824
     17 N4          3.6400    5.7791   -0.3180 N.ar      1 <0>        -0.5481
     18 C14         2.4445    5.2265   -0.1480 C.ar      1 <0>         0.4695
     19 N5          1.3145    5.9997    0.0219 N.pl3     1 <0>        -0.6086
     20 C15         1.4281    7.3882    0.1343 C.ar      1 <0>         0.1291
     21 C16         0.4204    8.2110   -0.3536 C.ar      1 <0>        -0.1180
     22 C17         0.5351    9.5824   -0.2408 C.ar      1 <0>        -0.0898
     23 C18         1.6516   10.1378    0.3572 C.ar      1 <0>        -0.0886
     24 C19         2.6570    9.3218    0.8446 C.ar      1 <0>        -0.0737
     25 C20         2.5458    7.9482    0.7391 C.ar      1 <0>        -0.0784
     26 Br1         4.1813   10.0862    1.6619 Br        1 <0>        -0.0292
     27 H1         -6.7592    1.5553   -0.6145 H         1 <0>         0.1408
     28 H2         -6.9272    3.2052    1.2380 H         1 <0>         0.1417
     29 H3         -4.9699    3.6004    2.6788 H         1 <0>         0.1619
     30 H4         -4.6077    0.3550   -0.9466 H         1 <0>         0.1368
     31 H5         -2.3991    0.0106   -0.3916 H         1 <0>         0.0931
     32 H6         -2.1504   -0.0027    1.3709 H         1 <0>         0.0967
     33 H7         -1.1666    2.2702    1.2492 H         1 <0>         0.0979
     34 H8         -1.4154    2.2835   -0.5132 H         1 <0>         0.0842
     35 H9          0.0771   -0.0185    0.1575 H         1 <0>         0.4189
     36 H10         0.2449    3.5800    0.1599 H         1 <0>         0.1791
     37 H11         4.4313    1.0699   -0.4690 H         1 <0>         0.2173
     38 H12         5.6698    5.5434   -0.6145 H         1 <0>         0.2189
     39 H13         0.4411    5.5796    0.0633 H         1 <0>         0.4271
     40 H14        -0.4517    7.7782   -0.8210 H         1 <0>         0.1353
     41 H15        -0.2482   10.2221   -0.6196 H         1 <0>         0.1440
     42 H16         1.7387   11.2108    0.4441 H         1 <0>         0.1417
     43 H17         3.3290    7.3112    1.1230 H         1 <0>         0.1478
     44 N6          2.3770    0.9410   -0.1649 N.ar      1 <0>        -0.4962
     45 H18         2.3658   -0.0856   -0.1627 H         1 <0>         0.4775
@<TRIPOS>BOND
     1    1    6 ar
     2    1    2 ar
     3    1   27 1
     4    2    3 ar
     5    2   28 1
     6    3    4 ar
     7    3   29 1
     8    4    5 ar
     9    5    6 ar
    10    5    7 1
    11    6   30 1
    12    7    8 1
    13    7   31 1
    14    7   32 1
    15    8    9 1
    16    8   33 1
    17    8   34 1
    18    9   10 1
    19    9   35 1
    20   10   11 ar
    21   10   44 ar
    22   11   12 ar
    23   11   36 1
    24   12   18 ar
    25   12   13 ar
    26   13   14 ar
    27   13   15 ar
    28   14   37 1
    29   14   44 ar
    30   15   16 ar
    31   16   17 ar
    32   16   38 1
    33   17   18 ar
    34   18   19 1
    35   19   20 1
    36   19   39 1
    37   20   25 ar
    38   20   21 ar
    39   21   22 ar
    40   21   40 1
    41   22   23 ar
    42   22   41 1
    43   23   24 ar
    44   23   42 1
    45   24   25 ar
    46   24   26 1
    47   25   43 1
    48   44   45 1
@<TRIPOS>MOLECULE
ZINC03815092
   56    58     0     0     0
SMALL
USER_CHARGES

@<TRIPOS>ATOM
      1 C1          4.9266    3.3568   -0.9348 C.ar      1 <0>        -0.0912
      2 C2          4.6377    2.0281   -0.6920 C.ar      1 <0>        -0.0820
      3 C3          5.3707    1.0323   -1.3248 C.ar      1 <0>         0.1125
      4 C4          6.3962    1.3764   -2.1964 C.ar      1 <0>        -0.0997
      5 C5          6.6774    2.7073   -2.4384 C.ar      1 <0>        -0.0758
      6 C6          5.9445    3.6967   -1.8064 C.ar      1 <0>        -0.0783
      7 Br1         8.0692    3.1775   -3.6292 Br        1 <0>        -0.0215
      8 N1          5.0809   -0.3132   -1.0806 N.pl3     1 <0>        -0.5998
      9 C7          3.7805   -0.7069   -0.8479 C.ar      1 <0>         0.5200
     10 C8          3.4774   -2.0407   -0.4889 C.ar      1 <0>        -0.2615
     11 C9          4.4570   -3.0268   -0.3488 C.ar      1 <0>         0.2728
     12 C10         2.8513   -4.6068    0.2061 C.ar      1 <0>         0.4321
     13 C11         1.8139   -3.6996    0.0920 C.ar      1 <0>        -0.1931
     14 C12         2.1168   -2.3803   -0.2633 C.ar      1 <0>         0.3087
     15 N2          1.1819   -1.4315   -0.3988 N.ar      1 <0>        -0.5580
     16 C13         1.5232   -0.2086   -0.7350 C.ar      1 <0>         0.4343
     17 N3          2.7760    0.1552   -0.9553 N.ar      1 <0>        -0.5764
     18 N4          2.5680   -5.9202    0.5579 N.pl3     1 <0>        -0.7184
     19 C14         1.1832   -6.3304    0.8033 C.3       1 <0>         0.1184
     20 C15         1.1486   -7.8152    1.1711 C.3       1 <0>        -0.1664
     21 C16        -0.2976   -8.2436    1.4273 C.3       1 <0>        -0.0058
     22 C17         0.0928   -9.8358    3.2092 C.3       1 <0>        -0.0036
     23 C18         0.2894  -11.3250    3.4999 C.3       1 <0>         0.0431
     24 O1          1.3729  -11.8249    2.7135 O.3       1 <0>        -0.5807
     25 C19        -1.6588  -10.2397    1.5870 C.3       1 <0>        -0.0090
     26 C20        -1.8527  -10.5060    0.0929 C.3       1 <0>         0.0443
     27 O2         -0.9061  -11.4835   -0.3435 O.3       1 <0>        -0.5786
     28 H1          4.3567    4.1312   -0.4429 H         1 <0>         0.1464
     29 H2          3.8423    1.7636   -0.0110 H         1 <0>         0.1429
     30 H3          6.9707    0.6045   -2.6868 H         1 <0>         0.1395
     31 H4          6.1685    4.7364   -1.9941 H         1 <0>         0.1452
     32 H5          5.7948   -0.9698   -1.0749 H         1 <0>         0.4252
     33 H6          5.4958   -2.7835   -0.5167 H         1 <0>         0.1996
     34 H7          0.7930   -4.0025    0.2726 H         1 <0>         0.1885
     35 H8          0.7452    0.5330   -0.8407 H         1 <0>         0.2246
     36 H9          3.2871   -6.5659    0.6412 H         1 <0>         0.4185
     37 H10         0.7702   -5.7432    1.6235 H         1 <0>         0.0969
     38 H11         0.5905   -6.1651   -0.0964 H         1 <0>         0.0964
     39 H12         1.5616   -8.4024    0.3509 H         1 <0>         0.1015
     40 H13         1.7414   -7.9805    2.0708 H         1 <0>         0.1002
     41 H14        -0.7185   -7.6396    2.2312 H         1 <0>         0.1402
     42 H15        -0.8849   -8.1011    0.5202 H         1 <0>         0.1355
     43 H16         1.0310   -9.3062    3.3753 H         1 <0>         0.1336
     44 H17        -0.6734   -9.4342    3.8723 H         1 <0>         0.1463
     45 H18         0.5146  -11.4621    4.5575 H         1 <0>         0.0967
     46 H19        -0.6221  -11.8676    3.2492 H         1 <0>         0.0739
     47 H20         1.5547  -12.7652    2.8470 H         1 <0>         0.4126
     48 H21        -1.7456  -11.1765    2.1373 H         1 <0>         0.1401
     49 H22        -2.4216   -9.5426    1.9338 H         1 <0>         0.1476
     50 H23        -2.8632  -10.8752   -0.0822 H         1 <0>         0.0987
     51 H24        -1.7024   -9.5808   -0.4635 H         1 <0>         0.0688
     52 H25        -0.9712  -11.7019   -1.2832 H         1 <0>         0.4111
     53 N5          4.1763   -4.3096   -0.0048 N.ar      1 <0>        -0.5405
     54 H26         4.9129   -5.0182    0.0925 H         1 <0>         0.4741
     55 N6         -0.3089   -9.6749    1.7959 N.4       1 <0>        -0.3938
     56 H27         0.3589  -10.1781    1.2000 H         1 <0>         0.4437
@<TRIPOS>BOND
     1    1    6 ar
     2    1    2 ar
     3    1   28 1
     4    2    3 ar
     5    2   29 1
     6    3    4 ar
     7    3    8 1
     8    4    5 ar
     9    4   30 1
    10    5    6 ar
    11    5    7 1
    12    6   31 1
    13    8    9 1
    14    8   32 1
    15    9   17 ar
    16    9   10 ar
    17   10   14 ar
    18   10   11 ar
    19   11   33 1
    20   11   53 ar
    21   12   13 ar
    22   12   18 1
    23   12   53 ar
    24   13   14 ar
    25   13   34 1
    26   14   15 ar
    27   15   16 ar
    28   16   17 ar
    29   16   35 1
    30   18   19 1
    31   18   36 1
    32   19   20 1
    33   19   37 1
    34   19   38 1
    35   20   21 1
    36   20   39 1
    37   20   40 1
    38   21   41 1
    39   21   42 1
    40   21   55 1
    41   22   23 1
    42   22   43 1
    43   22   44 1
    44   22   55 1
    45   23   24 1
    46   23   45 1
    47   23   46 1
    48   24   47 1
    49   25   26 1
    50   25   48 1
    51   25   49 1
    52   25   55 1
    53   26   27 1
    54   26   50 1
    55   26   51 1
    56   27   52 1
    57   53   54 1
    58   55   56 1
@<TRIPOS>MOLECULE
ZINC03815093
   32    35     0     0     0
SMALL
USER_CHARGES

@<TRIPOS>ATOM
      1 C1          8.4088   -0.9942   -0.3727 C.ar      1 <0>        -0.0902
      2 C2          7.2386   -0.2659   -0.4637 C.ar      1 <0>        -0.1364
      3 C3          6.0561   -0.7871    0.0455 C.ar      1 <0>         0.1567
      4 C4          6.0553   -2.0380    0.6497 C.ar      1 <0>        -0.0828
      5 C5          7.2281   -2.7636    0.7333 C.ar      1 <0>        -0.0697
      6 C6          8.4043   -2.2411    0.2244 C.ar      1 <0>        -0.1057
      7 Br1         7.2275   -4.4694    1.5497 Br        1 <0>        -0.0410
      8 N1          4.8706   -0.0521   -0.0447 N.pl3     1 <0>        -0.6467
      9 C7          3.6629   -0.7052   -0.1947 C.ar      1 <0>         0.4521
     10 C8          2.4446    0.0083   -0.1633 C.ar      1 <0>        -0.1783
     11 C9          1.2391   -0.7148   -0.3221 C.ar      1 <0>         0.2208
     12 C10         0.0081   -0.0368   -0.2956 C.ar      1 <0>        -0.1405
     13 C11        -0.0287    1.3089   -0.1187 C.ar      1 <0>        -0.0136
     14 C12         1.1563    2.0462    0.0408 C.ar      1 <0>        -0.1281
     15 C13         2.4014    1.4031    0.0202 C.ar      1 <0>         0.1153
     16 N2          3.3621    2.3647    0.1980 N.pl3     1 <0>        -0.5812
     17 H1          4.3174    2.1987    0.2249 H         1 <0>         0.4041
     18 C14         2.7750    3.5924    0.3310 C.2       1 <0>         0.0338
     19 C15         1.4402    3.4686    0.2454 C.2       1 <0>        -0.1740
     20 N3          1.3057   -2.0432   -0.4950 N.ar      1 <0>        -0.5353
     21 C16         2.4661   -2.6557   -0.5160 C.ar      1 <0>         0.3412
     22 N4          3.6171   -2.0200   -0.3717 N.ar      1 <0>        -0.5755
     23 H2          9.3284   -0.5889   -0.7682 H         1 <0>         0.1383
     24 H3          7.2431    0.7080   -0.9306 H         1 <0>         0.1296
     25 H4          5.1383   -2.4443    1.0503 H         1 <0>         0.1489
     26 H5          9.3207   -2.8084    0.2942 H         1 <0>         0.1360
     27 H6          4.8961    0.9166   -0.0020 H         1 <0>         0.4058
     28 H7         -0.9124   -0.5886   -0.4167 H         1 <0>         0.1450
     29 H8         -0.9804    1.8193   -0.1050 H         1 <0>         0.1377
     30 H9          3.3046    4.5215    0.4819 H         1 <0>         0.1783
     31 H10         0.7148    4.2658    0.3137 H         1 <0>         0.1551
     32 H11         2.4821   -3.7264   -0.6570 H         1 <0>         0.2004
@<TRIPOS>BOND
     1    1    6 ar
     2    1    2 ar
     3    1   23 1
     4    2    3 ar
     5    2   24 1
     6    3    4 ar
     7    3    8 1
     8    4    5 ar
     9    4   25 1
    10    5    6 ar
    11    5    7 1
    12    6   26 1
    13    8    9 1
    14    8   27 1
    15    9   22 ar
    16    9   10 ar
    17   10   15 ar
    18   10   11 ar
    19   11   12 ar
    20   11   20 ar
    21   12   13 ar
    22   12   28 1
    23   13   14 ar
    24   13   29 1
    25   14   19 1
    26   14   15 ar
    27   15   16 1
    28   16   17 1
    29   16   18 1
    30   18   19 2
    31   18   30 1
    32   19   31 1
    33   20   21 ar
    34   21   22 ar
    35   21   32 1
@<TRIPOS>MOLECULE
ZINC03815094
   46    49     0     0     0
SMALL
USER_CHARGES

@<TRIPOS>ATOM
      1 C1          1.9051    5.7835   -1.0091 C.3       1 <0>        -0.1201
      2 C2          2.0435    4.3806   -0.4766 C.ar      1 <0>        -0.0624
      3 C3          3.2607    3.9454    0.0154 C.ar      1 <0>        -0.1174
      4 C4          3.3918    2.6593    0.5058 C.ar      1 <0>        -0.0941
      5 C5          2.3055    1.8061    0.5102 C.ar      1 <0>        -0.1093
      6 C6          1.0832    2.2380    0.0116 C.ar      1 <0>         0.1251
      7 C7          0.9549    3.5311   -0.4800 C.ar      1 <0>        -0.1346
      8 N1         -0.0166    1.3755    0.0096 N.pl3     1 <0>        -0.6070
      9 C8          0.1704    0.0194   -0.1629 C.ar      1 <0>         0.4704
     10 C9         -0.9411   -0.9201   -0.0511 C.ar      1 <0>        -0.0654
     11 C10        -2.2502   -0.5257    0.2335 C.ar      1 <0>        -0.1360
     12 C11        -3.2270   -1.5030    0.3173 C.ar      1 <0>         0.4021
     13 C12        -1.7258   -3.2126   -0.1370 C.ar      1 <0>         0.2167
     14 C13        -0.6689   -2.2991   -0.2418 C.ar      1 <0>         0.1201
     15 N2          0.5891   -2.6708   -0.5140 N.ar      1 <0>        -0.5290
     16 C14         1.5489   -1.7837   -0.6029 C.ar      1 <0>         0.3811
     17 N3          1.3677   -0.4823   -0.4427 N.ar      1 <0>        -0.5488
     18 N4         -4.5394   -1.1325    0.6005 N.pl3     1 <0>        -0.7086
     19 C15        -4.8740    0.2789    0.8062 C.3       1 <0>         0.1163
     20 C16        -6.3697    0.4109    1.0995 C.3       1 <0>        -0.0394
     21 C17        -6.7139    1.8628    1.3111 C.2       1 <0>        -0.0174
     22 C18        -7.6557    2.5580    0.6453 C.2       1 <0>        -0.0352
     23 N5         -7.6375    3.8311    1.1479 N.pl3     1 <0>        -0.5686
     24 H1         -8.2209    4.5908    0.8607 H         1 <0>         0.4338
     25 C19        -6.6846    3.8695    2.1040 C.2       1 <0>         0.1979
     26 N6         -6.1399    2.6875    2.1996 N.2       1 <0>        -0.4932
     27 H2          1.6112    6.4520   -0.1998 H         1 <0>         0.0763
     28 H3          2.8590    6.1110   -1.4225 H         1 <0>         0.0734
     29 H4          1.1450    5.8024   -1.7901 H         1 <0>         0.0683
     30 H5          4.1106    4.6118    0.0169 H         1 <0>         0.1302
     31 H6          4.3434    2.3228    0.8899 H         1 <0>         0.1329
     32 H7          2.4075    0.8030    0.8971 H         1 <0>         0.1364
     33 H8          0.0046    3.8717   -0.8640 H         1 <0>         0.1268
     34 H9         -0.9118    1.7308    0.1255 H         1 <0>         0.4247
     35 H10        -2.4942    0.5154    0.3846 H         1 <0>         0.1790
     36 H11        -1.5430   -4.2677   -0.2782 H         1 <0>         0.2162
     37 H12         2.5461   -2.1344   -0.8243 H         1 <0>         0.2174
     38 H13        -5.2319   -1.8090    0.6615 H         1 <0>         0.4181
     39 H14        -4.3027    0.6687    1.6487 H         1 <0>         0.0941
     40 H15        -4.6285    0.8451   -0.0923 H         1 <0>         0.0836
     41 H16        -6.9410    0.0211    0.2571 H         1 <0>         0.0874
     42 H17        -6.6152   -0.1553    1.9980 H         1 <0>         0.0875
     43 H18        -8.3009    2.1832   -0.1354 H         1 <0>         0.1782
     44 H19        -6.4201    4.7341    2.6946 H         1 <0>         0.2122
     45 N7         -3.0029   -2.8456    0.1392 N.ar      1 <0>        -0.4967
     46 H20        -3.7605   -3.5349    0.2112 H         1 <0>         0.4768
@<TRIPOS>BOND
     1    1    2 1
     2    1   27 1
     3    1   28 1
     4    1   29 1
     5    2    7 ar
     6    2    3 ar
     7    3    4 ar
     8    3   30 1
     9    4    5 ar
    10    4   31 1
    11    5    6 ar
    12    5   32 1
    13    6    7 ar
    14    6    8 1
    15    7   33 1
    16    8    9 1
    17    8   34 1
    18    9   17 ar
    19    9   10 ar
    20   10   14 ar
    21   10   11 ar
    22   11   12 ar
    23   11   35 1
    24   12   18 1
    25   12   45 ar
    26   13   14 ar
    27   13   36 1
    28   13   45 ar
    29   14   15 ar
    30   15   16 ar
    31   16   17 ar
    32   16   37 1
    33   18   19 1
    34   18   38 1
    35   19   20 1
    36   19   39 1
    37   19   40 1
    38   20   21 1
    39   20   41 1
    40   20   42 1
    41   21   26 1
    42   21   22 2
    43   22   23 1
    44   22   43 1
    45   23   24 1
    46   23   25 1
    47   25   26 2
    48   25   44 1
    49   45   46 1
@<TRIPOS>MOLECULE
ZINC03815094
   46    49     0     0     0
SMALL
USER_CHARGES

@<TRIPOS>ATOM
      1 C1          1.9051    5.7835   -1.0091 C.3       1 <0>        -0.1201
      2 C2          2.0435    4.3806   -0.4766 C.ar      1 <0>        -0.0624
      3 C3          3.2607    3.9454    0.0154 C.ar      1 <0>        -0.1174
      4 C4          3.3918    2.6593    0.5058 C.ar      1 <0>        -0.0941
      5 C5          2.3055    1.8061    0.5102 C.ar      1 <0>        -0.1093
      6 C6          1.0832    2.2380    0.0116 C.ar      1 <0>         0.1251
      7 C7          0.9549    3.5311   -0.4800 C.ar      1 <0>        -0.1346
      8 N1         -0.0166    1.3755    0.0096 N.pl3     1 <0>        -0.6070
      9 C8          0.1704    0.0194   -0.1629 C.ar      1 <0>         0.4704
     10 C9         -0.9411   -0.9201   -0.0511 C.ar      1 <0>        -0.0654
     11 C10        -2.2502   -0.5257    0.2335 C.ar      1 <0>        -0.1360
     12 C11        -3.2270   -1.5030    0.3173 C.ar      1 <0>         0.4021
     13 C12        -1.7258   -3.2126   -0.1370 C.ar      1 <0>         0.2167
     14 C13        -0.6689   -2.2991   -0.2418 C.ar      1 <0>         0.1201
     15 N2          0.5891   -2.6708   -0.5140 N.ar      1 <0>        -0.5290
     16 C14         1.5489   -1.7837   -0.6029 C.ar      1 <0>         0.3811
     17 N3          1.3677   -0.4823   -0.4427 N.ar      1 <0>        -0.5488
     18 N4         -4.5394   -1.1325    0.6005 N.pl3     1 <0>        -0.7086
     19 C15        -4.8740    0.2789    0.8062 C.3       1 <0>         0.1163
     20 C16        -6.3697    0.4109    1.0995 C.3       1 <0>        -0.0394
     21 C17        -6.7139    1.8628    1.3111 C.2       1 <0>        -0.0174
     22 C18        -7.6557    2.5580    0.6453 C.2       1 <0>        -0.0352
     23 N5         -7.6375    3.8311    1.1479 N.pl3     1 <0>        -0.5686
     24 H1         -8.2209    4.5908    0.8607 H         1 <0>         0.4338
     25 C19        -6.6846    3.8695    2.1040 C.2       1 <0>         0.1979
     26 N6         -6.1399    2.6875    2.1996 N.2       1 <0>        -0.4932
     27 H2          1.6112    6.4520   -0.1998 H         1 <0>         0.0763
     28 H3          2.8590    6.1110   -1.4225 H         1 <0>         0.0734
     29 H4          1.1450    5.8024   -1.7901 H         1 <0>         0.0683
     30 H5          4.1106    4.6118    0.0169 H         1 <0>         0.1302
     31 H6          4.3434    2.3228    0.8899 H         1 <0>         0.1329
     32 H7          2.4075    0.8030    0.8971 H         1 <0>         0.1364
     33 H8          0.0046    3.8717   -0.8640 H         1 <0>         0.1268
     34 H9         -0.9118    1.7308    0.1255 H         1 <0>         0.4247
     35 H10        -2.4942    0.5154    0.3846 H         1 <0>         0.1790
     36 H11        -1.5430   -4.2677   -0.2782 H         1 <0>         0.2162
     37 H12         2.5461   -2.1344   -0.8243 H         1 <0>         0.2174
     38 H13        -5.2319   -1.8090    0.6615 H         1 <0>         0.4181
     39 H14        -4.3027    0.6687    1.6487 H         1 <0>         0.0941
     40 H15        -4.6285    0.8451   -0.0923 H         1 <0>         0.0836
     41 H16        -6.9410    0.0211    0.2571 H         1 <0>         0.0874
     42 H17        -6.6152   -0.1553    1.9980 H         1 <0>         0.0875
     43 H18        -8.3009    2.1832   -0.1354 H         1 <0>         0.1782
     44 H19        -6.4201    4.7341    2.6946 H         1 <0>         0.2122
     45 N7         -3.0029   -2.8456    0.1392 N.ar      1 <0>        -0.4967
     46 H20        -3.7605   -3.5349    0.2112 H         1 <0>         0.4768
@<TRIPOS>BOND
     1    1    2 1
     2    1   27 1
     3    1   28 1
     4    1   29 1
     5    2    7 ar
     6    2    3 ar
     7    3    4 ar
     8    3   30 1
     9    4    5 ar
    10    4   31 1
    11    5    6 ar
    12    5   32 1
    13    6    7 ar
    14    6    8 1
    15    7   33 1
    16    8    9 1
    17    8   34 1
    18    9   17 ar
    19    9   10 ar
    20   10   14 ar
    21   10   11 ar
    22   11   12 ar
    23   11   35 1
    24   12   18 1
    25   12   45 ar
    26   13   14 ar
    27   13   36 1
    28   13   45 ar
    29   14   15 ar
    30   15   16 ar
    31   16   17 ar
    32   16   37 1
    33   18   19 1
    34   18   38 1
    35   19   20 1
    36   19   39 1
    37   19   40 1
    38   20   21 1
    39   20   41 1
    40   20   42 1
    41   21   26 1
    42   21   22 2
    43   22   23 1
    44   22   43 1
    45   23   24 1
    46   23   25 1
    47   25   26 2
    48   25   44 1
    49   45   46 1
@<TRIPOS>MOLECULE
ZINC03815094
   47    50     0     0     0
SMALL
USER_CHARGES

@<TRIPOS>ATOM
      1 C1          1.9051    5.7835   -1.0091 C.3       1 <0>        -0.1214
      2 C2          2.0435    4.3806   -0.4766 C.ar      1 <0>        -0.0609
      3 C3          3.2607    3.9454    0.0154 C.ar      1 <0>        -0.1128
      4 C4          3.3918    2.6593    0.5058 C.ar      1 <0>        -0.0912
      5 C5          2.3055    1.8061    0.5102 C.ar      1 <0>        -0.1086
      6 C6          1.0832    2.2380    0.0116 C.ar      1 <0>         0.1179
      7 C7          0.9549    3.5311   -0.4800 C.ar      1 <0>        -0.1360
      8 N1         -0.0166    1.3755    0.0096 N.pl3     1 <0>        -0.6068
      9 C8          0.1704    0.0194   -0.1629 C.ar      1 <0>         0.4680
     10 C9         -0.9411   -0.9201   -0.0511 C.ar      1 <0>        -0.0713
     11 C10        -2.2502   -0.5257    0.2335 C.ar      1 <0>        -0.1359
     12 C11        -3.2270   -1.5030    0.3173 C.ar      1 <0>         0.3892
     13 C12        -1.7258   -3.2126   -0.1370 C.ar      1 <0>         0.2335
     14 C13        -0.6689   -2.2991   -0.2418 C.ar      1 <0>         0.1294
     15 N2          0.5891   -2.6708   -0.5140 N.ar      1 <0>        -0.5232
     16 C14         1.5489   -1.7837   -0.6029 C.ar      1 <0>         0.3899
     17 N3          1.3677   -0.4823   -0.4427 N.ar      1 <0>        -0.5402
     18 N4         -4.5394   -1.1325    0.6005 N.pl3     1 <0>        -0.7221
     19 C15        -4.8740    0.2789    0.8062 C.3       1 <0>         0.1123
     20 C16        -6.3697    0.4109    1.0995 C.3       1 <0>        -0.0724
     21 C17        -6.7139    1.8628    1.3111 C.2       1 <0>         0.0162
     22 C18        -7.6557    2.5580    0.6453 C.2       1 <0>         0.0538
     23 N5         -7.6375    3.8311    1.1479 N.pl3     1 <0>        -0.5128
     24 H1         -8.2209    4.5908    0.8607 H         1 <0>         0.4814
     25 C19        -6.6846    3.8695    2.1040 C.cat     1 <0>         0.3210
     26 H2          1.6112    6.4520   -0.1998 H         1 <0>         0.0765
     27 H3          2.8590    6.1110   -1.4225 H         1 <0>         0.0764
     28 H4          1.1450    5.8024   -1.7901 H         1 <0>         0.0681
     29 H5          4.1106    4.6118    0.0169 H         1 <0>         0.1333
     30 H6          4.3434    2.3228    0.8899 H         1 <0>         0.1358
     31 H7          2.4075    0.8030    0.8971 H         1 <0>         0.1362
     32 H8          0.0046    3.8717   -0.8640 H         1 <0>         0.1242
     33 H9         -0.9118    1.7308    0.1255 H         1 <0>         0.4196
     34 H10        -2.4942    0.5154    0.3846 H         1 <0>         0.1736
     35 H11        -1.5430   -4.2677   -0.2782 H         1 <0>         0.2222
     36 H12         2.5461   -2.1344   -0.8243 H         1 <0>         0.2228
     37 H13        -5.2319   -1.8090    0.6615 H         1 <0>         0.4223
     38 H14        -4.3027    0.6687    1.6487 H         1 <0>         0.0798
     39 H15        -4.6285    0.8451   -0.0923 H         1 <0>         0.0926
     40 H16        -6.9410    0.0211    0.2571 H         1 <0>         0.1257
     41 H17        -6.6152   -0.1553    1.9980 H         1 <0>         0.1151
     42 H18        -8.3009    2.1832   -0.1354 H         1 <0>         0.2282
     43 H19        -6.4201    4.7341    2.6946 H         1 <0>         0.2693
     44 N6         -3.0029   -2.8456    0.1392 N.ar      1 <0>        -0.4901
     45 H20        -3.7605   -3.5349    0.2112 H         1 <0>         0.4800
     46 N7         -6.1409    2.6878    2.1987 N.pl3     1 <0>        -0.4879
     47 H21        -5.3912    2.4298    2.8512 H         1 <0>         0.4796
@<TRIPOS>BOND
     1    1    2 1
     2    1   26 1
     3    1   27 1
     4    1   28 1
     5    2    7 ar
     6    2    3 ar
     7    3    4 ar
     8    3   29 1
     9    4    5 ar
    10    4   30 1
    11    5    6 ar
    12    5   31 1
    13    6    7 ar
    14    6    8 1
    15    7   32 1
    16    8    9 1
    17    8   33 1
    18    9   17 ar
    19    9   10 ar
    20   10   14 ar
    21   10   11 ar
    22   11   12 ar
    23   11   34 1
    24   12   18 1
    25   12   44 ar
    26   13   14 ar
    27   13   35 1
    28   13   44 ar
    29   14   15 ar
    30   15   16 ar
    31   16   17 ar
    32   16   36 1
    33   18   19 1
    34   18   37 1
    35   19   20 1
    36   19   38 1
    37   19   39 1
    38   20   21 1
    39   20   40 1
    40   20   41 1
    41   21   22 2
    42   21   46 1
    43   22   23 1
    44   22   42 1
    45   23   24 1
    46   23   25 1
    47   25   43 1
    48   25   46 2
    49   44   45 1
    50   46   47 1
@<TRIPOS>MOLECULE
ZINC03815095
   46    49     0     0     0
SMALL
USER_CHARGES

@<TRIPOS>ATOM
      1 C1         -4.7678    4.1955    1.8282 C.3       1 <0>        -0.0519
      2 C2         -4.6906    5.3964    3.9293 C.3       1 <0>        -0.0425
      3 C3         -3.0207    5.8233    2.2288 C.3       1 <0>        -0.0303
      4 C4         -2.8378    6.1251    0.7401 C.3       1 <0>         0.0957
      5 N1         -1.4413    6.4854    0.4828 N.pl3     1 <0>        -0.5186
      6 C5         -0.9298    7.7445    0.4318 C.2       1 <0>         0.2992
      7 N2          0.3461    7.7043    0.1822 N.2       1 <0>        -0.4796
      8 C6          0.7487    6.4125    0.0542 C.ar      1 <0>         0.0904
      9 C7         -0.3969    5.6069    0.2460 C.ar      1 <0>         0.0476
     10 C8         -0.3092    4.2334    0.1761 C.ar      1 <0>        -0.0765
     11 C9          0.9249    3.6345   -0.0869 C.ar      1 <0>        -0.1566
     12 C10         2.0814    4.4365   -0.2756 C.ar      1 <0>         0.1742
     13 C11         1.9830    5.8254   -0.1977 C.ar      1 <0>        -0.0379
     14 N3          3.2522    3.8272   -0.5331 N.ar      1 <0>        -0.5329
     15 C12         3.3208    2.5201   -0.6022 C.ar      1 <0>         0.3518
     16 N4          2.2708    1.7325   -0.4282 N.ar      1 <0>        -0.5742
     17 C13         1.0679    2.2271   -0.1692 C.ar      1 <0>         0.4677
     18 N5         -0.0169    1.3935    0.0097 N.pl3     1 <0>        -0.6364
     19 C14         0.1639    0.0078    0.0396 C.ar      1 <0>         0.1508
     20 C15         1.3331   -0.5305    0.5627 C.ar      1 <0>        -0.0939
     21 C16         1.5088   -1.8999    0.5913 C.ar      1 <0>        -0.0897
     22 C17         0.5225   -2.7358    0.1005 C.ar      1 <0>        -0.0994
     23 C18        -0.6433   -2.2034   -0.4208 C.ar      1 <0>        -0.0720
     24 C19        -0.8271   -0.8338   -0.4483 C.ar      1 <0>        -0.1213
     25 Br1        -1.9895   -3.3509   -1.0895 Br        1 <0>        -0.0392
     26 H1         -4.1261    3.4007    2.2084 H         1 <0>         0.1255
     27 H2         -5.8098    3.9517    2.0355 H         1 <0>         0.1300
     28 H3         -4.6249    4.2945    0.7522 H         1 <0>         0.1216
     29 H4         -4.4916    6.3684    4.3807 H         1 <0>         0.1245
     30 H5         -5.7342    5.1271    4.0920 H         1 <0>         0.1280
     31 H6         -4.0461    4.6451    4.3856 H         1 <0>         0.1245
     32 H7         -2.3731    4.9941    2.5137 H         1 <0>         0.1364
     33 H8         -2.7595    6.7056    2.8132 H         1 <0>         0.1396
     34 H9         -3.4853    6.9543    0.4552 H         1 <0>         0.1202
     35 H10        -3.0989    5.2428    0.1557 H         1 <0>         0.1082
     36 H11        -1.5015    8.6490    0.5783 H         1 <0>         0.2245
     37 H12        -1.1886    3.6241    0.3241 H         1 <0>         0.1221
     38 H13         2.8580    6.4412   -0.3444 H         1 <0>         0.1568
     39 H14         4.2776    2.0646   -0.8108 H         1 <0>         0.2042
     40 H15        -0.9055    1.7690    0.1108 H         1 <0>         0.4154
     41 H16         2.1039    0.1214    0.9462 H         1 <0>         0.1443
     42 H17         2.4175   -2.3186    0.9979 H         1 <0>         0.1401
     43 H18         0.6624   -3.8064    0.1245 H         1 <0>         0.1378
     44 H19        -1.7389   -0.4186   -0.8515 H         1 <0>         0.1317
     45 N6         -4.4376    5.4826    2.4756 N.4       1 <0>        -0.3941
     46 H20        -5.0320    6.2187    2.0767 H         1 <0>         0.4341
@<TRIPOS>BOND
     1    1   26 1
     2    1   27 1
     3    1   28 1
     4    1   45 1
     5    2   29 1
     6    2   30 1
     7    2   31 1
     8    2   45 1
     9    3    4 1
    10    3   32 1
    11    3   33 1
    12    3   45 1
    13    4    5 1
    14    4   34 1
    15    4   35 1
    16    5    9 1
    17    5    6 1
    18    6    7 2
    19    6   36 1
    20    7    8 1
    21    8   13 ar
    22    8    9 ar
    23    9   10 ar
    24   10   11 ar
    25   10   37 1
    26   11   17 ar
    27   11   12 ar
    28   12   13 ar
    29   12   14 ar
    30   13   38 1
    31   14   15 ar
    32   15   16 ar
    33   15   39 1
    34   16   17 ar
    35   17   18 1
    36   18   19 1
    37   18   40 1
    38   19   24 ar
    39   19   20 ar
    40   20   21 ar
    41   20   41 1
    42   21   22 ar
    43   21   42 1
    44   22   23 ar
    45   22   43 1
    46   23   24 ar
    47   23   25 1
    48   24   44 1
    49   45   46 1
@<TRIPOS>MOLECULE
ZINC03815096
   39    41     0     0     0
SMALL
USER_CHARGES

@<TRIPOS>ATOM
      1 C1          2.1576    5.6966    0.3943 C.ar      1 <0>        -0.0917
      2 C2          2.2602    4.3225    0.4909 C.ar      1 <0>        -0.0837
      3 C3          3.3215    3.6622   -0.1146 C.ar      1 <0>         0.1301
      4 C4          4.2799    4.3869   -0.8116 C.ar      1 <0>        -0.1055
      5 C5          4.1693    5.7608   -0.9084 C.ar      1 <0>        -0.0750
      6 C6          3.1101    6.4152   -0.3040 C.ar      1 <0>        -0.0876
      7 Br1         5.4699    6.7485   -1.8618 Br        1 <0>        -0.0323
      8 N1          3.4281    2.2717   -0.0180 N.pl3     1 <0>        -0.6161
      9 C7          2.2914    1.4919   -0.0148 C.ar      1 <0>         0.5197
     10 C8          2.3670    0.0967    0.2030 C.ar      1 <0>        -0.2636
     11 C9          3.5749   -0.5691    0.4254 C.ar      1 <0>         0.2601
     12 C10         2.4714   -2.6007    0.6198 C.ar      1 <0>         0.4351
     13 C11         1.2297   -2.0296    0.4088 C.ar      1 <0>        -0.1924
     14 C12         1.1579   -0.6486    0.1936 C.ar      1 <0>         0.3006
     15 N2          0.0031   -0.0057   -0.0199 N.ar      1 <0>        -0.5508
     16 C13        -0.0055    1.2929   -0.2168 C.ar      1 <0>         0.4202
     17 N3          1.0938    2.0290   -0.2171 N.ar      1 <0>        -0.5848
     18 N4          2.5604   -3.9699    0.8350 N.pl3     1 <0>        -0.6857
     19 C14         1.3474   -4.7915    0.8366 C.3       1 <0>         0.1209
     20 C15         1.7214   -6.2525    1.0942 C.3       1 <0>        -0.6982
     21 S1          0.2195   -7.2698    1.0962 S.o2      1 <0>         2.6331
     22 O1         -0.5870   -6.9497    2.2216 O.2       1 <0>        -1.0380
     23 O2         -0.3423   -7.3156   -0.2082 O.2       1 <0>        -1.0380
     24 H1          1.3324    6.2103    0.8651 H         1 <0>         0.1433
     25 H2          1.5156    3.7620    1.0367 H         1 <0>         0.1431
     26 H3          5.1086    3.8769   -1.2801 H         1 <0>         0.1381
     27 H4          3.0277    7.4896   -0.3777 H         1 <0>         0.1407
     28 H5          4.3020    1.8556    0.0467 H         1 <0>         0.4236
     29 H6          4.5023   -0.0157    0.4358 H         1 <0>         0.1945
     30 H7          0.3358   -2.6356    0.4097 H         1 <0>         0.1947
     31 H8         -0.9528    1.7814   -0.3908 H         1 <0>         0.2195
     32 H9          3.4256   -4.3822    0.9842 H         1 <0>         0.4181
     33 H10         0.6748   -4.4448    1.6211 H         1 <0>         0.0998
     34 H11         0.8511   -4.7086   -0.1303 H         1 <0>         0.0997
     35 H12         2.3940   -6.5992    0.3097 H         1 <0>         0.1200
     36 H13         2.2177   -6.3354    2.0612 H         1 <0>         0.1200
     37 N5          3.6579   -1.9077    0.6354 N.ar      1 <0>        -0.5388
     38 H14         4.5572   -2.3762    0.7969 H         1 <0>         0.4721
     39 O3          0.7076   -8.6873    1.3588 O.3       1 <0>        -1.0651
@<TRIPOS>BOND
     1    1    6 ar
     2    1    2 ar
     3    1   24 1
     4    2    3 ar
     5    2   25 1
     6    3    4 ar
     7    3    8 1
     8    4    5 ar
     9    4   26 1
    10    5    6 ar
    11    5    7 1
    12    6   27 1
    13    8    9 1
    14    8   28 1
    15    9   17 ar
    16    9   10 ar
    17   10   14 ar
    18   10   11 ar
    19   11   29 1
    20   11   37 ar
    21   12   13 ar
    22   12   18 1
    23   12   37 ar
    24   13   14 ar
    25   13   30 1
    26   14   15 ar
    27   15   16 ar
    28   16   17 ar
    29   16   31 1
    30   18   19 1
    31   18   32 1
    32   19   20 1
    33   19   33 1
    34   19   34 1
    35   20   21 1
    36   20   35 1
    37   20   36 1
    38   21   22 2
    39   21   23 2
    40   21   39 1
    41   37   38 1
@<TRIPOS>MOLECULE
ZINC03815097
   36    38     0     0     0
SMALL
USER_CHARGES

@<TRIPOS>ATOM
      1 C1         -1.9876    0.9754   -1.4828 C.3       1 <0>        -0.1210
      2 C2         -0.9700    1.7492   -0.6848 C.ar      1 <0>        -0.0627
      3 C3         -0.0172    1.0758    0.0579 C.ar      1 <0>        -0.1127
      4 C4          0.9217    1.7819    0.7869 C.ar      1 <0>        -0.0952
      5 C5          0.9074    3.1631    0.7801 C.ar      1 <0>        -0.1041
      6 C6         -0.0515    3.8425    0.0400 C.ar      1 <0>         0.1155
      7 C7         -0.9935    3.1299   -0.6914 C.ar      1 <0>        -0.1316
      8 N1         -0.0691    5.2402    0.0313 N.pl3     1 <0>        -0.6054
      9 C8          1.1117    5.9450    0.1283 C.ar      1 <0>         0.5180
     10 C9          1.1105    7.3549    0.2380 C.ar      1 <0>        -0.2632
     11 C10        -0.0649    8.1095    0.2667 C.ar      1 <0>         0.2653
     12 C11         1.1493   10.0761    0.4689 C.ar      1 <0>         0.4328
     13 C12         2.3633    9.4141    0.4546 C.ar      1 <0>        -0.1940
     14 C13         2.3618    8.0193    0.3396 C.ar      1 <0>         0.3050
     15 N2          3.4849    7.2909    0.3171 N.ar      1 <0>        -0.5584
     16 C14         3.4244    5.9834    0.2078 C.ar      1 <0>         0.4267
     17 N3          2.2834    5.3200    0.1159 N.ar      1 <0>        -0.5798
     18 N4          1.1330   11.4602    0.5829 N.pl3     1 <0>        -0.7088
     19 C15         2.3924   12.2016    0.6862 C.3       1 <0>         0.0723
     20 H1         -2.8658    0.7862   -0.8656 H         1 <0>         0.0771
     21 H2         -2.2777    1.5538   -2.3600 H         1 <0>         0.0692
     22 H3         -1.5552    0.0264   -1.8001 H         1 <0>         0.0743
     23 H4         -0.0039   -0.0041    0.0648 H         1 <0>         0.1317
     24 H5          1.6673    1.2530    1.3619 H         1 <0>         0.1343
     25 H6          1.6409    3.7141    1.3501 H         1 <0>         0.1375
     26 H7         -1.7403    3.6551   -1.2683 H         1 <0>         0.1279
     27 H8         -0.9121    5.7142   -0.0430 H         1 <0>         0.4225
     28 H9         -1.0238    7.6180    0.1945 H         1 <0>         0.1962
     29 H10         3.2915    9.9610    0.5300 H         1 <0>         0.1911
     30 H11         4.3482    5.4242    0.1926 H         1 <0>         0.2209
     31 H12         0.2878   11.9360    0.5942 H         1 <0>         0.4190
     32 H13         2.9372   11.8709    1.5704 H         1 <0>         0.0822
     33 H14         2.9962   12.0176   -0.2025 H         1 <0>         0.0822
     34 H15         2.1808   13.2677    0.7673 H         1 <0>         0.1034
     35 N5         -0.0768    9.4624    0.3778 N.ar      1 <0>        -0.5409
     36 H16        -0.9531    9.9973    0.3930 H         1 <0>         0.4727
@<TRIPOS>BOND
     1    1    2 1
     2    1   20 1
     3    1   21 1
     4    1   22 1
     5    2    7 ar
     6    2    3 ar
     7    3    4 ar
     8    3   23 1
     9    4    5 ar
    10    4   24 1
    11    5    6 ar
    12    5   25 1
    13    6    7 ar
    14    6    8 1
    15    7   26 1
    16    8    9 1
    17    8   27 1
    18    9   17 ar
    19    9   10 ar
    20   10   14 ar
    21   10   11 ar
    22   11   28 1
    23   11   35 ar
    24   12   13 ar
    25   12   18 1
    26   12   35 ar
    27   13   14 ar
    28   13   29 1
    29   14   15 ar
    30   15   16 ar
    31   16   17 ar
    32   16   30 1
    33   18   19 1
    34   18   31 1
    35   19   32 1
    36   19   33 1
    37   19   34 1
    38   35   36 1
@<TRIPOS>MOLECULE
ZINC03815098
   42    45     0     0     0
SMALL
USER_CHARGES

@<TRIPOS>ATOM
      1 C1          3.2477    7.8488    0.3032 C.ar      1 <0>        -0.0899
      2 C2          3.3146    6.4726    0.4008 C.ar      1 <0>        -0.1179
      3 C3          2.2783    5.6913   -0.0942 C.ar      1 <0>         0.1282
      4 C4          1.1797    6.2968   -0.6910 C.ar      1 <0>        -0.0784
      5 C5          1.1164    7.6741   -0.7808 C.ar      1 <0>        -0.0739
      6 C6          2.1509    8.4493   -0.2864 C.ar      1 <0>        -0.0883
      7 Br1        -0.3817    8.5003   -1.5864 Br        1 <0>        -0.0289
      8 N1          2.3435    4.2984    0.0028 N.pl3     1 <0>        -0.6087
      9 C7          1.1874    3.5634    0.1663 C.ar      1 <0>         0.4690
     10 C8          1.2075    2.1039    0.1512 C.ar      1 <0>        -0.0639
     11 C9          2.3743    1.3571   -0.0248 C.ar      1 <0>        -0.1389
     12 C10         2.2768   -0.0238   -0.0226 C.ar      1 <0>         0.4010
     13 C11        -0.0184    0.0184    0.3137 C.ar      1 <0>         0.2235
     14 C12        -0.0225    1.4193    0.3255 C.ar      1 <0>         0.1201
     15 N2         -1.1372    2.1418    0.4998 N.ar      1 <0>        -0.5241
     16 C13        -1.0977    3.4512    0.4999 C.ar      1 <0>         0.3830
     17 N3          0.0120    4.1556    0.3433 N.ar      1 <0>        -0.5472
     18 N4          3.4275   -0.7887   -0.1973 N.pl3     1 <0>        -0.7076
     19 C14         4.7235   -0.1308   -0.3815 C.3       1 <0>         0.1638
     20 C15         5.7977   -1.1746   -0.5474 C.ar      1 <0>        -0.1914
     21 C16         6.4753   -1.6666    0.5580 C.ar      1 <0>        -0.0483
     22 C17         7.4525   -2.6294    0.3581 C.ar      1 <0>        -0.1707
     23 C18         7.7239   -3.0567   -0.9281 C.ar      1 <0>         0.1265
     24 N5          7.0628   -2.5628   -1.9565 N.ar      1 <0>        -0.4805
     25 C19         6.1239   -1.6494   -1.8034 C.ar      1 <0>         0.1282
     26 H1          4.0535    8.4565    0.6877 H         1 <0>         0.1442
     27 H2          4.1717    6.0045    0.8619 H         1 <0>         0.1358
     28 H3          0.3744    5.6919   -1.0808 H         1 <0>         0.1477
     29 H4          2.1013    9.5255   -0.3617 H         1 <0>         0.1419
     30 H5          3.2016    3.8486   -0.0449 H         1 <0>         0.4268
     31 H6          3.3284    1.8445   -0.1604 H         1 <0>         0.1794
     32 H7         -0.9426   -0.5249    0.4444 H         1 <0>         0.2176
     33 H8         -2.0246    3.9876    0.6396 H         1 <0>         0.2192
     34 H9          3.3709   -1.7570   -0.1971 H         1 <0>         0.4191
     35 H10         4.6882    0.4988   -1.2706 H         1 <0>         0.0971
     36 H11         4.9460    0.4841    0.4906 H         1 <0>         0.0952
     37 H12         6.2445   -1.3111    1.5513 H         1 <0>         0.1391
     38 H13         7.9977   -3.0374    1.1964 H         1 <0>         0.1458
     39 H14         8.4866   -3.8034   -1.0927 H         1 <0>         0.1664
     40 H15         5.6036   -1.2683   -2.6697 H         1 <0>         0.1580
     41 N6          1.1063   -0.7218    0.1429 N.ar      1 <0>        -0.4958
     42 H16         1.0830   -1.7482    0.1377 H         1 <0>         0.4777
@<TRIPOS>BOND
     1    1    6 ar
     2    1    2 ar
     3    1   26 1
     4    2    3 ar
     5    2   27 1
     6    3    4 ar
     7    3    8 1
     8    4    5 ar
     9    4   28 1
    10    5    6 ar
    11    5    7 1
    12    6   29 1
    13    8    9 1
    14    8   30 1
    15    9   17 ar
    16    9   10 ar
    17   10   14 ar
    18   10   11 ar
    19   11   12 ar
    20   11   31 1
    21   12   18 1
    22   12   41 ar
    23   13   14 ar
    24   13   32 1
    25   13   41 ar
    26   14   15 ar
    27   15   16 ar
    28   16   17 ar
    29   16   33 1
    30   18   19 1
    31   18   34 1
    32   19   20 1
    33   19   35 1
    34   19   36 1
    35   20   25 ar
    36   20   21 ar
    37   21   22 ar
    38   21   37 1
    39   22   23 ar
    40   22   38 1
    41   23   24 ar
    42   23   39 1
    43   24   25 ar
    44   25   40 1
    45   41   42 1
@<TRIPOS>MOLECULE
ZINC03815099
   53    56     0     0     0
SMALL
USER_CHARGES

@<TRIPOS>ATOM
      1 C1         -1.9932    0.9790   -1.4877 C.3       1 <0>        -0.1221
      2 C2         -0.9721    1.7510   -0.6924 C.ar      1 <0>        -0.0603
      3 C3         -0.0145    1.0758    0.0424 C.ar      1 <0>        -0.1110
      4 C4          0.9281    1.7802    0.7685 C.ar      1 <0>        -0.0915
      5 C5          0.9128    3.1613    0.7664 C.ar      1 <0>        -0.1080
      6 C6         -0.0510    3.8425    0.0342 C.ar      1 <0>         0.1143
      7 C7         -0.9969    3.1316   -0.6940 C.ar      1 <0>        -0.1343
      8 N1         -0.0691    5.2401    0.0295 N.pl3     1 <0>        -0.6041
      9 C8          1.1128    5.9456    0.1252 C.ar      1 <0>         0.4689
     10 C9          1.1206    7.4005    0.2434 C.ar      1 <0>        -0.0749
     11 C10        -0.0432    8.1720    0.2685 C.ar      1 <0>        -0.1307
     12 C11         0.0819    9.5457    0.3843 C.ar      1 <0>         0.3828
     13 C12         2.3991    9.4501    0.4516 C.ar      1 <0>         0.2376
     14 C13         2.3760    8.0541    0.3372 C.ar      1 <0>         0.1353
     15 N2          3.4886    7.3080    0.3130 N.ar      1 <0>        -0.5235
     16 C14         3.4226    6.0042    0.2052 C.ar      1 <0>         0.3944
     17 N3          2.2882    5.3276    0.1190 N.ar      1 <0>        -0.5385
     18 N4         -1.0655   10.3348    0.4119 N.pl3     1 <0>        -0.7244
     19 C15        -2.3870    9.7094    0.3182 C.3       1 <0>         0.0913
     20 C16        -3.4679   10.7909    0.3717 C.3       1 <0>        -0.0174
     21 C17        -4.9911    9.5457   -1.0413 C.3       1 <0>        -0.0465
     22 C18        -6.3567    8.8544   -1.0751 C.3       1 <0>         0.0338
     23 O1         -7.3762    9.8085   -0.7657 O.3       1 <0>        -0.3507
     24 C19        -7.2147   10.4296    0.5124 C.3       1 <0>         0.0332
     25 C20        -5.8577   11.1368    0.5623 C.3       1 <0>        -0.0380
     26 H1         -2.8678    0.7865   -0.8663 H         1 <0>         0.0775
     27 H2         -2.2889    1.5604   -2.3610 H         1 <0>         0.0686
     28 H3         -1.5616    0.0317   -1.8109 H         1 <0>         0.0766
     29 H4         -0.0001   -0.0041    0.0454 H         1 <0>         0.1339
     30 H5          1.6772    1.2499    1.3376 H         1 <0>         0.1362
     31 H6          1.6497    3.7110    1.3332 H         1 <0>         0.1364
     32 H7         -1.7474    3.6582   -1.2647 H         1 <0>         0.1249
     33 H8         -0.9125    5.7140   -0.0411 H         1 <0>         0.4195
     34 H9         -1.0162    7.7085    0.1989 H         1 <0>         0.1742
     35 H10         3.3429    9.9700    0.5241 H         1 <0>         0.2243
     36 H11         4.3483    5.4481    0.1903 H         1 <0>         0.2245
     37 H12        -0.9896   11.2984    0.4931 H         1 <0>         0.4238
     38 H13        -2.4650    9.1640   -0.6223 H         1 <0>         0.1008
     39 H14        -2.5221    9.0191    1.1508 H         1 <0>         0.1022
     40 H15        -3.3899   11.3363    1.3122 H         1 <0>         0.1453
     41 H16        -3.3328   11.4812   -0.4609 H         1 <0>         0.1461
     42 H17        -4.9532   10.3146   -1.8129 H         1 <0>         0.1462
     43 H18        -4.2065    8.8105   -1.2203 H         1 <0>         0.1381
     44 H19        -6.3758    8.0500   -0.3398 H         1 <0>         0.0839
     45 H20        -6.5327    8.4431   -2.0691 H         1 <0>         0.1459
     46 H21        -7.2587    9.6710    1.2939 H         1 <0>         0.0849
     47 H22        -8.0107   11.1581    0.6662 H         1 <0>         0.1481
     48 H23        -5.7058   11.5631    1.5539 H         1 <0>         0.1457
     49 H24        -5.8337   11.9312   -0.1837 H         1 <0>         0.1454
     50 N5          1.2775   10.2140    0.4775 N.ar      1 <0>        -0.4866
     51 H25         1.3208   11.2363    0.5621 H         1 <0>         0.4806
     52 N6         -4.7956   10.1437    0.2959 N.4       1 <0>        -0.3931
     53 H26        -4.8463    9.4021    1.0042 H         1 <0>         0.4302
@<TRIPOS>BOND
     1    1    2 1
     2    1   26 1
     3    1   27 1
     4    1   28 1
     5    2    7 ar
     6    2    3 ar
     7    3    4 ar
     8    3   29 1
     9    4    5 ar
    10    4   30 1
    11    5    6 ar
    12    5   31 1
    13    6    7 ar
    14    6    8 1
    15    7   32 1
    16    8    9 1
    17    8   33 1
    18    9   17 ar
    19    9   10 ar
    20   10   14 ar
    21   10   11 ar
    22   11   12 ar
    23   11   34 1
    24   12   18 1
    25   12   50 ar
    26   13   14 ar
    27   13   35 1
    28   13   50 ar
    29   14   15 ar
    30   15   16 ar
    31   16   17 ar
    32   16   36 1
    33   18   19 1
    34   18   37 1
    35   19   20 1
    36   19   38 1
    37   19   39 1
    38   20   40 1
    39   20   41 1
    40   20   52 1
    41   21   22 1
    42   21   42 1
    43   21   43 1
    44   21   52 1
    45   22   23 1
    46   22   44 1
    47   22   45 1
    48   23   24 1
    49   24   25 1
    50   24   46 1
    51   24   47 1
    52   25   48 1
    53   25   49 1
    54   25   52 1
    55   50   51 1
    56   52   53 1
@<TRIPOS>MOLECULE
ZINC03815100
   28    30     0     0     0
SMALL
USER_CHARGES

@<TRIPOS>ATOM
      1 C1         -1.1108    2.9203   -0.7515 C.ar      1 <0>        -0.0914
      2 C2          0.0731    3.6319   -0.7455 C.ar      1 <0>        -0.0972
      3 C3          1.1562    3.1695   -0.0088 C.ar      1 <0>         0.1559
      4 C4          1.0449    1.9921    0.7200 C.ar      1 <0>        -0.1178
      5 C5         -0.1421    1.2850    0.7099 C.ar      1 <0>        -0.0706
      6 C6         -1.2207    1.7517   -0.0211 C.ar      1 <0>        -0.1039
      7 Br1        -0.2955   -0.3176    1.7019 Br        1 <0>        -0.0437
      8 N1          2.3551    3.8876   -0.0005 N.pl3     1 <0>        -0.6194
      9 C7          2.3357    5.2646   -0.0976 C.ar      1 <0>         0.4678
     10 C8          3.5726    6.0347   -0.2111 C.ar      1 <0>         0.0903
     11 C9          3.4639    7.4429   -0.3121 C.ar      1 <0>         0.0267
     12 C10         4.6473    8.1940   -0.4282 C.ar      1 <0>         0.2525
     13 N2          5.7970    7.5515   -0.4430 N.ar      1 <0>        -0.5303
     14 C11         5.8571    6.2253   -0.3515 C.ar      1 <0>         0.5622
     15 N3          4.7783    5.4714   -0.2403 N.ar      1 <0>        -0.5472
     16 N4          7.0982    5.6122   -0.3732 N.pl3     1 <0>        -0.8138
     17 N5          2.2480    7.9992   -0.2879 N.ar      1 <0>        -0.5095
     18 C12         1.1713    7.2599   -0.1787 C.ar      1 <0>         0.3267
     19 N6          1.1935    5.9400   -0.0858 N.ar      1 <0>        -0.5553
     20 H1         -1.9531    3.2798   -1.3239 H         1 <0>         0.1380
     21 H2          0.1568    4.5467   -1.3133 H         1 <0>         0.1438
     22 H3          1.8850    1.6301    1.2941 H         1 <0>         0.1355
     23 H4         -2.1489    1.1995   -0.0243 H         1 <0>         0.1355
     24 H5          3.2009    3.4185    0.0735 H         1 <0>         0.4318
     25 H6          4.6142    9.2709   -0.5029 H         1 <0>         0.1944
     26 H7          7.9026    6.1483   -0.4539 H         1 <0>         0.4186
     27 H8          7.1634    4.6466   -0.3077 H         1 <0>         0.4174
     28 H9          0.2120    7.7558   -0.1634 H         1 <0>         0.2032
@<TRIPOS>BOND
     1    1    6 ar
     2    1    2 ar
     3    1   20 1
     4    2    3 ar
     5    2   21 1
     6    3    4 ar
     7    3    8 1
     8    4    5 ar
     9    4   22 1
    10    5    6 ar
    11    5    7 1
    12    6   23 1
    13    8    9 1
    14    8   24 1
    15    9   19 ar
    16    9   10 ar
    17   10   15 ar
    18   10   11 ar
    19   11   12 ar
    20   11   17 ar
    21   12   13 ar
    22   12   25 1
    23   13   14 ar
    24   14   15 ar
    25   14   16 1
    26   16   26 1
    27   16   27 1
    28   17   18 ar
    29   18   19 ar
    30   18   28 1
@<TRIPOS>MOLECULE
ZINC03815101
   28    30     0     0     0
SMALL
USER_CHARGES

@<TRIPOS>ATOM
      1 C1         -1.1093    2.9180   -0.7554 C.ar      1 <0>        -0.0917
      2 C2          0.0746    3.6295   -0.7493 C.ar      1 <0>        -0.0964
      3 C3          1.1562    3.1695   -0.0089 C.ar      1 <0>         0.1561
      4 C4          1.0434    1.9944    0.7234 C.ar      1 <0>        -0.1181
      5 C5         -0.1435    1.2873    0.7131 C.ar      1 <0>        -0.0709
      6 C6         -1.2207    1.7516   -0.0216 C.ar      1 <0>        -0.1041
      7 Br1        -0.2988   -0.3125    1.7094 Br        1 <0>        -0.0443
      8 N1          2.3551    3.8876   -0.0005 N.pl3     1 <0>        -0.6215
      9 C7          2.3358    5.2640   -0.0975 C.ar      1 <0>         0.4788
     10 C8          3.5415    6.0031   -0.2075 C.ar      1 <0>         0.0047
     11 C9          3.4535    7.4117   -0.3088 C.ar      1 <0>         0.2731
     12 N2          4.5700    8.1377   -0.4192 N.ar      1 <0>        -0.3906
     13 C10         5.7382    7.5374   -0.4381 C.ar      1 <0>         0.1034
     14 C11         5.8259    6.1388   -0.3433 C.ar      1 <0>         0.3597
     15 N3          4.7325    5.4057   -0.2337 N.ar      1 <0>        -0.4836
     16 N4          7.0701    5.5228   -0.3645 N.pl3     1 <0>        -0.8295
     17 N5          2.2412    7.9837   -0.2860 N.ar      1 <0>        -0.5146
     18 C12         1.1588    7.2504   -0.1774 C.ar      1 <0>         0.3505
     19 N6          1.1901    5.9308   -0.0850 N.ar      1 <0>        -0.5657
     20 H1         -1.9504    3.2757   -1.3307 H         1 <0>         0.1379
     21 H2          0.1594    4.5425   -1.3199 H         1 <0>         0.1436
     22 H3          1.8824    1.6343    1.3003 H         1 <0>         0.1350
     23 H4         -2.1490    1.1997   -0.0246 H         1 <0>         0.1353
     24 H5          3.2009    3.4185    0.0736 H         1 <0>         0.4313
     25 H6          6.6399    8.1249   -0.5277 H         1 <0>         0.1846
     26 H7          7.8750    6.0582   -0.4446 H         1 <0>         0.4167
     27 H8          7.1344    4.5572   -0.2992 H         1 <0>         0.4108
     28 H9          0.1994    7.7460   -0.1624 H         1 <0>         0.2094
@<TRIPOS>BOND
     1    1    6 ar
     2    1    2 ar
     3    1   20 1
     4    2    3 ar
     5    2   21 1
     6    3    4 ar
     7    3    8 1
     8    4    5 ar
     9    4   22 1
    10    5    6 ar
    11    5    7 1
    12    6   23 1
    13    8    9 1
    14    8   24 1
    15    9   19 ar
    16    9   10 ar
    17   10   15 ar
    18   10   11 ar
    19   11   12 ar
    20   11   17 ar
    21   12   13 ar
    22   13   14 ar
    23   13   25 1
    24   14   15 ar
    25   14   16 1
    26   16   26 1
    27   16   27 1
    28   17   18 ar
    29   18   19 ar
    30   18   28 1
@<TRIPOS>MOLECULE
ZINC03815102
   35    37     0     0     0
SMALL
USER_CHARGES

@<TRIPOS>ATOM
      1 C1          2.1576    5.6966    0.3943 C.ar      1 <0>        -0.0922
      2 C2          2.2602    4.3225    0.4909 C.ar      1 <0>        -0.0843
      3 C3          3.3215    3.6622   -0.1146 C.ar      1 <0>         0.1335
      4 C4          4.2799    4.3869   -0.8116 C.ar      1 <0>        -0.1068
      5 C5          4.1693    5.7608   -0.9084 C.ar      1 <0>        -0.0748
      6 C6          3.1101    6.4152   -0.3040 C.ar      1 <0>        -0.0895
      7 Br1         5.4699    6.7485   -1.8618 Br        1 <0>        -0.0339
      8 N1          3.4281    2.2717   -0.0180 N.pl3     1 <0>        -0.6189
      9 C7          2.2914    1.4919   -0.0148 C.ar      1 <0>         0.5203
     10 C8          2.3670    0.0967    0.2030 C.ar      1 <0>        -0.2673
     11 C9          3.5749   -0.5691    0.4254 C.ar      1 <0>         0.2590
     12 C10         2.4714   -2.6007    0.6198 C.ar      1 <0>         0.4382
     13 C11         1.2297   -2.0296    0.4088 C.ar      1 <0>        -0.1977
     14 C12         1.1579   -0.6486    0.1936 C.ar      1 <0>         0.2961
     15 N2          0.0031   -0.0057   -0.0199 N.ar      1 <0>        -0.5539
     16 C13        -0.0055    1.2929   -0.2168 C.ar      1 <0>         0.4150
     17 N3          1.0938    2.0290   -0.2171 N.ar      1 <0>        -0.5888
     18 N4          2.5604   -3.9699    0.8350 N.pl3     1 <0>        -0.6575
     19 C14         1.3474   -4.7915    0.8366 C.3       1 <0>         0.0554
     20 C15         1.7158   -6.2306    1.0904 C.2       1 <0>         0.4585
     21 O1          2.8728   -6.5383    1.2532 O.co2     1 <0>        -0.6289
     22 H1          1.3324    6.2103    0.8651 H         1 <0>         0.1424
     23 H2          1.5156    3.7620    1.0367 H         1 <0>         0.1432
     24 H3          5.1086    3.8769   -1.2801 H         1 <0>         0.1380
     25 H4          3.0277    7.4896   -0.3777 H         1 <0>         0.1399
     26 H5          4.3020    1.8556    0.0467 H         1 <0>         0.4235
     27 H6          4.5023   -0.0157    0.4358 H         1 <0>         0.1926
     28 H7          0.3358   -2.6356    0.4097 H         1 <0>         0.1915
     29 H8         -0.9528    1.7814   -0.3908 H         1 <0>         0.2164
     30 H9          3.4256   -4.3822    0.9842 H         1 <0>         0.4254
     31 H10         0.6748   -4.4448    1.6211 H         1 <0>         0.0990
     32 H11         0.8511   -4.7086   -0.1303 H         1 <0>         0.0989
     33 N5          3.6579   -1.9077    0.6354 N.ar      1 <0>        -0.5395
     34 H12         4.5572   -2.3762    0.7969 H         1 <0>         0.4729
     35 O2          0.7586   -7.1704    1.1355 O.co2     1 <0>        -0.7256
@<TRIPOS>BOND
     1    1    6 ar
     2    1    2 ar
     3    1   22 1
     4    2    3 ar
     5    2   23 1
     6    3    4 ar
     7    3    8 1
     8    4    5 ar
     9    4   24 1
    10    5    6 ar
    11    5    7 1
    12    6   25 1
    13    8    9 1
    14    8   26 1
    15    9   17 ar
    16    9   10 ar
    17   10   14 ar
    18   10   11 ar
    19   11   27 1
    20   11   33 ar
    21   12   13 ar
    22   12   18 1
    23   12   33 ar
    24   13   14 ar
    25   13   28 1
    26   14   15 ar
    27   15   16 ar
    28   16   17 ar
    29   16   29 1
    30   18   19 1
    31   18   30 1
    32   19   20 1
    33   19   31 1
    34   19   32 1
    35   20   21 2
    36   20   35 1
    37   33   34 1
@<TRIPOS>MOLECULE
ZINC03815103
   43    46     0     0     0
SMALL
USER_CHARGES

@<TRIPOS>ATOM
      1 C1          3.0383   10.6703    0.4011 C.ar      1 <0>        -0.0931
      2 C2          2.4613    9.4198    0.5074 C.ar      1 <0>        -0.0922
      3 C3          3.0661    8.3238   -0.0944 C.ar      1 <0>         0.1595
      4 C4          4.2532    8.4880   -0.7969 C.ar      1 <0>        -0.1193
      5 C5          4.8226    9.7424   -0.9040 C.ar      1 <0>        -0.0716
      6 C6          4.2170   10.8321   -0.3030 C.ar      1 <0>        -0.1042
      7 Br1         6.4348    9.9691   -1.8660 Br        1 <0>        -0.0452
      8 N1          2.4845    7.0572    0.0115 N.pl3     1 <0>        -0.6387
      9 C7          1.1114    6.9272    0.0181 C.ar      1 <0>         0.4773
     10 C8          0.5004    5.6678    0.2459 C.ar      1 <0>        -0.2010
     11 C9          1.2543    4.5170    0.4712 C.ar      1 <0>        -0.0213
     12 C10         0.6052    3.3099    0.6879 C.ar      1 <0>        -0.1057
     13 C11         1.0743    1.9440    0.9484 C.2       1 <0>        -0.1947
     14 C12        -0.0143    1.1724    1.0777 C.2       1 <0>         0.0654
     15 N2         -1.1480    1.9255    0.9169 N.pl3     1 <0>        -0.5175
     16 C13        -0.8082    3.2411    0.6820 C.ar      1 <0>         0.1627
     17 C14        -1.5591    4.3802    0.4593 C.ar      1 <0>        -0.1370
     18 C15        -0.9181    5.6008    0.2396 C.ar      1 <0>         0.2000
     19 N3         -1.6138    6.7300    0.0190 N.ar      1 <0>        -0.5488
     20 C16        -0.9923    7.8657   -0.1856 C.ar      1 <0>         0.3483
     21 N4          0.3274    7.9762   -0.1888 N.ar      1 <0>        -0.5924
     22 C17        -2.5175    1.4100    0.9872 C.3       1 <0>         0.3320
     23 H1         -3.1449    1.9471    0.2759 H         1 <0>         0.1280
     24 C18        -3.0652    1.6086    2.4019 C.3       1 <0>        -0.1655
     25 C19        -4.5350    1.1855    2.4439 C.3       1 <0>         0.0816
     26 O1         -5.0465    1.3710    3.7652 O.3       1 <0>        -0.5738
     27 O2         -2.5192    0.0173    0.6670 O.3       1 <0>        -0.5424
     28 H2          2.5682   11.5227    0.8690 H         1 <0>         0.1369
     29 H3          1.5405    9.2944    1.0577 H         1 <0>         0.1415
     30 H4          4.7283    7.6370   -1.2622 H         1 <0>         0.1346
     31 H5          4.6663   11.8109   -0.3839 H         1 <0>         0.1346
     32 H6          3.0465    6.2696    0.0803 H         1 <0>         0.4220
     33 H7          2.3333    4.5645    0.4767 H         1 <0>         0.1302
     34 H8          2.1024    1.6212    1.0218 H         1 <0>         0.1548
     35 H9          0.0000    0.1107    1.2752 H         1 <0>         0.1722
     36 H10        -2.6377    4.3261    0.4555 H         1 <0>         0.1366
     37 H11        -1.5838    8.7524   -0.3595 H         1 <0>         0.1959
     38 H12        -2.4921    1.0009    3.1021 H         1 <0>         0.0824
     39 H13        -2.9816    2.6593    2.6797 H         1 <0>         0.0896
     40 H14        -5.1081    1.7932    1.7437 H         1 <0>         0.0507
     41 H15        -4.6186    0.1348    2.1661 H         1 <0>         0.0567
     42 H16        -5.9756    1.1224    3.8658 H         1 <0>         0.3862
     43 H17        -1.9800   -0.5234    1.2603 H         1 <0>         0.3850
@<TRIPOS>BOND
     1    1    6 ar
     2    1    2 ar
     3    1   28 1
     4    2    3 ar
     5    2   29 1
     6    3    4 ar
     7    3    8 1
     8    4    5 ar
     9    4   30 1
    10    5    6 ar
    11    5    7 1
    12    6   31 1
    13    8    9 1
    14    8   32 1
    15    9   21 ar
    16    9   10 ar
    17   10   18 ar
    18   10   11 ar
    19   11   12 ar
    20   11   33 1
    21   12   16 ar
    22   12   13 1
    23   13   14 2
    24   13   34 1
    25   14   15 1
    26   14   35 1
    27   15   16 1
    28   15   22 1
    29   16   17 ar
    30   17   18 ar
    31   17   36 1
    32   18   19 ar
    33   19   20 ar
    34   20   21 ar
    35   20   37 1
    36   22   23 1
    37   22   24 1
    38   22   27 1
    39   24   25 1
    40   24   38 1
    41   24   39 1
    42   25   26 1
    43   25   40 1
    44   25   41 1
    45   26   42 1
    46   27   43 1
@<TRIPOS>MOLECULE
ZINC03815105
   46    49     0     0     0
SMALL
USER_CHARGES

@<TRIPOS>ATOM
      1 C1          5.4210   -2.5818    0.2263 C.ar      1 <0>        -0.0897
      2 C2          4.1624   -2.0257    0.3470 C.ar      1 <0>        -0.1179
      3 C3          3.9181   -0.7497   -0.1445 C.ar      1 <0>         0.1275
      4 C4          4.9399   -0.0386   -0.7609 C.ar      1 <0>        -0.0785
      5 C5          6.1980   -0.5985   -0.8742 C.ar      1 <0>        -0.0738
      6 C6          6.4375   -1.8702   -0.3833 C.ar      1 <0>        -0.0878
      7 Br1         7.5917    0.3704   -1.7078 Br        1 <0>        -0.0283
      8 N1          2.6454   -0.1847   -0.0242 N.pl3     1 <0>        -0.6085
      9 C7          2.5084    1.1783    0.1410 C.ar      1 <0>         0.4690
     10 C8          1.1942    1.8133    0.1499 C.ar      1 <0>        -0.0650
     11 C9          0.0010    1.1042   -0.0040 C.ar      1 <0>        -0.1378
     12 C10        -1.1897    1.8101    0.0151 C.ar      1 <0>         0.3998
     13 C11        -0.1189    3.8432    0.3355 C.ar      1 <0>         0.2246
     14 C12         1.1356    3.2198    0.3244 C.ar      1 <0>         0.1212
     15 N2          2.2839    3.8941    0.4719 N.ar      1 <0>        -0.5237
     16 C13         3.4367    3.2722    0.4559 C.ar      1 <0>         0.3839
     17 N3          3.5671    1.9645    0.2978 N.ar      1 <0>        -0.5464
     18 N4         -2.3915    1.1241   -0.1428 N.pl3     1 <0>        -0.7113
     19 C14        -2.3866   -0.3294   -0.3266 C.3       1 <0>         0.1132
     20 C15        -3.8249   -0.8295   -0.4749 C.3       1 <0>        -0.1532
     21 C16        -3.8198   -2.3474   -0.6669 C.3       1 <0>         0.1115
     22 N5         -5.1970   -2.8263   -0.8089 N.pl3     1 <0>        -0.4678
     23 C17        -6.0231   -3.2352    0.2030 C.2       1 <0>        -0.0600
     24 C18        -7.1915   -3.5879   -0.3663 C.2       1 <0>        -0.0200
     25 N6         -7.0785   -3.4084   -1.6907 N.2       1 <0>        -0.4880
     26 C19        -5.8865   -2.9523   -1.9631 C.2       1 <0>         0.1829
     27 H1          5.6112   -3.5739    0.6084 H         1 <0>         0.1444
     28 H2          3.3690   -2.5824    0.8234 H         1 <0>         0.1356
     29 H3          4.7521    0.9521   -1.1478 H         1 <0>         0.1476
     30 H4          7.4205   -2.3076   -0.4769 H         1 <0>         0.1421
     31 H5          1.8584   -0.7508   -0.0569 H         1 <0>         0.4264
     32 H6          0.0072    0.0327   -0.1390 H         1 <0>         0.1790
     33 H7         -0.1886    4.9129    0.4668 H         1 <0>         0.2184
     34 H8          4.3335    3.8611    0.5794 H         1 <0>         0.2199
     35 H9         -3.2317    1.6086   -0.1310 H         1 <0>         0.4200
     36 H10        -1.8203   -0.5802   -1.2236 H         1 <0>         0.0902
     37 H11        -1.9245   -0.8035    0.5393 H         1 <0>         0.0894
     38 H12        -4.3911   -0.5786    0.4221 H         1 <0>         0.0868
     39 H13        -4.2870   -0.3553   -1.3408 H         1 <0>         0.0876
     40 H14        -3.2535   -2.5983   -1.5638 H         1 <0>         0.1010
     41 H15        -3.3577   -2.8216    0.1990 H         1 <0>         0.0986
     42 H16        -5.7847   -3.2665    1.2559 H         1 <0>         0.1756
     43 H17        -8.0645   -3.9560    0.1521 H         1 <0>         0.1730
     44 H18        -5.5135   -2.7146   -2.9484 H         1 <0>         0.2052
     45 N7         -1.2872    3.1686    0.1872 N.ar      1 <0>        -0.4950
     46 H19        -2.1948    3.6483    0.2028 H         1 <0>         0.4782
@<TRIPOS>BOND
     1    1    6 ar
     2    1    2 ar
     3    1   27 1
     4    2    3 ar
     5    2   28 1
     6    3    4 ar
     7    3    8 1
     8    4    5 ar
     9    4   29 1
    10    5    6 ar
    11    5    7 1
    12    6   30 1
    13    8    9 1
    14    8   31 1
    15    9   17 ar
    16    9   10 ar
    17   10   14 ar
    18   10   11 ar
    19   11   12 ar
    20   11   32 1
    21   12   18 1
    22   12   45 ar
    23   13   14 ar
    24   13   33 1
    25   13   45 ar
    26   14   15 ar
    27   15   16 ar
    28   16   17 ar
    29   16   34 1
    30   18   19 1
    31   18   35 1
    32   19   20 1
    33   19   36 1
    34   19   37 1
    35   20   21 1
    36   20   38 1
    37   20   39 1
    38   21   22 1
    39   21   40 1
    40   21   41 1
    41   22   26 1
    42   22   23 1
    43   23   24 2
    44   23   42 1
    45   24   25 1
    46   24   43 1
    47   25   26 2
    48   26   44 1
    49   45   46 1
@<TRIPOS>MOLECULE
ZINC03815105
   47    50     0     0     0
SMALL
USER_CHARGES

@<TRIPOS>ATOM
      1 C1          5.4210   -2.5818    0.2263 C.ar      1 <0>        -0.0894
      2 C2          4.1624   -2.0257    0.3470 C.ar      1 <0>        -0.1183
      3 C3          3.9181   -0.7497   -0.1445 C.ar      1 <0>         0.1228
      4 C4          4.9399   -0.0386   -0.7609 C.ar      1 <0>        -0.0781
      5 C5          6.1980   -0.5985   -0.8742 C.ar      1 <0>        -0.0736
      6 C6          6.4375   -1.8702   -0.3833 C.ar      1 <0>        -0.0850
      7 Br1         7.5917    0.3704   -1.7078 Br        1 <0>        -0.0234
      8 N1          2.6454   -0.1847   -0.0242 N.pl3     1 <0>        -0.6071
      9 C7          2.5084    1.1783    0.1410 C.ar      1 <0>         0.4683
     10 C8          1.1942    1.8133    0.1499 C.ar      1 <0>        -0.0694
     11 C9          0.0010    1.1042   -0.0040 C.ar      1 <0>        -0.1341
     12 C10        -1.1897    1.8101    0.0151 C.ar      1 <0>         0.3907
     13 C11        -0.1189    3.8432    0.3355 C.ar      1 <0>         0.2311
     14 C12         1.1356    3.2198    0.3244 C.ar      1 <0>         0.1283
     15 N2          2.2839    3.8941    0.4719 N.ar      1 <0>        -0.5219
     16 C13         3.4367    3.2722    0.4559 C.ar      1 <0>         0.3905
     17 N3          3.5671    1.9645    0.2978 N.ar      1 <0>        -0.5420
     18 N4         -2.3915    1.1241   -0.1428 N.pl3     1 <0>        -0.7218
     19 C14        -2.3866   -0.3294   -0.3266 C.3       1 <0>         0.1161
     20 C15        -3.8249   -0.8295   -0.4749 C.3       1 <0>        -0.1583
     21 C16        -3.8198   -2.3474   -0.6669 C.3       1 <0>         0.0986
     22 N5         -5.1970   -2.8263   -0.8089 N.pl3     1 <0>        -0.4173
     23 C17        -6.0231   -3.2352    0.2030 C.2       1 <0>         0.0209
     24 C18        -7.1915   -3.5879   -0.3663 C.2       1 <0>         0.0131
     25 C19        -5.8865   -2.9523   -1.9631 C.cat     1 <0>         0.2900
     26 H1          5.6112   -3.5739    0.6084 H         1 <0>         0.1452
     27 H2          3.3690   -2.5824    0.8234 H         1 <0>         0.1342
     28 H3          4.7521    0.9521   -1.1478 H         1 <0>         0.1473
     29 H4          7.4205   -2.3076   -0.4769 H         1 <0>         0.1438
     30 H5          1.8584   -0.7508   -0.0569 H         1 <0>         0.4242
     31 H6          0.0072    0.0327   -0.1390 H         1 <0>         0.1775
     32 H7         -0.1886    4.9129    0.4668 H         1 <0>         0.2213
     33 H8          4.3335    3.8611    0.5794 H         1 <0>         0.2231
     34 H9         -3.2317    1.6086   -0.1310 H         1 <0>         0.4189
     35 H10        -1.8203   -0.5802   -1.2236 H         1 <0>         0.0923
     36 H11        -1.9245   -0.8035    0.5393 H         1 <0>         0.0923
     37 H12        -4.3911   -0.5786    0.4221 H         1 <0>         0.0956
     38 H13        -4.2870   -0.3553   -1.3408 H         1 <0>         0.0936
     39 H14        -3.2535   -2.5983   -1.5638 H         1 <0>         0.1277
     40 H15        -3.3577   -2.8216    0.1990 H         1 <0>         0.1301
     41 H16        -5.7847   -3.2665    1.2559 H         1 <0>         0.2236
     42 H17        -8.0645   -3.9560    0.1521 H         1 <0>         0.2260
     43 H18        -5.5135   -2.7146   -2.9484 H         1 <0>         0.2600
     44 N6         -1.2872    3.1686    0.1872 N.ar      1 <0>        -0.4918
     45 H19        -2.1948    3.6483    0.2028 H         1 <0>         0.4785
     46 N7         -7.0775   -3.4082   -1.6898 N.pl3     1 <0>        -0.4798
     47 H20        -7.8129   -3.5994   -2.3804 H         1 <0>         0.4857
@<TRIPOS>BOND
     1    1    6 ar
     2    1    2 ar
     3    1   26 1
     4    2    3 ar
     5    2   27 1
     6    3    4 ar
     7    3    8 1
     8    4    5 ar
     9    4   28 1
    10    5    6 ar
    11    5    7 1
    12    6   29 1
    13    8    9 1
    14    8   30 1
    15    9   17 ar
    16    9   10 ar
    17   10   14 ar
    18   10   11 ar
    19   11   12 ar
    20   11   31 1
    21   12   18 1
    22   12   44 ar
    23   13   14 ar
    24   13   32 1
    25   13   44 ar
    26   14   15 ar
    27   15   16 ar
    28   16   17 ar
    29   16   33 1
    30   18   19 1
    31   18   34 1
    32   19   20 1
    33   19   35 1
    34   19   36 1
    35   20   21 1
    36   20   37 1
    37   20   38 1
    38   21   22 1
    39   21   39 1
    40   21   40 1
    41   22   25 1
    42   22   23 1
    43   23   24 2
    44   23   41 1
    45   24   42 1
    46   24   46 1
    47   25   43 1
    48   25   46 2
    49   44   45 1
    50   46   47 1
@<TRIPOS>MOLECULE
ZINC03815106
   32    35     0     0     0
SMALL
USER_CHARGES

@<TRIPOS>ATOM
      1 C1         -6.4187   -4.6352   -0.2512 C.ar      1 <0>        -0.0922
      2 C2         -5.1905   -4.0136   -0.3657 C.ar      1 <0>        -0.1275
      3 C3         -5.0120   -2.7324    0.1402 C.ar      1 <0>         0.1498
      4 C4         -6.0687   -2.0819    0.7647 C.ar      1 <0>        -0.0813
      5 C5         -7.2962   -2.7072    0.8717 C.ar      1 <0>        -0.0720
      6 C6         -7.4701   -3.9839    0.3664 C.ar      1 <0>        -0.1017
      7 Br1        -8.7374   -1.8209    1.7163 Br        1 <0>        -0.0407
      8 N1         -3.7702   -2.1012    0.0262 N.pl3     1 <0>        -0.6258
      9 C7         -3.7039   -0.7336   -0.1241 C.ar      1 <0>         0.4808
     10 C8         -2.4186   -0.0283   -0.1259 C.ar      1 <0>        -0.1677
     11 C9         -1.2127   -0.6942    0.0223 C.ar      1 <0>        -0.0091
     12 C10        -0.0205    0.0360    0.0125 C.ar      1 <0>         0.0455
     13 C11        -0.0513    1.4921   -0.1532 C.ar      1 <0>         0.1026
     14 C12        -1.2701    2.1577   -0.2958 C.ar      1 <0>        -0.0627
     15 C13        -2.4528    1.4288   -0.2919 C.ar      1 <0>         0.1804
     16 N2         -3.6545    2.0187   -0.4312 N.ar      1 <0>        -0.5430
     17 C14        -4.7549    1.3115   -0.4177 C.ar      1 <0>         0.3631
     18 N3         -4.8007   -0.0022   -0.2726 N.ar      1 <0>        -0.5877
     19 N4          1.1080    2.1695   -0.1594 N.ar      1 <0>        -0.4270
     20 C15         2.2382    1.5202   -0.0186 C.ar      1 <0>         0.1039
     21 C16         2.2665    0.1313    0.1399 C.ar      1 <0>         0.0786
     22 N5          1.1639   -0.5776    0.1531 N.ar      1 <0>        -0.4142
     23 H1         -6.5577   -5.6314   -0.6445 H         1 <0>         0.1390
     24 H2         -4.3697   -4.5233   -0.8484 H         1 <0>         0.1335
     25 H3         -5.9319   -1.0874    1.1630 H         1 <0>         0.1497
     26 H4         -8.4292   -4.4725    0.4552 H         1 <0>         0.1362
     27 H5         -2.9550   -2.6262    0.0530 H         1 <0>         0.4255
     28 H6         -1.1938   -1.7672    0.1438 H         1 <0>         0.1451
     29 H7         -1.2929    3.2305   -0.4176 H         1 <0>         0.1594
     30 H8         -5.6913    1.8370   -0.5333 H         1 <0>         0.1992
     31 H9          3.1677    2.0701   -0.0251 H         1 <0>         0.1805
     32 H10         3.2172   -0.3683    0.2535 H         1 <0>         0.1797
@<TRIPOS>BOND
     1    1    6 ar
     2    1    2 ar
     3    1   23 1
     4    2    3 ar
     5    2   24 1
     6    3    4 ar
     7    3    8 1
     8    4    5 ar
     9    4   25 1
    10    5    6 ar
    11    5    7 1
    12    6   26 1
    13    8    9 1
    14    8   27 1
    15    9   18 ar
    16    9   10 ar
    17   10   15 ar
    18   10   11 ar
    19   11   12 ar
    20   11   28 1
    21   12   22 ar
    22   12   13 ar
    23   13   14 ar
    24   13   19 ar
    25   14   15 ar
    26   14   29 1
    27   15   16 ar
    28   16   17 ar
    29   17   18 ar
    30   17   30 1
    31   19   20 ar
    32   20   21 ar
    33   20   31 1
    34   21   22 ar
    35   21   32 1
@<TRIPOS>MOLECULE
ZINC03815107
   31    34     0     0     0
SMALL
USER_CHARGES

@<TRIPOS>ATOM
      1 C1         -1.2547    1.7947    0.3980 C.ar      1 <0>        -0.1278
      2 C2         -0.0672    1.1027    0.2073 C.ar      1 <0>        -0.0707
      3 C3          1.1124    1.8050    0.0619 C.ar      1 <0>        -0.0861
      4 C4          1.0972    3.1847    0.1137 C.ar      1 <0>        -0.0792
      5 C5         -0.0884    3.9117    0.3114 C.ar      1 <0>        -0.0916
      6 C6         -1.2784    3.1641    0.4554 C.ar      1 <0>        -0.0421
      7 C7          0.0575    5.3802    0.3438 C.ar      1 <0>         0.2223
      8 C8          1.3578    5.8712    0.1740 C.ar      1 <0>        -0.2796
      9 S1          2.3605    4.4240   -0.0234 S.3       1 <0>         0.0791
     10 C9          1.6125    7.2360    0.1879 C.ar      1 <0>         0.4834
     11 N1          0.5867    8.0678    0.3666 N.ar      1 <0>        -0.5461
     12 C10        -0.6333    7.5883    0.5248 C.ar      1 <0>         0.3426
     13 N2         -0.9098    6.3084    0.5177 N.ar      1 <0>        -0.5270
     14 N3          2.9011    7.7211    0.0196 N.pl3     1 <0>        -0.6432
     15 C11         3.1222    9.0976   -0.0794 C.ar      1 <0>         0.1608
     16 C12         4.2970    9.6512    0.4142 C.ar      1 <0>        -0.1328
     17 C13         4.5130   11.0115    0.3146 C.ar      1 <0>        -0.0903
     18 C14         3.5618   11.8230   -0.2762 C.ar      1 <0>        -0.1072
     19 C15         2.3906   11.2754   -0.7689 C.ar      1 <0>        -0.0696
     20 C16         2.1706    9.9140   -0.6766 C.ar      1 <0>        -0.0881
     21 Br1         1.0934   12.3894   -1.5764 Br        1 <0>        -0.0433
     22 H1         -2.1772    1.2438    0.5071 H         1 <0>         0.1361
     23 H2         -0.0664    0.0234    0.1684 H         1 <0>         0.1420
     24 H3          2.0424    1.2779   -0.0919 H         1 <0>         0.1399
     25 H4         -2.2165    3.6766    0.6092 H         1 <0>         0.1369
     26 H5         -1.4442    8.2871    0.6676 H         1 <0>         0.2059
     27 H6          3.6487    7.1051   -0.0293 H         1 <0>         0.4238
     28 H7          5.0405    9.0183    0.8758 H         1 <0>         0.1323
     29 H8          5.4262   11.4420    0.6982 H         1 <0>         0.1379
     30 H9          3.7336   12.8864   -0.3534 H         1 <0>         0.1351
     31 H10         1.2582    9.4862   -1.0650 H         1 <0>         0.1467
@<TRIPOS>BOND
     1    1    6 ar
     2    1    2 ar
     3    1   22 1
     4    2    3 ar
     5    2   23 1
     6    3    4 ar
     7    3   24 1
     8    4    9 1
     9    4    5 ar
    10    5    6 ar
    11    5    7 1
    12    6   25 1
    13    7   13 ar
    14    7    8 ar
    15    8    9 1
    16    8   10 ar
    17   10   11 ar
    18   10   14 1
    19   11   12 ar
    20   12   13 ar
    21   12   26 1
    22   14   15 1
    23   14   27 1
    24   15   20 ar
    25   15   16 ar
    26   16   17 ar
    27   16   28 1
    28   17   18 ar
    29   17   29 1
    30   18   19 ar
    31   18   30 1
    32   19   20 ar
    33   19   21 1
    34   20   31 1
@<TRIPOS>MOLECULE
ZINC03815108
   51    53     0     0     0
SMALL
USER_CHARGES

@<TRIPOS>ATOM
      1 C1         -6.1763   -6.5856    0.2415 C.3       1 <0>        -0.0482
      2 C2         -7.9941   -6.3282   -1.3371 C.3       1 <0>        -0.0444
      3 C3         -6.5962   -4.4312   -0.7807 C.3       1 <0>        -0.0064
      4 C4         -5.1405   -3.9816   -0.6407 C.3       1 <0>        -0.1489
      5 C5         -5.0914   -2.4643   -0.4498 C.3       1 <0>        -0.1334
      6 C6         -3.6357   -2.0147   -0.3098 C.3       1 <0>         0.1124
      7 N1         -3.5888   -0.5619   -0.1270 N.pl3     1 <0>        -0.7201
      8 C7         -2.3630    0.0818    0.0237 C.ar      1 <0>         0.3928
      9 C8         -1.1975   -0.6654   -0.0016 C.ar      1 <0>        -0.1363
     10 C9          0.0199    0.0007    0.1514 C.ar      1 <0>        -0.0681
     11 C10         0.0114    1.4088    0.3255 C.ar      1 <0>         0.1259
     12 C11        -1.2200    2.0755    0.3424 C.ar      1 <0>         0.2303
     13 N2          1.1832    2.0418    0.4722 N.ar      1 <0>        -0.5211
     14 C12         2.3130    1.3791    0.4558 C.ar      1 <0>         0.3888
     15 N3          2.3968    0.0675    0.2981 N.ar      1 <0>        -0.5422
     16 C13         1.3108   -0.6806    0.1421 C.ar      1 <0>         0.4677
     17 N4          1.3992   -2.0476   -0.0228 N.pl3     1 <0>        -0.6083
     18 C14         2.6510   -2.6575   -0.1435 C.ar      1 <0>         0.1240
     19 C15         2.8501   -3.9416    0.3485 C.ar      1 <0>        -0.1193
     20 C16         4.0878   -4.5418    0.2275 C.ar      1 <0>        -0.0896
     21 C17         5.1289   -3.8668   -0.3832 C.ar      1 <0>        -0.0856
     22 C18         4.9344   -2.5882   -0.8748 C.ar      1 <0>        -0.0733
     23 C19         3.6967   -1.9836   -0.7606 C.ar      1 <0>        -0.0782
     24 Br1         6.3609   -1.6700   -1.7100 Br        1 <0>        -0.0232
     25 H1         -6.8127   -6.3188    1.0852 H         1 <0>         0.1249
     26 H2         -6.2215   -7.6624    0.0785 H         1 <0>         0.1267
     27 H3         -5.1482   -6.2933    0.4552 H         1 <0>         0.1200
     28 H4         -8.2876   -5.8488   -2.2709 H         1 <0>         0.1233
     29 H5         -8.0008   -7.4105   -1.4666 H         1 <0>         0.1268
     30 H6         -8.6964   -6.0521   -0.5505 H         1 <0>         0.1250
     31 H7         -7.1482   -4.1603    0.1193 H         1 <0>         0.1334
     32 H8         -7.0463   -3.9416   -1.6442 H         1 <0>         0.1317
     33 H9         -4.5884   -4.2525   -1.5407 H         1 <0>         0.0944
     34 H10        -4.6904   -4.4712    0.2229 H         1 <0>         0.0945
     35 H11        -5.6435   -2.1934    0.4502 H         1 <0>         0.0895
     36 H12        -5.5415   -1.9747   -1.3133 H         1 <0>         0.0898
     37 H13        -3.0837   -2.2856   -1.2098 H         1 <0>         0.0866
     38 H14        -3.1856   -2.5043    0.5537 H         1 <0>         0.0862
     39 H15        -4.4115   -0.0483   -0.1109 H         1 <0>         0.4192
     40 H16        -1.2293   -1.7366   -0.1359 H         1 <0>         0.1765
     41 H17        -1.2516    3.1470    0.4735 H         1 <0>         0.2210
     42 H18         3.2304    1.9358    0.5779 H         1 <0>         0.2228
     43 H19         0.5925   -2.5854   -0.0548 H         1 <0>         0.4238
     44 H20         2.0377   -4.4696    0.8256 H         1 <0>         0.1334
     45 H21         4.2428   -5.5399    0.6098 H         1 <0>         0.1448
     46 H22         6.0958   -4.3388   -0.4768 H         1 <0>         0.1437
     47 H23         3.5441   -0.9870   -1.1477 H         1 <0>         0.1475
     48 N5         -6.6255   -5.8947   -0.9855 N.4       1 <0>        -0.3986
     49 H24        -5.9909   -6.1364   -1.7557 H         1 <0>         0.4320
     50 N6         -2.4116    1.4433    0.1898 N.ar      1 <0>        -0.4929
     51 H25        -3.3012    1.9560    0.1983 H         1 <0>         0.4787
@<TRIPOS>BOND
     1    1   25 1
     2    1   26 1
     3    1   27 1
     4    1   48 1
     5    2   28 1
     6    2   29 1
     7    2   30 1
     8    2   48 1
     9    3    4 1
    10    3   31 1
    11    3   32 1
    12    3   48 1
    13    4    5 1
    14    4   33 1
    15    4   34 1
    16    5    6 1
    17    5   35 1
    18    5   36 1
    19    6    7 1
    20    6   37 1
    21    6   38 1
    22    7    8 1
    23    7   39 1
    24    8    9 ar
    25    8   50 ar
    26    9   10 ar
    27    9   40 1
    28   10   16 ar
    29   10   11 ar
    30   11   12 ar
    31   11   13 ar
    32   12   41 1
    33   12   50 ar
    34   13   14 ar
    35   14   15 ar
    36   14   42 1
    37   15   16 ar
    38   16   17 1
    39   17   18 1
    40   17   43 1
    41   18   23 ar
    42   18   19 ar
    43   19   20 ar
    44   19   44 1
    45   20   21 ar
    46   20   45 1
    47   21   22 ar
    48   21   46 1
    49   22   23 ar
    50   22   24 1
    51   23   47 1
    52   48   49 1
    53   50   51 1
@<TRIPOS>MOLECULE
ZINC03815109
   56    59     0     0     0
SMALL
USER_CHARGES

@<TRIPOS>ATOM
      1 C1         -1.9932    0.9790   -1.4877 C.3       1 <0>        -0.1215
      2 C2         -0.9721    1.7510   -0.6924 C.ar      1 <0>        -0.0610
      3 C3         -0.0145    1.0758    0.0424 C.ar      1 <0>        -0.1124
      4 C4          0.9281    1.7802    0.7685 C.ar      1 <0>        -0.0921
      5 C5          0.9128    3.1613    0.7664 C.ar      1 <0>        -0.1084
      6 C6         -0.0510    3.8425    0.0342 C.ar      1 <0>         0.1166
      7 C7         -0.9969    3.1316   -0.6940 C.ar      1 <0>        -0.1344
      8 N1         -0.0691    5.2401    0.0295 N.pl3     1 <0>        -0.6048
      9 C8          1.1128    5.9456    0.1252 C.ar      1 <0>         0.4690
     10 C9          1.1206    7.4005    0.2434 C.ar      1 <0>        -0.0721
     11 C10        -0.0432    8.1720    0.2685 C.ar      1 <0>        -0.1324
     12 C11         0.0819    9.5457    0.3843 C.ar      1 <0>         0.3871
     13 C12         2.3991    9.4501    0.4516 C.ar      1 <0>         0.2302
     14 C13         2.3760    8.0541    0.3372 C.ar      1 <0>         0.1312
     15 N2          3.4886    7.3080    0.3130 N.ar      1 <0>        -0.5255
     16 C14         3.4226    6.0042    0.2052 C.ar      1 <0>         0.3913
     17 N3          2.2882    5.3276    0.1190 N.ar      1 <0>        -0.5412
     18 N4         -1.0655   10.3348    0.4119 N.pl3     1 <0>        -0.7248
     19 C15        -2.3870    9.7094    0.3182 C.3       1 <0>         0.1192
     20 C16        -3.4679   10.7909    0.3717 C.3       1 <0>        -0.1678
     21 C17        -4.8481   10.1377    0.2739 C.3       1 <0>        -0.0008
     22 C18        -5.9095   11.8327    1.6405 C.3       1 <0>        -0.0431
     23 C19        -6.9617   12.9448    1.6308 C.3       1 <0>         0.0335
     24 O1         -8.2320   12.3893    1.2802 O.3       1 <0>        -0.3524
     25 C20        -8.2453   11.7424    0.0048 C.3       1 <0>         0.0329
     26 C21        -7.2061   10.6181   -0.0020 C.3       1 <0>        -0.0386
     27 H1         -2.8678    0.7865   -0.8663 H         1 <0>         0.0770
     28 H2         -2.2889    1.5604   -2.3610 H         1 <0>         0.0685
     29 H3         -1.5616    0.0317   -1.8109 H         1 <0>         0.0760
     30 H4         -0.0001   -0.0041    0.0454 H         1 <0>         0.1331
     31 H5          1.6772    1.2499    1.3376 H         1 <0>         0.1356
     32 H6          1.6497    3.7110    1.3332 H         1 <0>         0.1365
     33 H7         -1.7474    3.6582   -1.2647 H         1 <0>         0.1254
     34 H8         -0.9125    5.7140   -0.0411 H         1 <0>         0.4209
     35 H9         -1.0162    7.7085    0.1989 H         1 <0>         0.1762
     36 H10         3.3429    9.9700    0.5241 H         1 <0>         0.2215
     37 H11         4.3483    5.4481    0.1903 H         1 <0>         0.2227
     38 H12        -0.9896   11.2984    0.4931 H         1 <0>         0.4189
     39 H13        -2.4650    9.1640   -0.6223 H         1 <0>         0.0929
     40 H14        -2.5221    9.0191    1.1508 H         1 <0>         0.0929
     41 H15        -3.3899   11.3363    1.3122 H         1 <0>         0.1015
     42 H16        -3.3328   11.4812   -0.4609 H         1 <0>         0.1022
     43 H17        -4.9261    9.5923   -0.6666 H         1 <0>         0.1384
     44 H18        -4.9832    9.4474    1.1066 H         1 <0>         0.1392
     45 H19        -6.1605   11.1009    2.4083 H         1 <0>         0.1432
     46 H20        -4.9295   12.2608    1.8512 H         1 <0>         0.1378
     47 H21        -6.6823   13.7039    0.9002 H         1 <0>         0.0821
     48 H22        -7.0228   13.3967    2.6208 H         1 <0>         0.1440
     49 H23        -8.0032   12.4665   -0.7731 H         1 <0>         0.0831
     50 H24        -9.2347   11.3246   -0.1812 H         1 <0>         0.1461
     51 H25        -7.1725   10.1595   -0.9903 H         1 <0>         0.1437
     52 H26        -7.4778    9.8668    0.7395 H         1 <0>         0.1433
     53 N5          1.2775   10.2140    0.4775 N.ar      1 <0>        -0.4906
     54 H27         1.3208   11.2363    0.5621 H         1 <0>         0.4785
     55 N6         -5.8813   11.1954    0.3069 N.4       1 <0>        -0.3965
     56 H28        -5.6539   11.9062   -0.3984 H         1 <0>         0.4283
@<TRIPOS>BOND
     1    1    2 1
     2    1   27 1
     3    1   28 1
     4    1   29 1
     5    2    7 ar
     6    2    3 ar
     7    3    4 ar
     8    3   30 1
     9    4    5 ar
    10    4   31 1
    11    5    6 ar
    12    5   32 1
    13    6    7 ar
    14    6    8 1
    15    7   33 1
    16    8    9 1
    17    8   34 1
    18    9   17 ar
    19    9   10 ar
    20   10   14 ar
    21   10   11 ar
    22   11   12 ar
    23   11   35 1
    24   12   18 1
    25   12   53 ar
    26   13   14 ar
    27   13   36 1
    28   13   53 ar
    29   14   15 ar
    30   15   16 ar
    31   16   17 ar
    32   16   37 1
    33   18   19 1
    34   18   38 1
    35   19   20 1
    36   19   39 1
    37   19   40 1
    38   20   21 1
    39   20   41 1
    40   20   42 1
    41   21   43 1
    42   21   44 1
    43   21   55 1
    44   22   23 1
    45   22   45 1
    46   22   46 1
    47   22   55 1
    48   23   24 1
    49   23   47 1
    50   23   48 1
    51   24   25 1
    52   25   26 1
    53   25   49 1
    54   25   50 1
    55   26   51 1
    56   26   52 1
    57   26   55 1
    58   53   54 1
    59   55   56 1
@<TRIPOS>MOLECULE
ZINC03815110
   53    56     0     0     0
SMALL
USER_CHARGES

@<TRIPOS>ATOM
      1 C1          2.1576    5.6966    0.3943 C.ar      1 <0>        -0.0911
      2 C2          2.2602    4.3225    0.4909 C.ar      1 <0>        -0.0812
      3 C3          3.3215    3.6622   -0.1146 C.ar      1 <0>         0.1121
      4 C4          4.2799    4.3869   -0.8116 C.ar      1 <0>        -0.0989
      5 C5          4.1693    5.7608   -0.9084 C.ar      1 <0>        -0.0760
      6 C6          3.1101    6.4152   -0.3040 C.ar      1 <0>        -0.0776
      7 Br1         5.4699    6.7485   -1.8618 Br        1 <0>        -0.0211
      8 N1          3.4281    2.2717   -0.0180 N.pl3     1 <0>        -0.5999
      9 C7          2.2914    1.4919   -0.0148 C.ar      1 <0>         0.5201
     10 C8          2.3670    0.0967    0.2030 C.ar      1 <0>        -0.2612
     11 C9          3.5749   -0.5691    0.4254 C.ar      1 <0>         0.2730
     12 C10         2.4714   -2.6007    0.6198 C.ar      1 <0>         0.4311
     13 C11         1.2297   -2.0296    0.4088 C.ar      1 <0>        -0.1921
     14 C12         1.1579   -0.6486    0.1936 C.ar      1 <0>         0.3087
     15 N2          0.0031   -0.0057   -0.0199 N.ar      1 <0>        -0.5578
     16 C13        -0.0055    1.2929   -0.2168 C.ar      1 <0>         0.4351
     17 N3          1.0938    2.0290   -0.2171 N.ar      1 <0>        -0.5756
     18 N4          2.5604   -3.9699    0.8350 N.pl3     1 <0>        -0.7199
     19 C14         1.3474   -4.7915    0.8366 C.3       1 <0>         0.1182
     20 C15         1.7214   -6.2525    1.0942 C.3       1 <0>        -0.1676
     21 C16         0.4547   -7.1106    1.0959 C.3       1 <0>        -0.0010
     22 C17         1.5979   -9.0612    0.2269 C.3       1 <0>        -0.0431
     23 C18         2.0006  -10.5021    0.5520 C.3       1 <0>         0.0337
     24 O1          0.8249  -11.2721    0.8171 O.3       1 <0>        -0.3528
     25 C19         0.0377  -10.7670    1.8990 C.3       1 <0>         0.0330
     26 C20        -0.3848   -9.3288    1.5876 C.3       1 <0>        -0.0386
     27 H1          1.3324    6.2103    0.8651 H         1 <0>         0.1466
     28 H2          1.5156    3.7620    1.0367 H         1 <0>         0.1412
     29 H3          5.1086    3.8769   -1.2801 H         1 <0>         0.1396
     30 H4          3.0277    7.4896   -0.3777 H         1 <0>         0.1454
     31 H5          4.3020    1.8556    0.0467 H         1 <0>         0.4252
     32 H6          4.5023   -0.0157    0.4358 H         1 <0>         0.1998
     33 H7          0.3358   -2.6356    0.4097 H         1 <0>         0.1885
     34 H8         -0.9528    1.7814   -0.3908 H         1 <0>         0.2249
     35 H9          3.4256   -4.3822    0.9842 H         1 <0>         0.4177
     36 H10         0.6748   -4.4448    1.6211 H         1 <0>         0.0973
     37 H11         0.8511   -4.7086   -0.1303 H         1 <0>         0.0971
     38 H12         2.3940   -6.5992    0.3097 H         1 <0>         0.1001
     39 H13         2.2177   -6.3354    2.0612 H         1 <0>         0.1008
     40 H14        -0.2180   -6.7639    1.8805 H         1 <0>         0.1395
     41 H15        -0.0416   -7.0276    0.1290 H         1 <0>         0.1401
     42 H16         0.9960   -9.0477   -0.6817 H         1 <0>         0.1433
     43 H17         2.4933   -8.4573    0.0802 H         1 <0>         0.1374
     44 H18         2.6466  -10.5103    1.4298 H         1 <0>         0.0817
     45 H19         2.5331  -10.9314   -0.2967 H         1 <0>         0.1435
     46 H20         0.6267  -10.7828    2.8160 H         1 <0>         0.0827
     47 H21        -0.8493  -11.3879    2.0246 H         1 <0>         0.1459
     48 H22        -0.9367   -8.9202    2.4342 H         1 <0>         0.1441
     49 H23        -1.0184   -9.3195    0.7007 H         1 <0>         0.1436
     50 N5          3.6579   -1.9077    0.6354 N.ar      1 <0>        -0.5407
     51 H24         4.5572   -2.3762    0.7969 H         1 <0>         0.4738
     52 N6          0.8296   -8.5156    1.3653 N.4       1 <0>        -0.3964
     53 H25         1.4134   -8.5493    2.2092 H         1 <0>         0.4277
@<TRIPOS>BOND
     1    1    6 ar
     2    1    2 ar
     3    1   27 1
     4    2    3 ar
     5    2   28 1
     6    3    4 ar
     7    3    8 1
     8    4    5 ar
     9    4   29 1
    10    5    6 ar
    11    5    7 1
    12    6   30 1
    13    8    9 1
    14    8   31 1
    15    9   17 ar
    16    9   10 ar
    17   10   14 ar
    18   10   11 ar
    19   11   32 1
    20   11   50 ar
    21   12   13 ar
    22   12   18 1
    23   12   50 ar
    24   13   14 ar
    25   13   33 1
    26   14   15 ar
    27   15   16 ar
    28   16   17 ar
    29   16   34 1
    30   18   19 1
    31   18   35 1
    32   19   20 1
    33   19   36 1
    34   19   37 1
    35   20   21 1
    36   20   38 1
    37   20   39 1
    38   21   40 1
    39   21   41 1
    40   21   52 1
    41   22   23 1
    42   22   42 1
    43   22   43 1
    44   22   52 1
    45   23   24 1
    46   23   44 1
    47   23   45 1
    48   24   25 1
    49   25   26 1
    50   25   46 1
    51   25   47 1
    52   26   48 1
    53   26   49 1
    54   26   52 1
    55   50   51 1
    56   52   53 1
@<TRIPOS>MOLECULE
ZINC03815111
   30    32     0     0     0
SMALL
USER_CHARGES

@<TRIPOS>ATOM
      1 C1         -1.4903    6.0231    0.3405 C.ar      1 <0>        -0.0691
      2 C2         -0.2803    5.3628    0.4306 C.ar      1 <0>        -0.1600
      3 C3         -0.1517    4.0771   -0.0792 C.ar      1 <0>         0.1836
      4 C4         -1.2396    3.4603   -0.6833 C.ar      1 <0>        -0.1494
      5 C5         -2.4500    4.1242   -0.7664 C.ar      1 <0>         0.1201
      6 C6         -2.5739    5.4063   -0.2563 C.ar      1 <0>        -0.1710
      7 F1         -3.5107    3.5241   -1.3496 F         1 <0>        -0.1357
      8 N1          1.0720    3.4075    0.0106 N.pl3     1 <0>        -0.6406
      9 C7          1.0986    2.0363    0.1632 C.ar      1 <0>         0.4725
     10 C8          2.3223    1.3266    0.1392 C.ar      1 <0>        -0.2353
     11 C9          3.5513    1.9739   -0.0395 C.ar      1 <0>        -0.0290
     12 C10         4.7019    1.2465   -0.0557 C.ar      1 <0>        -0.1835
     13 C11         4.6736   -0.1436    0.1047 C.ar      1 <0>         0.2605
     14 C12         3.4765   -0.8086    0.2822 C.ar      1 <0>        -0.2125
     15 C13         2.2821   -0.0807    0.3021 C.ar      1 <0>         0.2333
     16 N2          1.0913   -0.6767    0.4713 N.ar      1 <0>        -0.5550
     17 C14        -0.0117    0.0335    0.4849 C.ar      1 <0>         0.3525
     18 N3         -0.0228    1.3484    0.3369 N.ar      1 <0>        -0.5949
     19 N4          5.8659   -0.8641    0.0850 N.pl3     1 <0>        -0.8641
     20 H1         -1.5898    7.0229    0.7366 H         1 <0>         0.1376
     21 H2          0.5652    5.8459    0.8974 H         1 <0>         0.1315
     22 H3         -1.1415    2.4624   -1.0845 H         1 <0>         0.1500
     23 H4         -3.5187    5.9249   -0.3253 H         1 <0>         0.1366
     24 H5          1.9024    3.9067   -0.0344 H         1 <0>         0.4226
     25 H6          3.5861    3.0461   -0.1642 H         1 <0>         0.1274
     26 H7          5.6482    1.7483   -0.1937 H         1 <0>         0.1317
     27 H8          3.4626   -1.8815    0.4053 H         1 <0>         0.1377
     28 H9         -0.9529   -0.4780    0.6228 H         1 <0>         0.1955
     29 H10         6.7097   -0.4021   -0.0393 H         1 <0>         0.4028
     30 H11         5.8522   -1.8276    0.1957 H         1 <0>         0.4046
@<TRIPOS>BOND
     1    1    6 ar
     2    1    2 ar
     3    1   20 1
     4    2    3 ar
     5    2   21 1
     6    3    4 ar
     7    3    8 1
     8    4    5 ar
     9    4   22 1
    10    5    6 ar
    11    5    7 1
    12    6   23 1
    13    8    9 1
    14    8   24 1
    15    9   18 ar
    16    9   10 ar
    17   10   15 ar
    18   10   11 ar
    19   11   12 ar
    20   11   25 1
    21   12   13 ar
    22   12   26 1
    23   13   14 ar
    24   13   19 1
    25   14   15 ar
    26   14   27 1
    27   15   16 ar
    28   16   17 ar
    29   17   18 ar
    30   17   28 1
    31   19   29 1
    32   19   30 1
@<TRIPOS>MOLECULE
ZINC03815112
   36    39     0     0     0
SMALL
USER_CHARGES

@<TRIPOS>ATOM
      1 C1         -1.9899    0.9747   -1.4802 C.3       1 <0>        -0.1154
      2 C2         -0.9711    1.7489   -0.6842 C.ar      1 <0>        -0.0650
      3 C3         -0.0169    1.0758    0.0570 C.ar      1 <0>        -0.1363
      4 C4          0.9230    1.7823    0.7845 C.ar      1 <0>        -0.0947
      5 C5          0.9087    3.1634    0.7772 C.ar      1 <0>        -0.1200
      6 C6         -0.0515    3.8425    0.0383 C.ar      1 <0>         0.1577
      7 C7         -0.9946    3.1295   -0.6913 C.ar      1 <0>        -0.1490
      8 N1         -0.0691    5.2400    0.0290 N.pl3     1 <0>        -0.6440
      9 C8          1.1190    5.9492    0.1262 C.ar      1 <0>         0.4827
     10 C9          1.1155    7.3340    0.2329 C.ar      1 <0>        -0.2730
     11 C10         2.3139    8.0505    0.3359 C.ar      1 <0>         0.2148
     12 C11         2.1831    9.5164    0.4499 C.ar      1 <0>        -0.0377
     13 C12         3.2258   10.4635    0.5605 C.ar      1 <0>        -0.1301
     14 C13         2.9441   11.8076    0.6593 C.ar      1 <0>         0.2118
     15 C14         1.6296   12.2691    0.6529 C.ar      1 <0>        -0.1471
     16 C15         0.5939   11.3635    0.5458 C.ar      1 <0>        -0.0357
     17 C16         0.8702   10.0143    0.4465 C.ar      1 <0>        -0.1327
     18 S1         -0.1517    8.5705    0.2960 S.3       1 <0>         0.0701
     19 N2          3.9956   12.7254    0.7673 N.pl3     1 <0>        -0.8759
     20 N3          3.4489    7.3160    0.3138 N.ar      1 <0>        -0.5274
     21 C17         3.4149    6.0117    0.2070 C.ar      1 <0>         0.3365
     22 N4          2.2935    5.3202    0.1140 N.ar      1 <0>        -0.5443
     23 H1         -2.8670    0.7854   -0.8614 H         1 <0>         0.0720
     24 H2         -2.2817    1.5528   -2.3569 H         1 <0>         0.0662
     25 H3         -1.5579    0.0257   -1.7980 H         1 <0>         0.0687
     26 H4         -0.0030   -0.0041    0.0638 H         1 <0>         0.1230
     27 H5          1.6693    1.2536    1.3589 H         1 <0>         0.1261
     28 H6          1.6435    3.7147    1.3452 H         1 <0>         0.1348
     29 H7         -1.7424    3.6545   -1.2673 H         1 <0>         0.1237
     30 H8         -0.9121    5.7139   -0.0454 H         1 <0>         0.4212
     31 H9          4.2530   10.1301    0.5673 H         1 <0>         0.1339
     32 H10         1.4230   13.3262    0.7314 H         1 <0>         0.1390
     33 H11        -0.4294   11.7088    0.5401 H         1 <0>         0.1398
     34 H12         4.9138   12.4126    0.7723 H         1 <0>         0.4014
     35 H13         3.8060   13.6741    0.8373 H         1 <0>         0.4017
     36 H14         4.3513    5.4738    0.1947 H         1 <0>         0.2036
@<TRIPOS>BOND
     1    1    2 1
     2    1   23 1
     3    1   24 1
     4    1   25 1
     5    2    7 ar
     6    2    3 ar
     7    3    4 ar
     8    3   26 1
     9    4    5 ar
    10    4   27 1
    11    5    6 ar
    12    5   28 1
    13    6    7 ar
    14    6    8 1
    15    7   29 1
    16    8    9 1
    17    8   30 1
    18    9   22 ar
    19    9   10 ar
    20   10   18 1
    21   10   11 ar
    22   11   12 1
    23   11   20 ar
    24   12   17 ar
    25   12   13 ar
    26   13   14 ar
    27   13   31 1
    28   14   15 ar
    29   14   19 1
    30   15   16 ar
    31   15   32 1
    32   16   17 ar
    33   16   33 1
    34   17   18 1
    35   19   34 1
    36   19   35 1
    37   20   21 ar
    38   21   22 ar
    39   21   36 1
@<TRIPOS>MOLECULE
ZINC03815113
   44    47     0     0     0
SMALL
USER_CHARGES

@<TRIPOS>ATOM
      1 C1         -1.1108    2.9203   -0.7515 C.ar      1 <0>        -0.0914
      2 C2          0.0731    3.6319   -0.7455 C.ar      1 <0>        -0.0970
      3 C3          1.1562    3.1695   -0.0088 C.ar      1 <0>         0.1554
      4 C4          1.0449    1.9921    0.7200 C.ar      1 <0>        -0.1176
      5 C5         -0.1421    1.2850    0.7099 C.ar      1 <0>        -0.0706
      6 C6         -1.2207    1.7517   -0.0211 C.ar      1 <0>        -0.1035
      7 Br1        -0.2955   -0.3176    1.7019 Br        1 <0>        -0.0432
      8 N1          2.3551    3.8876   -0.0005 N.pl3     1 <0>        -0.6191
      9 C7          2.3357    5.2646   -0.0976 C.ar      1 <0>         0.4685
     10 C8          3.5726    6.0347   -0.2111 C.ar      1 <0>         0.0905
     11 C9          3.4639    7.4429   -0.3121 C.ar      1 <0>         0.0278
     12 C10         4.6473    8.1940   -0.4282 C.ar      1 <0>         0.2511
     13 N2          5.7970    7.5515   -0.4430 N.ar      1 <0>        -0.5275
     14 C11         5.8571    6.2253   -0.3515 C.ar      1 <0>         0.5606
     15 N3          4.7783    5.4714   -0.2403 N.ar      1 <0>        -0.5452
     16 N4          7.0982    5.6122   -0.3732 N.pl3     1 <0>        -0.6943
     17 C12         8.3131    6.4218   -0.4951 C.3       1 <0>         0.1392
     18 C13         9.5386    5.5058   -0.4943 C.3       1 <0>        -0.1503
     19 C14        10.8074    6.3513   -0.6216 C.3       1 <0>         0.1103
     20 N5         11.9808    5.4742   -0.6209 N.pl3     1 <0>        -0.4614
     21 C15        12.6926    5.0707    0.4765 C.2       1 <0>        -0.0572
     22 C16        13.6817    4.2743    0.0281 C.2       1 <0>        -0.0281
     23 N6         13.5824    4.2013   -1.3075 N.2       1 <0>        -0.4945
     24 C17        12.5658    4.9175   -1.7033 C.2       1 <0>         0.1819
     25 N7          2.2480    7.9992   -0.2879 N.ar      1 <0>        -0.5103
     26 C18         1.1713    7.2599   -0.1787 C.ar      1 <0>         0.3278
     27 N8          1.1935    5.9400   -0.0858 N.ar      1 <0>        -0.5554
     28 H1         -1.9531    3.2798   -1.3239 H         1 <0>         0.1382
     29 H2          0.1568    4.5467   -1.3133 H         1 <0>         0.1437
     30 H3          1.8850    1.6301    1.2941 H         1 <0>         0.1354
     31 H4         -2.1489    1.1995   -0.0243 H         1 <0>         0.1356
     32 H5          3.2009    3.4185    0.0735 H         1 <0>         0.4317
     33 H6          4.6142    9.2709   -0.5029 H         1 <0>         0.1939
     34 H7          7.1634    4.6466   -0.3077 H         1 <0>         0.4168
     35 H8          8.2818    6.9860   -1.4272 H         1 <0>         0.0751
     36 H9          8.3753    7.1126    0.3458 H         1 <0>         0.0745
     37 H10         9.5700    4.9416    0.4378 H         1 <0>         0.0798
     38 H11         9.4764    4.8150   -1.3352 H         1 <0>         0.0805
     39 H12        10.7761    6.9155   -1.5537 H         1 <0>         0.1000
     40 H13        10.8696    7.0421    0.2193 H         1 <0>         0.0977
     41 H14        12.4970    5.3376    1.5045 H         1 <0>         0.1739
     42 H15        14.4274    3.7846    0.6368 H         1 <0>         0.1698
     43 H16        12.2452    5.0437   -2.7268 H         1 <0>         0.2040
     44 H17         0.2120    7.7558   -0.1634 H         1 <0>         0.2032
@<TRIPOS>BOND
     1    1    6 ar
     2    1    2 ar
     3    1   28 1
     4    2    3 ar
     5    2   29 1
     6    3    4 ar
     7    3    8 1
     8    4    5 ar
     9    4   30 1
    10    5    6 ar
    11    5    7 1
    12    6   31 1
    13    8    9 1
    14    8   32 1
    15    9   27 ar
    16    9   10 ar
    17   10   15 ar
    18   10   11 ar
    19   11   12 ar
    20   11   25 ar
    21   12   13 ar
    22   12   33 1
    23   13   14 ar
    24   14   15 ar
    25   14   16 1
    26   16   17 1
    27   16   34 1
    28   17   18 1
    29   17   35 1
    30   17   36 1
    31   18   19 1
    32   18   37 1
    33   18   38 1
    34   19   20 1
    35   19   39 1
    36   19   40 1
    37   20   24 1
    38   20   21 1
    39   21   22 2
    40   21   41 1
    41   22   23 1
    42   22   42 1
    43   23   24 2
    44   24   43 1
    45   25   26 ar
    46   26   27 ar
    47   26   44 1
@<TRIPOS>MOLECULE
ZINC03815113
   45    48     0     0     0
SMALL
USER_CHARGES

@<TRIPOS>ATOM
      1 C1         -1.1108    2.9203   -0.7515 C.ar      1 <0>        -0.0905
      2 C2          0.0731    3.6319   -0.7455 C.ar      1 <0>        -0.0961
      3 C3          1.1562    3.1695   -0.0088 C.ar      1 <0>         0.1498
      4 C4          1.0449    1.9921    0.7200 C.ar      1 <0>        -0.1164
      5 C5         -0.1421    1.2850    0.7099 C.ar      1 <0>        -0.0713
      6 C6         -1.2207    1.7517   -0.0211 C.ar      1 <0>        -0.1001
      7 Br1        -0.2955   -0.3176    1.7019 Br        1 <0>        -0.0401
      8 N1          2.3551    3.8876   -0.0005 N.pl3     1 <0>        -0.6170
      9 C7          2.3357    5.2646   -0.0976 C.ar      1 <0>         0.4713
     10 C8          3.5726    6.0347   -0.2111 C.ar      1 <0>         0.0844
     11 C9          3.4639    7.4429   -0.3121 C.ar      1 <0>         0.0376
     12 C10         4.6473    8.1940   -0.4282 C.ar      1 <0>         0.2511
     13 N2          5.7970    7.5515   -0.4430 N.ar      1 <0>        -0.5303
     14 C11         5.8571    6.2253   -0.3515 C.ar      1 <0>         0.5535
     15 N3          4.7783    5.4714   -0.2403 N.ar      1 <0>        -0.5390
     16 N4          7.0982    5.6122   -0.3732 N.pl3     1 <0>        -0.7019
     17 C12         8.3131    6.4218   -0.4951 C.3       1 <0>         0.1412
     18 C13         9.5386    5.5058   -0.4943 C.3       1 <0>        -0.1558
     19 C14        10.8074    6.3513   -0.6216 C.3       1 <0>         0.0971
     20 N5         11.9808    5.4742   -0.6209 N.pl3     1 <0>        -0.4103
     21 C15        12.6926    5.0707    0.4765 C.2       1 <0>         0.0237
     22 C16        13.6817    4.2743    0.0281 C.2       1 <0>         0.0054
     23 C17        12.5658    4.9175   -1.7033 C.cat     1 <0>         0.2881
     24 N6          2.2480    7.9992   -0.2879 N.ar      1 <0>        -0.5134
     25 C18         1.1713    7.2599   -0.1787 C.ar      1 <0>         0.3379
     26 N7          1.1935    5.9400   -0.0858 N.ar      1 <0>        -0.5539
     27 H1         -1.9531    3.2798   -1.3239 H         1 <0>         0.1397
     28 H2          0.1568    4.5467   -1.3133 H         1 <0>         0.1434
     29 H3          1.8850    1.6301    1.2941 H         1 <0>         0.1347
     30 H4         -2.1489    1.1995   -0.0243 H         1 <0>         0.1374
     31 H5          3.2009    3.4185    0.0735 H         1 <0>         0.4304
     32 H6          4.6142    9.2709   -0.5029 H         1 <0>         0.1957
     33 H7          7.1634    4.6466   -0.3077 H         1 <0>         0.4160
     34 H8          8.2818    6.9860   -1.4272 H         1 <0>         0.0780
     35 H9          8.3753    7.1126    0.3458 H         1 <0>         0.0782
     36 H10         9.5700    4.9416    0.4378 H         1 <0>         0.0889
     37 H11         9.4764    4.8150   -1.3352 H         1 <0>         0.0868
     38 H12        10.7761    6.9155   -1.5537 H         1 <0>         0.1269
     39 H13        10.8696    7.0421    0.2193 H         1 <0>         0.1295
     40 H14        12.4970    5.3376    1.5045 H         1 <0>         0.2222
     41 H15        14.4274    3.7846    0.6368 H         1 <0>         0.2232
     42 H16        12.2452    5.0437   -2.7268 H         1 <0>         0.2590
     43 H17         0.2120    7.7558   -0.1634 H         1 <0>         0.2063
     44 N8         13.5816    4.2020   -1.3067 N.pl3     1 <0>        -0.4834
     45 H18        14.2068    3.6670   -1.9208 H         1 <0>         0.4821
@<TRIPOS>BOND
     1    1    6 ar
     2    1    2 ar
     3    1   27 1
     4    2    3 ar
     5    2   28 1
     6    3    4 ar
     7    3    8 1
     8    4    5 ar
     9    4   29 1
    10    5    6 ar
    11    5    7 1
    12    6   30 1
    13    8    9 1
    14    8   31 1
    15    9   26 ar
    16    9   10 ar
    17   10   15 ar
    18   10   11 ar
    19   11   12 ar
    20   11   24 ar
    21   12   13 ar
    22   12   32 1
    23   13   14 ar
    24   14   15 ar
    25   14   16 1
    26   16   17 1
    27   16   33 1
    28   17   18 1
    29   17   34 1
    30   17   35 1
    31   18   19 1
    32   18   36 1
    33   18   37 1
    34   19   20 1
    35   19   38 1
    36   19   39 1
    37   20   23 1
    38   20   21 1
    39   21   22 2
    40   21   40 1
    41   22   41 1
    42   22   44 1
    43   23   42 1
    44   23   44 2
    45   24   25 ar
    46   25   26 ar
    47   25   43 1
    48   44   45 1
@<TRIPOS>MOLECULE
ZINC03815114
   51    54     0     0     0
SMALL
USER_CHARGES

@<TRIPOS>ATOM
      1 C1         -5.1360    5.6267    8.4367 C.3       1 <0>        -0.1175
      2 C2         -4.2869    4.3838    8.3641 C.ar      1 <0>        -0.0643
      3 C3         -4.1634    3.5659    9.4726 C.ar      1 <0>        -0.1273
      4 C4         -3.3858    2.4243    9.4102 C.ar      1 <0>        -0.0941
      5 C5         -2.7329    2.0948    8.2385 C.ar      1 <0>        -0.1152
      6 C6         -2.8509    2.9164    7.1249 C.ar      1 <0>         0.1401
      7 C7         -3.6335    4.0625    7.1909 C.ar      1 <0>        -0.1424
      8 N1         -2.1886    2.5880    5.9389 N.pl3     1 <0>        -0.6135
      9 C8         -0.9704    1.9402    5.9852 C.ar      1 <0>         0.4753
     10 C9         -0.3104    1.4773    4.7662 C.ar      1 <0>         0.0779
     11 C10         0.9375    0.8221    4.9020 C.ar      1 <0>         0.0474
     12 C11         1.5821    0.3721    3.7357 C.ar      1 <0>         0.2492
     13 N2          0.9944    0.5818    2.5757 N.ar      1 <0>        -0.5340
     14 C12        -0.1797    1.2020    2.4898 C.ar      1 <0>         0.5465
     15 N3         -0.8261    1.6496    3.5512 N.ar      1 <0>        -0.5282
     16 N4         -0.7429    1.3904    1.2391 N.pl3     1 <0>        -0.7022
     17 C13        -0.0472    0.9104    0.0426 C.3       1 <0>         0.1171
     18 C14        -0.8781    1.2429   -1.1984 C.3       1 <0>        -0.0179
     19 C15         1.0702    1.5036   -2.6137 C.3       1 <0>        -0.0453
     20 C16         1.7926    0.9314   -3.8363 C.3       1 <0>         0.0353
     21 O1          0.9233    0.9946   -4.9702 O.3       1 <0>        -0.3560
     22 C17        -0.3042    0.2819   -4.7950 C.3       1 <0>         0.0346
     23 C18        -1.0478    0.8475   -3.5821 C.3       1 <0>        -0.0375
     24 N5          1.4504    0.6587    6.1263 N.ar      1 <0>        -0.5201
     25 C19         0.8143    1.0940    7.1863 C.ar      1 <0>         0.3466
     26 N6         -0.3536    1.7143    7.1383 N.ar      1 <0>        -0.5532
     27 H1         -6.1587    5.3856    8.1467 H         1 <0>         0.0737
     28 H2         -5.1288    6.0127    9.4561 H         1 <0>         0.0714
     29 H3         -4.7347    6.3809    7.7598 H         1 <0>         0.0667
     30 H4         -4.6759    3.8193   10.3889 H         1 <0>         0.1268
     31 H5         -3.2918    1.7877   10.2775 H         1 <0>         0.1297
     32 H6         -2.1290    1.2008    8.1892 H         1 <0>         0.1357
     33 H7         -3.7310    4.7013    6.3255 H         1 <0>         0.1239
     34 H8         -2.5848    2.8153    5.0831 H         1 <0>         0.4286
     35 H9          2.5351   -0.1331    3.7899 H         1 <0>         0.1969
     36 H10        -1.5982    1.8403    1.1552 H         1 <0>         0.4209
     37 H11         0.0892   -0.1689    0.1101 H         1 <0>         0.0886
     38 H12         0.9260    1.3957   -0.0311 H         1 <0>         0.0881
     39 H13        -1.8513    0.7576   -1.1247 H         1 <0>         0.1392
     40 H14        -1.0145    2.3222   -1.2658 H         1 <0>         0.1400
     41 H15         0.8442    2.5562   -2.7841 H         1 <0>         0.1424
     42 H16         1.7079    1.4052   -1.7352 H         1 <0>         0.1438
     43 H17         2.0662   -0.1061   -3.6448 H         1 <0>         0.0830
     44 H18         2.6920    1.5145   -4.0343 H         1 <0>         0.1432
     45 H19        -0.0916   -0.7745   -4.6314 H         1 <0>         0.0825
     46 H20        -0.9216    0.3958   -5.6860 H         1 <0>         0.1432
     47 H21        -1.9563    0.2702   -3.4104 H         1 <0>         0.1427
     48 H22        -1.3077    1.8896   -3.7679 H         1 <0>         0.1419
     49 H23         1.2690    0.9377    8.1533 H         1 <0>         0.2073
     50 N7         -0.1737    0.7353   -2.3957 N.4       1 <0>        -0.3914
     51 H24         0.0649   -0.2524   -2.2488 H         1 <0>         0.4299
@<TRIPOS>BOND
     1    1    2 1
     2    1   27 1
     3    1   28 1
     4    1   29 1
     5    2    7 ar
     6    2    3 ar
     7    3    4 ar
     8    3   30 1
     9    4    5 ar
    10    4   31 1
    11    5    6 ar
    12    5   32 1
    13    6    7 ar
    14    6    8 1
    15    7   33 1
    16    8    9 1
    17    8   34 1
    18    9   26 ar
    19    9   10 ar
    20   10   15 ar
    21   10   11 ar
    22   11   12 ar
    23   11   24 ar
    24   12   13 ar
    25   12   35 1
    26   13   14 ar
    27   14   15 ar
    28   14   16 1
    29   16   17 1
    30   16   36 1
    31   17   18 1
    32   17   37 1
    33   17   38 1
    34   18   39 1
    35   18   40 1
    36   18   50 1
    37   19   20 1
    38   19   41 1
    39   19   42 1
    40   19   50 1
    41   20   21 1
    42   20   43 1
    43   20   44 1
    44   21   22 1
    45   22   23 1
    46   22   45 1
    47   22   46 1
    48   23   47 1
    49   23   48 1
    50   23   50 1
    51   24   25 ar
    52   25   26 ar
    53   25   49 1
    54   50   51 1
@<TRIPOS>MOLECULE
ZINC03815115
   47    50     0     0     0
SMALL
USER_CHARGES

@<TRIPOS>ATOM
      1 C1          9.3837   -4.4941    0.1838 C.3       1 <0>         0.0228
      2 O1          8.7367   -4.0338   -1.0042 O.3       1 <0>        -0.3106
      3 C2          7.7685   -3.0920   -0.8541 C.ar      1 <0>         0.1567
      4 C3          7.0992   -2.6003   -1.9654 C.ar      1 <0>        -0.1539
      5 C4          6.1151   -1.6433   -1.8101 C.ar      1 <0>        -0.0521
      6 C5          5.7970   -1.1755   -0.5485 C.ar      1 <0>        -0.1785
      7 C6          6.4665   -1.6598    0.5601 C.ar      1 <0>        -0.0504
      8 C7          7.4475   -2.6210    0.4107 C.ar      1 <0>        -0.2117
      9 C8          4.7230   -0.1315   -0.3820 C.3       1 <0>         0.1630
     10 N1          3.4270   -0.7892   -0.1978 N.pl3     1 <0>        -0.7042
     11 C9          2.2765   -0.0242   -0.0225 C.ar      1 <0>         0.4022
     12 C10         2.3741    1.3570   -0.0252 C.ar      1 <0>        -0.1403
     13 C11         1.2077    2.1038    0.1513 C.ar      1 <0>        -0.0629
     14 C12        -0.0226    1.4191    0.3258 C.ar      1 <0>         0.1181
     15 C13        -0.0187    0.0187    0.3139 C.ar      1 <0>         0.2211
     16 N2         -1.1387    2.1421    0.4892 N.ar      1 <0>        -0.5243
     17 C14        -1.0975    3.4514    0.4983 C.ar      1 <0>         0.3816
     18 N3          0.0123    4.1557    0.3416 N.ar      1 <0>        -0.5478
     19 C15         1.1877    3.5633    0.1654 C.ar      1 <0>         0.4688
     20 N4          2.3439    4.2982    0.0016 N.pl3     1 <0>        -0.6090
     21 C16         2.2788    5.6909   -0.0963 C.ar      1 <0>         0.1289
     22 C17         3.3152    6.4728    0.3986 C.ar      1 <0>        -0.1181
     23 C18         3.2482    7.8486    0.3005 C.ar      1 <0>        -0.0899
     24 C19         2.1512    8.4488   -0.2901 C.ar      1 <0>        -0.0887
     25 C20         1.1172    7.6736   -0.7841 C.ar      1 <0>        -0.0738
     26 C21         1.1807    6.2959   -0.6937 C.ar      1 <0>        -0.0786
     27 Br1        -0.3806    8.4993   -1.5908 Br        1 <0>        -0.0294
     28 H1          9.8669   -3.6543    0.6831 H         1 <0>         0.0610
     29 H2          8.6449   -4.9374    0.8514 H         1 <0>         0.0597
     30 H3         10.1328   -5.2418   -0.0768 H         1 <0>         0.1088
     31 H4          7.3476   -2.9651   -2.9511 H         1 <0>         0.1395
     32 H5          5.5935   -1.2605   -2.6749 H         1 <0>         0.1332
     33 H6          6.2195   -1.2893    1.5440 H         1 <0>         0.1286
     34 H7          7.9671   -3.0022    1.2773 H         1 <0>         0.1364
     35 H8          4.6877    0.4984   -1.2709 H         1 <0>         0.0925
     36 H9          4.9458    0.4831    0.4902 H         1 <0>         0.0915
     37 H10         3.3702   -1.7576   -0.1978 H         1 <0>         0.4191
     38 H11         3.3282    1.8444   -0.1612 H         1 <0>         0.1792
     39 H12        -0.9429   -0.5245    0.4447 H         1 <0>         0.2166
     40 H13        -2.0243    3.9880    0.6378 H         1 <0>         0.2186
     41 H14         3.2020    3.8483   -0.0455 H         1 <0>         0.4269
     42 H15         4.1723    6.0050    0.8601 H         1 <0>         0.1358
     43 H16         4.0536    8.4565    0.6852 H         1 <0>         0.1441
     44 H17         2.1017    9.5250   -0.3661 H         1 <0>         0.1416
     45 H18         0.3756    5.6907   -1.0834 H         1 <0>         0.1477
     46 N5          1.1062   -0.7218    0.1430 N.ar      1 <0>        -0.4973
     47 H19         1.0828   -1.7483    0.1378 H         1 <0>         0.4774
@<TRIPOS>BOND
     1    1    2 1
     2    1   28 1
     3    1   29 1
     4    1   30 1
     5    2    3 1
     6    3    8 ar
     7    3    4 ar
     8    4    5 ar
     9    4   31 1
    10    5    6 ar
    11    5   32 1
    12    6    7 ar
    13    6    9 1
    14    7    8 ar
    15    7   33 1
    16    8   34 1
    17    9   10 1
    18    9   35 1
    19    9   36 1
    20   10   11 1
    21   10   37 1
    22   11   12 ar
    23   11   46 ar
    24   12   13 ar
    25   12   38 1
    26   13   19 ar
    27   13   14 ar
    28   14   15 ar
    29   14   16 ar
    30   15   39 1
    31   15   46 ar
    32   16   17 ar
    33   17   18 ar
    34   17   40 1
    35   18   19 ar
    36   19   20 1
    37   20   21 1
    38   20   41 1
    39   21   26 ar
    40   21   22 ar
    41   22   23 ar
    42   22   42 1
    43   23   24 ar
    44   23   43 1
    45   24   25 ar
    46   24   44 1
    47   25   26 ar
    48   25   27 1
    49   26   45 1
    50   46   47 1
@<TRIPOS>MOLECULE
ZINC03815116
   44    47     0     0     0
SMALL
USER_CHARGES

@<TRIPOS>ATOM
      1 C1          0.6289    9.5948   -2.5948 C.3       1 <0>        -0.0444
      2 C2          0.7721    7.1781   -2.5547 C.3       1 <0>        -0.0532
      3 C3         -0.6994    8.3294   -1.0146 C.3       1 <0>         0.0869
      4 C4         -1.6354    7.1545   -0.8936 C.2       1 <0>        -0.2716
      5 C5         -2.9711    7.1850   -1.0043 C.2       1 <0>         0.1523
      6 N1         -3.4872    5.9266   -0.8356 N.pl3     1 <0>        -0.5926
      7 H1         -4.4301    5.7018   -0.8725 H         1 <0>         0.4332
      8 C6         -2.4672    5.0277   -0.6054 C.ar      1 <0>         0.1460
      9 C7         -1.2571    5.7609   -0.6317 C.ar      1 <0>        -0.0978
     10 C8         -0.0410    5.1242   -0.4296 C.ar      1 <0>        -0.0453
     11 C9         -0.0193    3.7494   -0.1991 C.ar      1 <0>        -0.1874
     12 C10        -1.2326    3.0116   -0.1722 C.ar      1 <0>         0.2032
     13 C11        -2.4497    3.6644   -0.3771 C.ar      1 <0>        -0.1106
     14 N2         -1.1739    1.6866    0.0470 N.ar      1 <0>        -0.5458
     15 C12        -0.0206    1.0944    0.2418 C.ar      1 <0>         0.3623
     16 N3          1.1349    1.7408    0.2256 N.ar      1 <0>        -0.5805
     17 C13         1.1947    3.0483    0.0132 C.ar      1 <0>         0.4738
     18 N4          2.4055    3.7087   -0.0005 N.pl3     1 <0>        -0.6352
     19 C14         3.5977    2.9846    0.0902 C.ar      1 <0>         0.1471
     20 C15         3.7006    1.7353   -0.5091 C.ar      1 <0>        -0.0908
     21 C16         4.8795    1.0221   -0.4178 C.ar      1 <0>        -0.0911
     22 C17         5.9577    1.5500    0.2688 C.ar      1 <0>        -0.0967
     23 C18         5.8590    2.7937    0.8668 C.ar      1 <0>        -0.0727
     24 C19         4.6835    3.5148    0.7746 C.ar      1 <0>        -0.1170
     25 Br1         7.3362    3.5110    1.8045 Br        1 <0>        -0.0371
     26 H2          1.4241    9.6981   -1.8565 H         1 <0>         0.1226
     27 H3          1.0617    9.5782   -3.5950 H         1 <0>         0.1214
     28 H4         -0.0574   10.4373   -2.5098 H         1 <0>         0.1220
     29 H5          0.1899    6.2637   -2.4407 H         1 <0>         0.1238
     30 H6          1.2019    7.2127   -3.5558 H         1 <0>         0.1215
     31 H7          1.5725    7.1938   -1.8150 H         1 <0>         0.1188
     32 H8         -1.2542    9.2539   -0.8551 H         1 <0>         0.1354
     33 H9          0.0886    8.2447   -0.2663 H         1 <0>         0.1335
     34 H10        -3.5555    8.0723   -1.1985 H         1 <0>         0.1871
     35 H11         0.8798    5.6882   -0.4502 H         1 <0>         0.1256
     36 H12        -3.3741    3.1063   -0.3573 H         1 <0>         0.1477
     37 H13        -0.0123    0.0292    0.4193 H         1 <0>         0.2033
     38 H14         2.4297    4.6757   -0.0731 H         1 <0>         0.4165
     39 H15         2.8592    1.3222   -1.0455 H         1 <0>         0.1406
     40 H16         4.9598    0.0510   -0.8835 H         1 <0>         0.1400
     41 H17         6.8788    0.9904    0.3380 H         1 <0>         0.1383
     42 H18         4.6082    4.4877    1.2374 H         1 <0>         0.1334
     43 N5         -0.1224    8.3410   -2.3754 N.4       1 <0>        -0.3962
     44 H19        -0.8845    8.2845   -3.0612 H         1 <0>         0.4296
@<TRIPOS>BOND
     1    1   26 1
     2    1   27 1
     3    1   28 1
     4    1   43 1
     5    2   29 1
     6    2   30 1
     7    2   31 1
     8    2   43 1
     9    3    4 1
    10    3   32 1
    11    3   33 1
    12    3   43 1
    13    4    9 1
    14    4    5 2
    15    5    6 1
    16    5   34 1
    17    6    7 1
    18    6    8 1
    19    8   13 ar
    20    8    9 ar
    21    9   10 ar
    22   10   11 ar
    23   10   35 1
    24   11   17 ar
    25   11   12 ar
    26   12   13 ar
    27   12   14 ar
    28   13   36 1
    29   14   15 ar
    30   15   16 ar
    31   15   37 1
    32   16   17 ar
    33   17   18 1
    34   18   19 1
    35   18   38 1
    36   19   24 ar
    37   19   20 ar
    38   20   21 ar
    39   20   39 1
    40   21   22 ar
    41   21   40 1
    42   22   23 ar
    43   22   41 1
    44   23   24 ar
    45   23   25 1
    46   24   42 1
    47   43   44 1
@<TRIPOS>MOLECULE
ZINC03815117
   31    33     0     0     0
SMALL
USER_CHARGES

@<TRIPOS>ATOM
      1 C1          2.5730    3.9709   -0.1533 C.3       1 <0>         0.0187
      2 O1          1.2767    3.3696   -0.1621 O.3       1 <0>        -0.3061
      3 C2          1.2213    2.0200   -0.0085 C.ar      1 <0>         0.0586
      4 C3          0.0002    1.3691   -0.0070 C.ar      1 <0>        -0.0659
      5 C4         -0.0002   -0.0219    0.1542 C.ar      1 <0>        -0.2035
      6 C5          1.2316   -0.7043    0.3078 C.ar      1 <0>         0.3405
      7 N1          2.3763   -0.0221    0.2980 N.ar      1 <0>        -0.4343
      8 C6          2.3955    1.2824    0.1480 C.ar      1 <0>         0.1171
      9 N2          1.2073   -2.0375    0.4603 N.ar      1 <0>        -0.5256
     10 C7          0.0684   -2.6883    0.4664 C.ar      1 <0>         0.3616
     11 N3         -1.1046   -2.0925    0.3264 N.ar      1 <0>        -0.5759
     12 C8         -1.1968   -0.7781    0.1690 C.ar      1 <0>         0.4745
     13 N4         -2.4242   -0.1659    0.0243 N.pl3     1 <0>        -0.6338
     14 C9         -3.5839   -0.9398   -0.0748 C.ar      1 <0>         0.1544
     15 C10        -4.7836   -0.4653    0.4407 C.ar      1 <0>        -0.1301
     16 C11        -5.9279   -1.2318    0.3410 C.ar      1 <0>        -0.0919
     17 C12        -5.8811   -2.4709   -0.2712 C.ar      1 <0>        -0.1042
     18 C13        -4.6883   -2.9467   -0.7862 C.ar      1 <0>        -0.0712
     19 C14        -3.5405   -2.1822   -0.6939 C.ar      1 <0>        -0.0834
     20 Br1        -4.6299   -4.6412   -1.6236 Br        1 <0>        -0.0419
     21 H1          3.0631    3.7640    0.7981 H         1 <0>         0.0621
     22 H2          3.1702    3.5588   -0.9668 H         1 <0>         0.0621
     23 H3          2.4746    5.0484   -0.2846 H         1 <0>         0.1093
     24 H4         -0.9229    1.9160   -0.1306 H         1 <0>         0.1475
     25 H5          3.3446    1.7978    0.1456 H         1 <0>         0.1756
     26 H6          0.0892   -3.7608    0.5919 H         1 <0>         0.2070
     27 H7         -2.4826    0.8018   -0.0087 H         1 <0>         0.4241
     28 H8         -4.8212    0.5021    0.9194 H         1 <0>         0.1326
     29 H9         -6.8607   -0.8629    0.7414 H         1 <0>         0.1381
     30 H10        -6.7775   -3.0683   -0.3478 H         1 <0>         0.1355
     31 H11        -2.6105   -2.5519   -1.0996 H         1 <0>         0.1485
@<TRIPOS>BOND
     1    1    2 1
     2    1   21 1
     3    1   22 1
     4    1   23 1
     5    2    3 1
     6    3    8 ar
     7    3    4 ar
     8    4    5 ar
     9    4   24 1
    10    5   12 ar
    11    5    6 ar
    12    6    7 ar
    13    6    9 ar
    14    7    8 ar
    15    8   25 1
    16    9   10 ar
    17   10   11 ar
    18   10   26 1
    19   11   12 ar
    20   12   13 1
    21   13   14 1
    22   13   27 1
    23   14   19 ar
    24   14   15 ar
    25   15   16 ar
    26   15   28 1
    27   16   17 ar
    28   16   29 1
    29   17   18 ar
    30   17   30 1
    31   18   19 ar
    32   18   20 1
    33   19   31 1
@<TRIPOS>MOLECULE
ZINC03815118
   31    33     0     0     0
SMALL
USER_CHARGES

@<TRIPOS>ATOM
      1 C1         -4.7277    0.2711   -0.0892 C.3       1 <0>         0.0380
      2 O1         -3.5566   -0.5470   -0.1229 O.3       1 <0>        -0.3041
      3 C2         -2.3617    0.0809    0.0236 C.ar      1 <0>         0.2999
      4 C3         -1.1982   -0.6653   -0.0016 C.ar      1 <0>        -0.1522
      5 C4          0.0199    0.0007    0.1515 C.ar      1 <0>        -0.1200
      6 C5          0.0114    1.4085    0.3256 C.ar      1 <0>         0.0936
      7 C6         -1.2205    2.0746    0.3423 C.ar      1 <0>         0.1960
      8 N1         -2.3362    1.3977    0.1884 N.ar      1 <0>        -0.5045
      9 N2          1.1829    2.0416    0.4723 N.ar      1 <0>        -0.5209
     10 C7          2.3129    1.3790    0.4559 C.ar      1 <0>         0.3381
     11 N3          2.3967    0.0676    0.2981 N.ar      1 <0>        -0.5651
     12 C8          1.3106   -0.6806    0.1421 C.ar      1 <0>         0.4622
     13 N4          1.3989   -2.0475   -0.0227 N.pl3     1 <0>        -0.6293
     14 C9          2.6507   -2.6575   -0.1435 C.ar      1 <0>         0.1538
     15 C10         2.8498   -3.9415    0.3485 C.ar      1 <0>        -0.1295
     16 C11         4.0875   -4.5418    0.2275 C.ar      1 <0>        -0.0915
     17 C12         5.1287   -3.8666   -0.3828 C.ar      1 <0>        -0.1040
     18 C13         4.9342   -2.5880   -0.8744 C.ar      1 <0>        -0.0710
     19 C14         3.6965   -1.9835   -0.7606 C.ar      1 <0>        -0.0845
     20 Br1         6.3611   -1.6694   -1.7085 Br        1 <0>        -0.0416
     21 H1         -4.7834    0.7866    0.8696 H         1 <0>         0.0615
     22 H2         -4.6818    1.0048   -0.8940 H         1 <0>         0.0615
     23 H3         -5.6114   -0.3540   -0.2174 H         1 <0>         0.1000
     24 H4         -1.2303   -1.7365   -0.1360 H         1 <0>         0.1458
     25 H5         -1.2530    3.1461    0.4737 H         1 <0>         0.1849
     26 H6          3.2303    1.9358    0.5780 H         1 <0>         0.2010
     27 H7          0.5923   -2.5853   -0.0549 H         1 <0>         0.4256
     28 H8          2.0374   -4.4695    0.8256 H         1 <0>         0.1332
     29 H9          4.2424   -5.5400    0.6095 H         1 <0>         0.1385
     30 H10         6.0957   -4.3385   -0.4761 H         1 <0>         0.1358
     31 H11         3.5438   -0.9869   -1.1477 H         1 <0>         0.1486
@<TRIPOS>BOND
     1    1    2 1
     2    1   21 1
     3    1   22 1
     4    1   23 1
     5    2    3 1
     6    3    8 ar
     7    3    4 ar
     8    4    5 ar
     9    4   24 1
    10    5   12 ar
    11    5    6 ar
    12    6    7 ar
    13    6    9 ar
    14    7    8 ar
    15    7   25 1
    16    9   10 ar
    17   10   11 ar
    18   10   26 1
    19   11   12 ar
    20   12   13 1
    21   13   14 1
    22   13   27 1
    23   14   19 ar
    24   14   15 ar
    25   15   16 ar
    26   15   28 1
    27   16   17 ar
    28   16   29 1
    29   17   18 ar
    30   17   30 1
    31   18   19 ar
    32   18   20 1
    33   19   31 1
@<TRIPOS>MOLECULE
ZINC03815119
   40    42     0     0     0
SMALL
USER_CHARGES

@<TRIPOS>ATOM
      1 C1          1.3641   -4.8071    0.7293 C.3       1 <0>         0.0742
      2 N1          2.5612   -3.9694    0.8356 N.pl3     1 <0>        -0.5832
      3 C2          3.8525   -4.5760    1.1688 C.3       1 <0>         0.0945
      4 C3          4.0353   -4.5840    2.6878 C.3       1 <0>         0.0526
      5 O1          3.0532   -5.4356    3.2813 O.3       1 <0>        -0.5655
      6 C4          2.4720   -2.6003    0.6204 C.ar      1 <0>         0.4336
      7 C5          1.2299   -2.0292    0.4098 C.ar      1 <0>        -0.1941
      8 C6          1.1580   -0.6486    0.1946 C.ar      1 <0>         0.3032
      9 C7          2.3673    0.0969    0.2036 C.ar      1 <0>        -0.2617
     10 C8          3.5750   -0.5685    0.4254 C.ar      1 <0>         0.2618
     11 C9          2.2915    1.4922   -0.0143 C.ar      1 <0>         0.5203
     12 N2          1.0937    2.0291   -0.2162 N.ar      1 <0>        -0.5820
     13 C10        -0.0056    1.2930   -0.2154 C.ar      1 <0>         0.4264
     14 N3          0.0030   -0.0056   -0.0184 N.ar      1 <0>        -0.5563
     15 N4          3.4280    2.2722   -0.0180 N.pl3     1 <0>        -0.6096
     16 C11         3.3212    3.6627   -0.1146 C.ar      1 <0>         0.1225
     17 C12         2.2594    4.3230    0.4911 C.ar      1 <0>        -0.0828
     18 C13         2.1566    5.6966    0.3945 C.ar      1 <0>        -0.0915
     19 C14         3.1093    6.4157   -0.3040 C.ar      1 <0>        -0.0832
     20 C15         4.1680    5.7616   -0.9086 C.ar      1 <0>        -0.0754
     21 C16         4.2791    4.3874   -0.8114 C.ar      1 <0>        -0.1028
     22 Br1         5.4681    6.7494   -1.8625 Br        1 <0>        -0.0272
     23 H1          1.2571   -5.1596   -0.2965 H         1 <0>         0.0795
     24 H2          1.4581   -5.6618    1.3992 H         1 <0>         0.1057
     25 H3          0.4863   -4.2233    1.0063 H         1 <0>         0.0890
     26 H4          3.8808   -5.5991    0.7940 H         1 <0>         0.1227
     27 H5          4.6546   -3.9984    0.7093 H         1 <0>         0.0891
     28 H6          5.0315   -4.9530    2.9319 H         1 <0>         0.0753
     29 H7          3.9186   -3.5711    3.0732 H         1 <0>         0.0458
     30 H8          3.1095   -5.4888    4.2452 H         1 <0>         0.3955
     31 H9          0.3360   -2.6352    0.4111 H         1 <0>         0.1927
     32 H10         4.5024   -0.0151    0.4350 H         1 <0>         0.1958
     33 H11        -0.9530    1.7815   -0.3890 H         1 <0>         0.2212
     34 H12         4.3019    1.8563    0.0464 H         1 <0>         0.4240
     35 H13         1.5149    3.7624    1.0368 H         1 <0>         0.1421
     36 H14         1.3313    6.2102    0.8653 H         1 <0>         0.1447
     37 H15         3.0268    7.4900   -0.3774 H         1 <0>         0.1428
     38 H16         5.1079    3.8775   -1.2799 H         1 <0>         0.1387
     39 N5          3.6583   -1.9074    0.6355 N.ar      1 <0>        -0.5450
     40 H17         4.5576   -2.3758    0.7966 H         1 <0>         0.4669
@<TRIPOS>BOND
     1    1    2 1
     2    1   23 1
     3    1   24 1
     4    1   25 1
     5    2    3 1
     6    2    6 1
     7    3    4 1
     8    3   26 1
     9    3   27 1
    10    4    5 1
    11    4   28 1
    12    4   29 1
    13    5   30 1
    14    6    7 ar
    15    6   39 ar
    16    7    8 ar
    17    7   31 1
    18    8   14 ar
    19    8    9 ar
    20    9   10 ar
    21    9   11 ar
    22   10   32 1
    23   10   39 ar
    24   11   12 ar
    25   11   15 1
    26   12   13 ar
    27   13   14 ar
    28   13   33 1
    29   15   16 1
    30   15   34 1
    31   16   21 ar
    32   16   17 ar
    33   17   18 ar
    34   17   35 1
    35   18   19 ar
    36   18   36 1
    37   19   20 ar
    38   19   37 1
    39   20   21 ar
    40   20   22 1
    41   21   38 1
    42   39   40 1
@<TRIPOS>MOLECULE
ZINC03815120
   33    36     0     0     0
SMALL
USER_CHARGES

@<TRIPOS>ATOM
      1 C1         -0.1958    1.2428   -0.0984 C.ar      1 <0>        -0.0908
      2 C2          0.9777    1.9330   -0.3317 C.ar      1 <0>        -0.1323
      3 C3          1.1690    3.1867    0.2347 C.ar      1 <0>         0.1615
      4 C4          0.1786    3.7428    1.0345 C.ar      1 <0>        -0.0864
      5 C5         -0.9930    3.0473    1.2641 C.ar      1 <0>        -0.0699
      6 C6         -1.1823    1.8007    0.6933 C.ar      1 <0>        -0.1068
      7 Br1        -2.3422    3.8027    2.3526 Br        1 <0>        -0.0434
      8 N1          2.3552    3.8876   -0.0000 N.pl3     1 <0>        -0.6444
      9 C7          2.3357    5.2711   -0.0971 C.ar      1 <0>         0.4810
     10 C8          3.5162    5.9942   -0.2105 C.ar      1 <0>        -0.2722
     11 C9          3.4977    7.3907   -0.3090 C.ar      1 <0>         0.2194
     12 C10         4.8142    8.0480   -0.4249 C.ar      1 <0>        -0.0430
     13 C11         5.0745    9.4340   -0.5368 C.ar      1 <0>        -0.1000
     14 C12         6.3590    9.9007   -0.6370 C.ar      1 <0>        -0.0763
     15 C13         7.4431    9.0349   -0.6322 C.ar      1 <0>        -0.1590
     16 C14         7.2233    7.6703   -0.5238 C.ar      1 <0>         0.2551
     17 C15         5.9256    7.1926   -0.4222 C.ar      1 <0>        -0.1563
     18 S1          5.2340    5.5650   -0.2699 S.3       1 <0>         0.0718
     19 N2          8.3034    6.7815   -0.5176 N.pl3     1 <0>        -0.8717
     20 N3          2.2770    7.9717   -0.2860 N.ar      1 <0>        -0.5232
     21 C16         1.1846    7.2585   -0.1776 C.ar      1 <0>         0.3400
     22 N4          1.1838    5.9407   -0.0896 N.ar      1 <0>        -0.5450
     23 H1         -0.3448    0.2679   -0.5387 H         1 <0>         0.1377
     24 H2          1.7460    1.4980   -0.9537 H         1 <0>         0.1320
     25 H3          0.3241    4.7176    1.4761 H         1 <0>         0.1446
     26 H4         -2.1007    1.2608    0.8705 H         1 <0>         0.1351
     27 H5          3.1921    3.4065   -0.0950 H         1 <0>         0.4233
     28 H6          4.2510   10.1326   -0.5434 H         1 <0>         0.1341
     29 H7          6.5309   10.9636   -0.7211 H         1 <0>         0.1353
     30 H8          8.4488    9.4204   -0.7117 H         1 <0>         0.1384
     31 H9          8.1459    5.8273   -0.4419 H         1 <0>         0.3996
     32 H10         9.2099    7.1192   -0.5889 H         1 <0>         0.4060
     33 H11         0.2354    7.7736   -0.1645 H         1 <0>         0.2055
@<TRIPOS>BOND
     1    1    6 ar
     2    1    2 ar
     3    1   23 1
     4    2    3 ar
     5    2   24 1
     6    3    4 ar
     7    3    8 1
     8    4    5 ar
     9    4   25 1
    10    5    6 ar
    11    5    7 1
    12    6   26 1
    13    8    9 1
    14    8   27 1
    15    9   22 ar
    16    9   10 ar
    17   10   18 1
    18   10   11 ar
    19   11   12 1
    20   11   20 ar
    21   12   17 ar
    22   12   13 ar
    23   13   14 ar
    24   13   28 1
    25   14   15 ar
    26   14   29 1
    27   15   16 ar
    28   15   30 1
    29   16   17 ar
    30   16   19 1
    31   17   18 1
    32   19   31 1
    33   19   32 1
    34   20   21 ar
    35   21   22 ar
    36   21   33 1
@<TRIPOS>MOLECULE
ZINC03815121
   39    41     0     0     0
SMALL
USER_CHARGES

@<TRIPOS>ATOM
      1 C1          1.9048    5.7837   -1.0090 C.3       1 <0>        -0.1205
      2 C2          2.0432    4.3809   -0.4761 C.ar      1 <0>        -0.0619
      3 C3          3.2601    3.9461    0.0168 C.ar      1 <0>        -0.1170
      4 C4          3.3914    2.6598    0.5068 C.ar      1 <0>        -0.0940
      5 C5          2.3055    1.8063    0.5103 C.ar      1 <0>        -0.1095
      6 C6          1.0832    2.2381    0.0116 C.ar      1 <0>         0.1240
      7 C7          0.9548    3.5312   -0.4799 C.ar      1 <0>        -0.1349
      8 N1         -0.0166    1.3755    0.0096 N.pl3     1 <0>        -0.6075
      9 C8          0.1705    0.0195   -0.1629 C.ar      1 <0>         0.4703
     10 C9         -0.9409   -0.9202   -0.0511 C.ar      1 <0>        -0.0653
     11 C10        -2.2500   -0.5259    0.2339 C.ar      1 <0>        -0.1391
     12 C11        -3.2268   -1.5032    0.3177 C.ar      1 <0>         0.3968
     13 C12        -1.7256   -3.2127   -0.1375 C.ar      1 <0>         0.2154
     14 C13        -0.6688   -2.2991   -0.2422 C.ar      1 <0>         0.1200
     15 N2          0.5892   -2.6706   -0.5149 N.ar      1 <0>        -0.5286
     16 C14         1.5490   -1.7835   -0.6037 C.ar      1 <0>         0.3815
     17 N3          1.3678   -0.4822   -0.4427 N.ar      1 <0>        -0.5482
     18 N4         -4.5390   -1.1329    0.6018 N.pl3     1 <0>        -0.6021
     19 C15        -4.8952    0.2847    0.6997 C.3       1 <0>         0.0732
     20 C16        -5.5631   -2.1611    0.8028 C.3       1 <0>         0.0620
     21 H1          1.6102    6.4523   -0.2001 H         1 <0>         0.0766
     22 H2          2.8589    6.1113   -1.4219 H         1 <0>         0.0737
     23 H3          1.1452    5.8022   -1.7906 H         1 <0>         0.0688
     24 H4          4.1097    4.6129    0.0194 H         1 <0>         0.1305
     25 H5          4.3430    2.3236    0.8912 H         1 <0>         0.1331
     26 H6          2.4075    0.8032    0.8972 H         1 <0>         0.1362
     27 H7          0.0046    3.8716   -0.8643 H         1 <0>         0.1273
     28 H8         -0.9118    1.7308    0.1255 H         1 <0>         0.4239
     29 H9         -2.4940    0.5151    0.3859 H         1 <0>         0.1804
     30 H10        -1.5428   -4.2677   -0.2790 H         1 <0>         0.2160
     31 H11         2.5461   -2.1341   -0.8256 H         1 <0>         0.2179
     32 H12        -5.1967    0.6522   -0.2812 H         1 <0>         0.0815
     33 H13        -5.7203    0.4044    1.4019 H         1 <0>         0.0997
     34 H14        -4.0337    0.8524    1.0512 H         1 <0>         0.0841
     35 H15        -5.6039   -2.4319    1.8579 H         1 <0>         0.0853
     36 H16        -6.5327   -1.7743    0.4892 H         1 <0>         0.1078
     37 H17        -5.3146   -3.0420    0.2110 H         1 <0>         0.0689
     38 N5         -3.0027   -2.8458    0.1393 N.ar      1 <0>        -0.4992
     39 H18        -3.7602   -3.5351    0.2113 H         1 <0>         0.4730
@<TRIPOS>BOND
     1    1    2 1
     2    1   21 1
     3    1   22 1
     4    1   23 1
     5    2    7 ar
     6    2    3 ar
     7    3    4 ar
     8    3   24 1
     9    4    5 ar
    10    4   25 1
    11    5    6 ar
    12    5   26 1
    13    6    7 ar
    14    6    8 1
    15    7   27 1
    16    8    9 1
    17    8   28 1
    18    9   17 ar
    19    9   10 ar
    20   10   14 ar
    21   10   11 ar
    22   11   12 ar
    23   11   29 1
    24   12   18 1
    25   12   38 ar
    26   13   14 ar
    27   13   30 1
    28   13   38 ar
    29   14   15 ar
    30   15   16 ar
    31   16   17 ar
    32   16   31 1
    33   18   19 1
    34   18   20 1
    35   19   32 1
    36   19   33 1
    37   19   34 1
    38   20   35 1
    39   20   36 1
    40   20   37 1
    41   38   39 1
@<TRIPOS>MOLECULE
ZINC03815122
   51    54     0     0     0
SMALL
USER_CHARGES

@<TRIPOS>ATOM
      1 C1         -1.1108    2.9203   -0.7515 C.ar      1 <0>        -0.0904
      2 C2          0.0731    3.6319   -0.7455 C.ar      1 <0>        -0.0959
      3 C3          1.1562    3.1695   -0.0088 C.ar      1 <0>         0.1487
      4 C4          1.0449    1.9921    0.7200 C.ar      1 <0>        -0.1159
      5 C5         -0.1421    1.2850    0.7099 C.ar      1 <0>        -0.0714
      6 C6         -1.2207    1.7517   -0.0211 C.ar      1 <0>        -0.0994
      7 Br1        -0.2955   -0.3176    1.7019 Br        1 <0>        -0.0394
      8 N1          2.3551    3.8876   -0.0005 N.pl3     1 <0>        -0.6163
      9 C7          2.3357    5.2646   -0.0976 C.ar      1 <0>         0.4722
     10 C8          3.5726    6.0347   -0.2111 C.ar      1 <0>         0.0832
     11 C9          3.4639    7.4429   -0.3121 C.ar      1 <0>         0.0399
     12 C10         4.6473    8.1940   -0.4282 C.ar      1 <0>         0.2508
     13 N2          5.7970    7.5515   -0.4430 N.ar      1 <0>        -0.5310
     14 C11         5.8571    6.2253   -0.3515 C.ar      1 <0>         0.5517
     15 N3          4.7783    5.4714   -0.2403 N.ar      1 <0>        -0.5369
     16 N4          7.0982    5.6122   -0.3732 N.pl3     1 <0>        -0.7036
     17 C12         8.3131    6.4218   -0.4951 C.3       1 <0>         0.1437
     18 C13         9.5386    5.5058   -0.4943 C.3       1 <0>        -0.1660
     19 C14        10.8074    6.3513   -0.6216 C.3       1 <0>         0.0009
     20 C15        12.1439    4.8068    0.6805 C.3       1 <0>        -0.0434
     21 C16        13.3433    3.8573    0.6183 C.3       1 <0>         0.0348
     22 O1         14.5092    4.5941    0.2399 O.3       1 <0>        -0.3562
     23 C17        14.3884    5.2541   -1.0231 C.3       1 <0>         0.0341
     24 C18        13.1996    6.2178   -0.9775 C.3       1 <0>        -0.0384
     25 N5          2.2480    7.9992   -0.2879 N.ar      1 <0>        -0.5143
     26 C19         1.1713    7.2599   -0.1787 C.ar      1 <0>         0.3400
     27 N6          1.1935    5.9400   -0.0858 N.ar      1 <0>        -0.5537
     28 H1         -1.9531    3.2798   -1.3239 H         1 <0>         0.1399
     29 H2          0.1568    4.5467   -1.3133 H         1 <0>         0.1433
     30 H3          1.8850    1.6301    1.2941 H         1 <0>         0.1347
     31 H4         -2.1489    1.1995   -0.0243 H         1 <0>         0.1377
     32 H5          3.2009    3.4185    0.0735 H         1 <0>         0.4304
     33 H6          4.6142    9.2709   -0.5029 H         1 <0>         0.1960
     34 H7          7.1634    4.6466   -0.3077 H         1 <0>         0.4163
     35 H8          8.2818    6.9860   -1.4272 H         1 <0>         0.0792
     36 H9          8.3753    7.1126    0.3458 H         1 <0>         0.0790
     37 H10         9.5700    4.9416    0.4378 H         1 <0>         0.0947
     38 H11         9.4764    4.8150   -1.3352 H         1 <0>         0.0955
     39 H12        10.7761    6.9155   -1.5537 H         1 <0>         0.1370
     40 H13        10.8696    7.0421    0.2193 H         1 <0>         0.1376
     41 H14        12.3127    5.5562    1.4538 H         1 <0>         0.1418
     42 H15        11.2424    4.2398    0.9127 H         1 <0>         0.1405
     43 H16        13.1515    3.0764   -0.1175 H         1 <0>         0.0810
     44 H17        13.5005    3.4049    1.5975 H         1 <0>         0.1419
     45 H18        14.2270    4.5138   -1.8066 H         1 <0>         0.0813
     46 H19        15.3014    5.8120   -1.2310 H         1 <0>         0.1427
     47 H20        13.0687    6.6808   -1.9556 H         1 <0>         0.1424
     48 H21        13.3852    6.9897   -0.2307 H         1 <0>         0.1416
     49 H22         0.2120    7.7558   -0.1634 H         1 <0>         0.2069
     50 N7         11.9813    5.4519   -0.6391 N.4       1 <0>        -0.3961
     51 H23        11.8348    4.7258   -1.3502 H         1 <0>         0.4270
@<TRIPOS>BOND
     1    1    6 ar
     2    1    2 ar
     3    1   28 1
     4    2    3 ar
     5    2   29 1
     6    3    4 ar
     7    3    8 1
     8    4    5 ar
     9    4   30 1
    10    5    6 ar
    11    5    7 1
    12    6   31 1
    13    8    9 1
    14    8   32 1
    15    9   27 ar
    16    9   10 ar
    17   10   15 ar
    18   10   11 ar
    19   11   12 ar
    20   11   25 ar
    21   12   13 ar
    22   12   33 1
    23   13   14 ar
    24   14   15 ar
    25   14   16 1
    26   16   17 1
    27   16   34 1
    28   17   18 1
    29   17   35 1
    30   17   36 1
    31   18   19 1
    32   18   37 1
    33   18   38 1
    34   19   39 1
    35   19   40 1
    36   19   50 1
    37   20   21 1
    38   20   41 1
    39   20   42 1
    40   20   50 1
    41   21   22 1
    42   21   43 1
    43   21   44 1
    44   22   23 1
    45   23   24 1
    46   23   45 1
    47   23   46 1
    48   24   47 1
    49   24   48 1
    50   24   50 1
    51   25   26 ar
    52   26   27 ar
    53   26   49 1
    54   50   51 1
@<TRIPOS>MOLECULE
ZINC03815123
   44    47     0     0     0
SMALL
USER_CHARGES

@<TRIPOS>ATOM
      1 C1         -1.9932    0.9752   -1.4767 C.3       1 <0>        -0.1154
      2 C2         -0.9727    1.7492   -0.6826 C.ar      1 <0>        -0.0662
      3 C3         -0.0171    1.0758    0.0566 C.ar      1 <0>        -0.1344
      4 C4          0.9243    1.7820    0.7824 C.ar      1 <0>        -0.0953
      5 C5          0.9100    3.1631    0.7757 C.ar      1 <0>        -0.1174
      6 C6         -0.0515    3.8425    0.0386 C.ar      1 <0>         0.1518
      7 C7         -0.9959    3.1298   -0.6895 C.ar      1 <0>        -0.1460
      8 N1         -0.0691    5.2400    0.0299 N.pl3     1 <0>        -0.6200
      9 C8          1.1134    5.9458    0.1271 C.ar      1 <0>         0.4674
     10 C9          1.1201    7.4028    0.2403 C.ar      1 <0>         0.0906
     11 C10         2.3761    8.0491    0.3409 C.ar      1 <0>         0.0244
     12 C11         2.3947    9.4507    0.4562 C.ar      1 <0>         0.2492
     13 N2          1.2446   10.0925    0.4707 N.ar      1 <0>        -0.5249
     14 C12         0.0841    9.4479    0.3795 C.ar      1 <0>         0.5617
     15 N3          0.0081    8.1338    0.2690 N.ar      1 <0>        -0.5481
     16 N4         -1.0890   10.1829    0.4008 N.pl3     1 <0>        -0.6935
     17 C13        -1.0371   11.6420    0.5219 C.3       1 <0>         0.1436
     18 C14        -2.4598   12.2048    0.5208 C.3       1 <0>        -0.0442
     19 C15        -2.4064   13.7057    0.6454 C.2       1 <0>         0.0011
     20 C16        -2.9731   14.5903   -0.1970 C.2       1 <0>        -0.0472
     21 N5         -2.6826   15.8382    0.2849 N.pl3     1 <0>        -0.5731
     22 H1         -2.9622   16.7098   -0.1178 H         1 <0>         0.4282
     23 C17        -1.9479   15.6724    1.4058 C.2       1 <0>         0.1892
     24 N6         -1.7910   14.3944    1.6180 N.2       1 <0>        -0.4875
     25 N7          3.4876    7.3057    0.3172 N.ar      1 <0>        -0.5122
     26 C18         3.4229    6.0012    0.2088 C.ar      1 <0>         0.3242
     27 N8          2.2876    5.3277    0.1158 N.ar      1 <0>        -0.5556
     28 H2         -2.8692    0.7861   -0.8562 H         1 <0>         0.0719
     29 H3         -2.2866    1.5535   -2.3528 H         1 <0>         0.0660
     30 H4         -1.5620    0.0263   -1.7955 H         1 <0>         0.0687
     31 H5         -0.0035   -0.0041    0.0633 H         1 <0>         0.1232
     32 H6          1.6718    1.2531    1.3550 H         1 <0>         0.1268
     33 H7          1.6454    3.7142    1.3431 H         1 <0>         0.1364
     34 H8         -1.7449    3.6550   -1.2637 H         1 <0>         0.1240
     35 H9         -0.9121    5.7139   -0.0444 H         1 <0>         0.4295
     36 H10         3.3289    9.9874    0.5307 H         1 <0>         0.1918
     37 H11        -1.9453    9.7318    0.3355 H         1 <0>         0.4147
     38 H12        -0.5403   11.9117    1.4539 H         1 <0>         0.0792
     39 H13        -0.4816   12.0568   -0.3192 H         1 <0>         0.0680
     40 H14        -2.9565   11.9350   -0.4111 H         1 <0>         0.0812
     41 H15        -3.0153   11.7899    1.3619 H         1 <0>         0.0818
     42 H16        -3.5464   14.3596   -1.0828 H         1 <0>         0.1764
     43 H17        -1.5583   16.4660    2.0261 H         1 <0>         0.2089
     44 H18         4.3483    5.4446    0.1941 H         1 <0>         0.2008
@<TRIPOS>BOND
     1    1    2 1
     2    1   28 1
     3    1   29 1
     4    1   30 1
     5    2    7 ar
     6    2    3 ar
     7    3    4 ar
     8    3   31 1
     9    4    5 ar
    10    4   32 1
    11    5    6 ar
    12    5   33 1
    13    6    7 ar
    14    6    8 1
    15    7   34 1
    16    8    9 1
    17    8   35 1
    18    9   27 ar
    19    9   10 ar
    20   10   15 ar
    21   10   11 ar
    22   11   12 ar
    23   11   25 ar
    24   12   13 ar
    25   12   36 1
    26   13   14 ar
    27   14   15 ar
    28   14   16 1
    29   16   17 1
    30   16   37 1
    31   17   18 1
    32   17   38 1
    33   17   39 1
    34   18   19 1
    35   18   40 1
    36   18   41 1
    37   19   24 1
    38   19   20 2
    39   20   21 1
    40   20   42 1
    41   21   22 1
    42   21   23 1
    43   23   24 2
    44   23   43 1
    45   25   26 ar
    46   26   27 ar
    47   26   44 1
@<TRIPOS>MOLECULE
ZINC03815123
   44    47     0     0     0
SMALL
USER_CHARGES

@<TRIPOS>ATOM
      1 C1         -1.9932    0.9752   -1.4767 C.3       1 <0>        -0.1154
      2 C2         -0.9727    1.7492   -0.6826 C.ar      1 <0>        -0.0662
      3 C3         -0.0171    1.0758    0.0566 C.ar      1 <0>        -0.1344
      4 C4          0.9243    1.7820    0.7824 C.ar      1 <0>        -0.0953
      5 C5          0.9100    3.1631    0.7757 C.ar      1 <0>        -0.1174
      6 C6         -0.0515    3.8425    0.0386 C.ar      1 <0>         0.1518
      7 C7         -0.9959    3.1298   -0.6895 C.ar      1 <0>        -0.1460
      8 N1         -0.0691    5.2400    0.0299 N.pl3     1 <0>        -0.6200
      9 C8          1.1134    5.9458    0.1271 C.ar      1 <0>         0.4674
     10 C9          1.1201    7.4028    0.2403 C.ar      1 <0>         0.0906
     11 C10         2.3761    8.0491    0.3409 C.ar      1 <0>         0.0244
     12 C11         2.3947    9.4507    0.4562 C.ar      1 <0>         0.2492
     13 N2          1.2446   10.0925    0.4707 N.ar      1 <0>        -0.5249
     14 C12         0.0841    9.4479    0.3795 C.ar      1 <0>         0.5617
     15 N3          0.0081    8.1338    0.2690 N.ar      1 <0>        -0.5481
     16 N4         -1.0890   10.1829    0.4008 N.pl3     1 <0>        -0.6935
     17 C13        -1.0371   11.6420    0.5219 C.3       1 <0>         0.1436
     18 C14        -2.4598   12.2048    0.5208 C.3       1 <0>        -0.0442
     19 C15        -2.4064   13.7057    0.6454 C.2       1 <0>         0.0011
     20 C16        -2.9731   14.5903   -0.1970 C.2       1 <0>        -0.0472
     21 N5         -2.6826   15.8382    0.2849 N.pl3     1 <0>        -0.5731
     22 H1         -2.9622   16.7098   -0.1178 H         1 <0>         0.4282
     23 C17        -1.9479   15.6724    1.4058 C.2       1 <0>         0.1892
     24 N6         -1.7910   14.3944    1.6180 N.2       1 <0>        -0.4875
     25 N7          3.4876    7.3057    0.3172 N.ar      1 <0>        -0.5122
     26 C18         3.4229    6.0012    0.2088 C.ar      1 <0>         0.3242
     27 N8          2.2876    5.3277    0.1158 N.ar      1 <0>        -0.5556
     28 H2         -2.8692    0.7861   -0.8562 H         1 <0>         0.0719
     29 H3         -2.2866    1.5535   -2.3528 H         1 <0>         0.0660
     30 H4         -1.5620    0.0263   -1.7955 H         1 <0>         0.0687
     31 H5         -0.0035   -0.0041    0.0633 H         1 <0>         0.1232
     32 H6          1.6718    1.2531    1.3550 H         1 <0>         0.1268
     33 H7          1.6454    3.7142    1.3431 H         1 <0>         0.1364
     34 H8         -1.7449    3.6550   -1.2637 H         1 <0>         0.1240
     35 H9         -0.9121    5.7139   -0.0444 H         1 <0>         0.4295
     36 H10         3.3289    9.9874    0.5307 H         1 <0>         0.1918
     37 H11        -1.9453    9.7318    0.3355 H         1 <0>         0.4147
     38 H12        -0.5403   11.9117    1.4539 H         1 <0>         0.0792
     39 H13        -0.4816   12.0568   -0.3192 H         1 <0>         0.0680
     40 H14        -2.9565   11.9350   -0.4111 H         1 <0>         0.0812
     41 H15        -3.0153   11.7899    1.3619 H         1 <0>         0.0818
     42 H16        -3.5464   14.3596   -1.0828 H         1 <0>         0.1764
     43 H17        -1.5583   16.4660    2.0261 H         1 <0>         0.2089
     44 H18         4.3483    5.4446    0.1941 H         1 <0>         0.2008
@<TRIPOS>BOND
     1    1    2 1
     2    1   28 1
     3    1   29 1
     4    1   30 1
     5    2    7 ar
     6    2    3 ar
     7    3    4 ar
     8    3   31 1
     9    4    5 ar
    10    4   32 1
    11    5    6 ar
    12    5   33 1
    13    6    7 ar
    14    6    8 1
    15    7   34 1
    16    8    9 1
    17    8   35 1
    18    9   27 ar
    19    9   10 ar
    20   10   15 ar
    21   10   11 ar
    22   11   12 ar
    23   11   25 ar
    24   12   13 ar
    25   12   36 1
    26   13   14 ar
    27   14   15 ar
    28   14   16 1
    29   16   17 1
    30   16   37 1
    31   17   18 1
    32   17   38 1
    33   17   39 1
    34   18   19 1
    35   18   40 1
    36   18   41 1
    37   19   24 1
    38   19   20 2
    39   20   21 1
    40   20   42 1
    41   21   22 1
    42   21   23 1
    43   23   24 2
    44   23   43 1
    45   25   26 ar
    46   26   27 ar
    47   26   44 1
@<TRIPOS>MOLECULE
ZINC03815123
   45    48     0     0     0
SMALL
USER_CHARGES

@<TRIPOS>ATOM
      1 C1         -1.9932    0.9752   -1.4767 C.3       1 <0>        -0.1171
      2 C2         -0.9727    1.7492   -0.6826 C.ar      1 <0>        -0.0645
      3 C3         -0.0171    1.0758    0.0566 C.ar      1 <0>        -0.1288
      4 C4          0.9243    1.7820    0.7824 C.ar      1 <0>        -0.0945
      5 C5          0.9100    3.1631    0.7757 C.ar      1 <0>        -0.1158
      6 C6         -0.0515    3.8425    0.0386 C.ar      1 <0>         0.1426
      7 C7         -0.9959    3.1298   -0.6895 C.ar      1 <0>        -0.1431
      8 N1         -0.0691    5.2400    0.0299 N.pl3     1 <0>        -0.6149
      9 C8          1.1134    5.9458    0.1271 C.ar      1 <0>         0.4733
     10 C9          1.1201    7.4028    0.2403 C.ar      1 <0>         0.0815
     11 C10         2.3761    8.0491    0.3409 C.ar      1 <0>         0.0406
     12 C11         2.3947    9.4507    0.4562 C.ar      1 <0>         0.2474
     13 N2          1.2446   10.0925    0.4707 N.ar      1 <0>        -0.5336
     14 C12         0.0841    9.4479    0.3795 C.ar      1 <0>         0.5494
     15 N3          0.0081    8.1338    0.2690 N.ar      1 <0>        -0.5337
     16 N4         -1.0890   10.1829    0.4008 N.pl3     1 <0>        -0.7026
     17 C13        -1.0371   11.6420    0.5219 C.3       1 <0>         0.1387
     18 C14        -2.4598   12.2048    0.5208 C.3       1 <0>        -0.0780
     19 C15        -2.4064   13.7057    0.6454 C.2       1 <0>         0.0365
     20 C16        -2.9731   14.5903   -0.1970 C.2       1 <0>         0.0391
     21 N5         -2.6826   15.8382    0.2849 N.pl3     1 <0>        -0.5151
     22 H1         -2.9622   16.7098   -0.1178 H         1 <0>         0.4767
     23 C17        -1.9479   15.6724    1.4058 C.cat     1 <0>         0.3096
     24 N6          3.4876    7.3057    0.3172 N.ar      1 <0>        -0.5192
     25 C18         3.4229    6.0012    0.2088 C.ar      1 <0>         0.3413
     26 N7          2.2876    5.3277    0.1158 N.ar      1 <0>        -0.5539
     27 H2         -2.8692    0.7861   -0.8562 H         1 <0>         0.0734
     28 H3         -2.2866    1.5535   -2.3528 H         1 <0>         0.0666
     29 H4         -1.5620    0.0263   -1.7955 H         1 <0>         0.0709
     30 H5         -0.0035   -0.0041    0.0633 H         1 <0>         0.1261
     31 H6          1.6718    1.2531    1.3550 H         1 <0>         0.1290
     32 H7          1.6454    3.7142    1.3431 H         1 <0>         0.1356
     33 H8         -1.7449    3.6550   -1.2637 H         1 <0>         0.1241
     34 H9         -0.9121    5.7139   -0.0444 H         1 <0>         0.4289
     35 H10         3.3289    9.9874    0.5307 H         1 <0>         0.1943
     36 H11        -1.9453    9.7318    0.3355 H         1 <0>         0.4192
     37 H12        -0.5403   11.9117    1.4539 H         1 <0>         0.0660
     38 H13        -0.4816   12.0568   -0.3192 H         1 <0>         0.0780
     39 H14        -2.9565   11.9350   -0.4111 H         1 <0>         0.1202
     40 H15        -3.0153   11.7899    1.3619 H         1 <0>         0.1101
     41 H16        -3.5464   14.3596   -1.0828 H         1 <0>         0.2262
     42 H17        -1.5583   16.4660    2.0261 H         1 <0>         0.2659
     43 H18         4.3483    5.4446    0.1941 H         1 <0>         0.2056
     44 N8         -1.7917   14.3949    1.6170 N.pl3     1 <0>        -0.4831
     45 H19        -1.2782   13.9818    2.4042 H         1 <0>         0.4813
@<TRIPOS>BOND
     1    1    2 1
     2    1   27 1
     3    1   28 1
     4    1   29 1
     5    2    7 ar
     6    2    3 ar
     7    3    4 ar
     8    3   30 1
     9    4    5 ar
    10    4   31 1
    11    5    6 ar
    12    5   32 1
    13    6    7 ar
    14    6    8 1
    15    7   33 1
    16    8    9 1
    17    8   34 1
    18    9   26 ar
    19    9   10 ar
    20   10   15 ar
    21   10   11 ar
    22   11   12 ar
    23   11   24 ar
    24   12   13 ar
    25   12   35 1
    26   13   14 ar
    27   14   15 ar
    28   14   16 1
    29   16   17 1
    30   16   36 1
    31   17   18 1
    32   17   37 1
    33   17   38 1
    34   18   19 1
    35   18   39 1
    36   18   40 1
    37   19   20 2
    38   19   44 1
    39   20   21 1
    40   20   41 1
    41   21   22 1
    42   21   23 1
    43   23   42 1
    44   23   44 2
    45   24   25 ar
    46   25   26 ar
    47   25   43 1
    48   44   45 1
@<TRIPOS>MOLECULE
ZINC03815124
   33    35     0     0     0
SMALL
USER_CHARGES

@<TRIPOS>ATOM
      1 C1          1.9048    5.7837   -1.0090 C.3       1 <0>        -0.1207
      2 C2          2.0432    4.3809   -0.4761 C.ar      1 <0>        -0.0619
      3 C3          3.2601    3.9461    0.0168 C.ar      1 <0>        -0.1163
      4 C4          3.3914    2.6598    0.5068 C.ar      1 <0>        -0.0942
      5 C5          2.3055    1.8063    0.5103 C.ar      1 <0>        -0.1092
      6 C6          1.0832    2.2381    0.0116 C.ar      1 <0>         0.1225
      7 C7          0.9548    3.5312   -0.4799 C.ar      1 <0>        -0.1342
      8 N1         -0.0166    1.3755    0.0096 N.pl3     1 <0>        -0.6059
      9 C8          0.1705    0.0195   -0.1629 C.ar      1 <0>         0.4707
     10 C9         -0.9410   -0.9202   -0.0511 C.ar      1 <0>        -0.0683
     11 C10        -2.2500   -0.5259    0.2339 C.ar      1 <0>        -0.1339
     12 C11        -3.2268   -1.5032    0.3177 C.ar      1 <0>         0.4041
     13 C12        -1.7256   -3.2127   -0.1375 C.ar      1 <0>         0.2175
     14 C13        -0.6688   -2.2991   -0.2422 C.ar      1 <0>         0.1241
     15 N2          0.5892   -2.6706   -0.5149 N.ar      1 <0>        -0.5293
     16 C14         1.5490   -1.7835   -0.6037 C.ar      1 <0>         0.3844
     17 N3          1.3678   -0.4822   -0.4427 N.ar      1 <0>        -0.5479
     18 N4         -4.5390   -1.1329    0.6018 N.pl3     1 <0>        -0.8321
     19 H1          1.6102    6.4523   -0.2001 H         1 <0>         0.0768
     20 H2          2.8589    6.1112   -1.4219 H         1 <0>         0.0738
     21 H3          1.1452    5.8021   -1.7906 H         1 <0>         0.0689
     22 H4          4.1097    4.6129    0.0194 H         1 <0>         0.1308
     23 H5          4.3430    2.3236    0.8912 H         1 <0>         0.1334
     24 H6          2.4075    0.8031    0.8972 H         1 <0>         0.1362
     25 H7          0.0046    3.8716   -0.8643 H         1 <0>         0.1275
     26 H8         -0.9118    1.7308    0.1255 H         1 <0>         0.4249
     27 H9         -2.4940    0.5151    0.3859 H         1 <0>         0.1813
     28 H10        -1.5428   -4.2677   -0.2790 H         1 <0>         0.2175
     29 H11         2.5461   -2.1341   -0.8256 H         1 <0>         0.2186
     30 H12        -5.2314   -1.8095    0.6632 H         1 <0>         0.4210
     31 H13        -4.7605   -0.1985    0.7384 H         1 <0>         0.4363
     32 N5         -3.0027   -2.8458    0.1393 N.ar      1 <0>        -0.4947
     33 H14        -3.7602   -3.5351    0.2113 H         1 <0>         0.4783
@<TRIPOS>BOND
     1    1    2 1
     2    1   19 1
     3    1   20 1
     4    1   21 1
     5    2    7 ar
     6    2    3 ar
     7    3    4 ar
     8    3   22 1
     9    4    5 ar
    10    4   23 1
    11    5    6 ar
    12    5   24 1
    13    6    7 ar
    14    6    8 1
    15    7   25 1
    16    8    9 1
    17    8   26 1
    18    9   17 ar
    19    9   10 ar
    20   10   14 ar
    21   10   11 ar
    22   11   12 ar
    23   11   27 1
    24   12   18 1
    25   12   32 ar
    26   13   14 ar
    27   13   28 1
    28   13   32 ar
    29   14   15 ar
    30   15   16 ar
    31   16   17 ar
    32   16   29 1
    33   18   30 1
    34   18   31 1
    35   32   33 1
@<TRIPOS>MOLECULE
ZINC03815125
   36    38     0     0     0
SMALL
USER_CHARGES

@<TRIPOS>ATOM
      1 C1         -3.9826   -5.0868   -0.8343 C.3       1 <0>         0.0685
      2 N1         -4.0442   -3.8723   -0.0173 N.pl3     1 <0>        -0.6997
      3 C2         -3.0009   -2.9580   -0.0537 C.ar      1 <0>         0.4660
      4 C3         -1.9063   -3.2108   -0.8703 C.ar      1 <0>        -0.2065
      5 C4         -0.8677   -2.2836   -0.8953 C.ar      1 <0>         0.3054
      6 C5         -0.9845   -1.1312   -0.0718 C.ar      1 <0>        -0.1863
      7 C6         -2.1151   -0.9541    0.7067 C.ar      1 <0>         0.2432
      8 C7          0.1295   -0.1667   -0.1151 C.2       1 <0>         0.4353
      9 N2         -0.0044    1.0923    0.2483 N.2       1 <0>        -0.4682
     10 C8          1.0700    1.9363    0.1981 C.ar      1 <0>         0.0827
     11 C9          1.8363    2.1662    1.3439 C.ar      1 <0>        -0.1143
     12 C10         2.9216    3.0149    1.2851 C.ar      1 <0>        -0.0915
     13 C11         3.2471    3.6466    0.0976 C.ar      1 <0>        -0.0906
     14 C12         2.4896    3.4280   -1.0405 C.ar      1 <0>        -0.0737
     15 C13         1.4035    2.5773   -0.9974 C.ar      1 <0>        -0.1059
     16 Br1         2.9437    4.2973   -2.6573 Br        1 <0>        -0.0270
     17 N3          1.3371   -0.6959   -0.5661 N.pl3     1 <0>        -0.5730
     18 C14         1.2855   -1.6783   -1.5143 C.2       1 <0>         0.4595
     19 N4          0.2381   -2.4390   -1.6630 N.2       1 <0>        -0.5525
     20 C15         2.6178   -0.2159   -0.0412 C.3       1 <0>         0.0495
     21 H1         -4.8844   -5.6780   -0.6750 H         1 <0>         0.1049
     22 H2         -3.9087   -4.8133   -1.8869 H         1 <0>         0.0847
     23 H3         -3.1090   -5.6728   -0.5490 H         1 <0>         0.0841
     24 H4         -4.8142   -3.7073    0.5490 H         1 <0>         0.4216
     25 H5         -1.8619   -4.1061   -1.4727 H         1 <0>         0.1909
     26 H6         -2.2109   -0.0759    1.3280 H         1 <0>         0.2053
     27 H7          1.5810    1.6776    2.2726 H         1 <0>         0.1354
     28 H8          3.5167    3.1904    2.1692 H         1 <0>         0.1448
     29 H9          4.0957    4.3134    0.0586 H         1 <0>         0.1431
     30 H10         0.8132    2.4074   -1.8857 H         1 <0>         0.1345
     31 H11         2.1383   -1.8290   -2.1596 H         1 <0>         0.2226
     32 H12         2.6414   -0.3520    1.0400 H         1 <0>         0.0894
     33 H13         3.4315   -0.7805   -0.4963 H         1 <0>         0.1067
     34 H14         2.7335    0.8421   -0.2768 H         1 <0>         0.0951
     35 N5         -3.1406   -1.8502    0.7408 N.ar      1 <0>        -0.5561
     36 H15        -3.9703   -1.7041    1.3278 H         1 <0>         0.4720
@<TRIPOS>BOND
     1    1    2 1
     2    1   21 1
     3    1   22 1
     4    1   23 1
     5    2    3 1
     6    2   24 1
     7    3    4 ar
     8    3   35 ar
     9    4    5 ar
    10    4   25 1
    11    5   19 1
    12    5    6 ar
    13    6    7 ar
    14    6    8 1
    15    7   26 1
    16    7   35 ar
    17    8    9 2
    18    8   17 1
    19    9   10 1
    20   10   15 ar
    21   10   11 ar
    22   11   12 ar
    23   11   27 1
    24   12   13 ar
    25   12   28 1
    26   13   14 ar
    27   13   29 1
    28   14   15 ar
    29   14   16 1
    30   15   30 1
    31   17   18 1
    32   17   20 1
    33   18   19 2
    34   18   31 1
    35   20   32 1
    36   20   33 1
    37   20   34 1
    38   35   36 1
@<TRIPOS>MOLECULE
ZINC03815126
   44    46     0     0     0
SMALL
USER_CHARGES

@<TRIPOS>ATOM
      1 C1          3.8533   -4.5759    1.1686 C.3       1 <0>         0.0634
      2 N1          2.5619   -3.9694    0.8364 N.pl3     1 <0>        -0.5851
      3 C2          1.3647   -4.8071    0.7307 C.3       1 <0>         0.0762
      4 C3          1.2137   -5.3015   -0.7093 C.3       1 <0>         0.0876
      5 H1          1.2084   -4.4483   -1.3877 H         1 <0>         0.1111
      6 C4         -0.1007   -6.0721   -0.8488 C.3       1 <0>         0.0445
      7 O1         -0.2982   -6.4334   -2.2172 O.3       1 <0>        -0.5616
      8 O2          2.3071   -6.1620   -1.0347 O.3       1 <0>        -0.5453
      9 C5          2.4725   -2.6001    0.6216 C.ar      1 <0>         0.4363
     10 C6          1.2302   -2.0290    0.4120 C.ar      1 <0>        -0.1995
     11 C7          1.1581   -0.6485    0.1967 C.ar      1 <0>         0.3056
     12 C8          2.3674    0.0970    0.2046 C.ar      1 <0>        -0.2627
     13 C9          3.5753   -0.5685    0.4251 C.ar      1 <0>         0.2649
     14 C10         2.2914    1.4923   -0.0133 C.ar      1 <0>         0.5209
     15 N2          1.0935    2.0292   -0.2142 N.ar      1 <0>        -0.5815
     16 C11        -0.0058    1.2930   -0.2125 C.ar      1 <0>         0.4273
     17 N3          0.0030   -0.0055   -0.0154 N.ar      1 <0>        -0.5569
     18 N4          3.4280    2.2722   -0.0183 N.pl3     1 <0>        -0.6088
     19 C12         3.3211    3.6627   -0.1149 C.ar      1 <0>         0.1219
     20 C13         2.2595    4.3230    0.4911 C.ar      1 <0>        -0.0827
     21 C14         2.1564    5.6966    0.3940 C.ar      1 <0>        -0.0916
     22 C15         3.1084    6.4155   -0.3056 C.ar      1 <0>        -0.0830
     23 C16         4.1672    5.7615   -0.9100 C.ar      1 <0>        -0.0754
     24 C17         4.2789    4.3874   -0.8120 C.ar      1 <0>        -0.1025
     25 Br1         5.4666    6.7492   -1.8650 Br        1 <0>        -0.0269
     26 H2          3.9843   -4.5819    2.2507 H         1 <0>         0.0842
     27 H3          3.8815   -5.5990    0.7935 H         1 <0>         0.1101
     28 H4          4.6551   -3.9982    0.7088 H         1 <0>         0.0689
     29 H5          1.4592   -5.6620    1.4003 H         1 <0>         0.1124
     30 H6          0.4871   -4.2233    1.0084 H         1 <0>         0.1105
     31 H7         -0.0601   -6.9734   -0.2372 H         1 <0>         0.0566
     32 H8         -0.9272   -5.4441   -0.5159 H         1 <0>         0.0614
     33 H9         -1.1143   -6.9258   -2.3801 H         1 <0>         0.3906
     34 H10         2.3736   -6.9442   -0.4699 H         1 <0>         0.3782
     35 H11         0.3363   -2.6351    0.4141 H         1 <0>         0.1895
     36 H12         4.5028   -0.0151    0.4336 H         1 <0>         0.1968
     37 H13        -0.9533    1.7816   -0.3854 H         1 <0>         0.2214
     38 H14         4.3020    1.8562    0.0451 H         1 <0>         0.4244
     39 H15         1.5154    3.7624    1.0374 H         1 <0>         0.1421
     40 H16         1.3315    6.2102    0.8654 H         1 <0>         0.1447
     41 H17         3.0253    7.4898   -0.3799 H         1 <0>         0.1429
     42 H18         5.1077    3.8775   -1.2805 H         1 <0>         0.1389
     43 N5          3.6588   -1.9073    0.6352 N.ar      1 <0>        -0.5402
     44 H19         4.5583   -2.3757    0.7953 H         1 <0>         0.4702
@<TRIPOS>BOND
     1    1    2 1
     2    1   26 1
     3    1   27 1
     4    1   28 1
     5    2    3 1
     6    2    9 1
     7    3    4 1
     8    3   29 1
     9    3   30 1
    10    4    5 1
    11    4    6 1
    12    4    8 1
    13    6    7 1
    14    6   31 1
    15    6   32 1
    16    7   33 1
    17    8   34 1
    18    9   10 ar
    19    9   43 ar
    20   10   11 ar
    21   10   35 1
    22   11   17 ar
    23   11   12 ar
    24   12   13 ar
    25   12   14 ar
    26   13   36 1
    27   13   43 ar
    28   14   15 ar
    29   14   18 1
    30   15   16 ar
    31   16   17 ar
    32   16   37 1
    33   18   19 1
    34   18   38 1
    35   19   24 ar
    36   19   20 ar
    37   20   21 ar
    38   20   39 1
    39   21   22 ar
    40   21   40 1
    41   22   23 ar
    42   22   41 1
    43   23   24 ar
    44   23   25 1
    45   24   42 1
    46   43   44 1
@<TRIPOS>MOLECULE
ZINC03815128
   50    53     0     0     0
SMALL
USER_CHARGES

@<TRIPOS>ATOM
      1 C1          2.1576    5.6966    0.3943 C.ar      1 <0>        -0.0911
      2 C2          2.2602    4.3225    0.4909 C.ar      1 <0>        -0.0806
      3 C3          3.3215    3.6622   -0.1146 C.ar      1 <0>         0.1091
      4 C4          4.2799    4.3869   -0.8116 C.ar      1 <0>        -0.0976
      5 C5          4.1693    5.7608   -0.9084 C.ar      1 <0>        -0.0761
      6 C6          3.1101    6.4152   -0.3040 C.ar      1 <0>        -0.0760
      7 Br1         5.4699    6.7485   -1.8618 Br        1 <0>        -0.0196
      8 N1          3.4281    2.2717   -0.0180 N.pl3     1 <0>        -0.5966
      9 C7          2.2914    1.4919   -0.0148 C.ar      1 <0>         0.5202
     10 C8          2.3670    0.0967    0.2030 C.ar      1 <0>        -0.2608
     11 C9          3.5749   -0.5691    0.4254 C.ar      1 <0>         0.2774
     12 C10         2.4714   -2.6007    0.6198 C.ar      1 <0>         0.4308
     13 C11         1.2297   -2.0296    0.4088 C.ar      1 <0>        -0.1915
     14 C12         1.1579   -0.6486    0.1936 C.ar      1 <0>         0.3104
     15 N2          0.0031   -0.0057   -0.0199 N.ar      1 <0>        -0.5576
     16 C13        -0.0055    1.2929   -0.2168 C.ar      1 <0>         0.4376
     17 N3          1.0938    2.0290   -0.2171 N.ar      1 <0>        -0.5735
     18 N4          2.5604   -3.9699    0.8350 N.pl3     1 <0>        -0.7197
     19 C14         1.3474   -4.7915    0.8366 C.3       1 <0>         0.0904
     20 C15         1.7214   -6.2525    1.0942 C.3       1 <0>        -0.0173
     21 C16        -0.3593   -6.7373    2.2356 C.3       1 <0>        -0.0463
     22 C17        -1.6391   -7.5747    2.1653 C.3       1 <0>         0.0337
     23 O1         -1.2940   -8.9624    2.1415 O.3       1 <0>        -0.3516
     24 C18        -0.4531   -9.3278    1.0440 C.3       1 <0>         0.0333
     25 C19         0.8387   -8.5081    1.1028 C.3       1 <0>        -0.0378
     26 H1          1.3324    6.2103    0.8651 H         1 <0>         0.1471
     27 H2          1.5156    3.7620    1.0367 H         1 <0>         0.1410
     28 H3          5.1086    3.8769   -1.2801 H         1 <0>         0.1401
     29 H4          3.0277    7.4896   -0.3777 H         1 <0>         0.1461
     30 H5          4.3020    1.8556    0.0467 H         1 <0>         0.4258
     31 H6          4.5023   -0.0157    0.4358 H         1 <0>         0.2018
     32 H7          0.3358   -2.6356    0.4097 H         1 <0>         0.1868
     33 H8         -0.9528    1.7814   -0.3908 H         1 <0>         0.2262
     34 H9          3.4256   -4.3822    0.9842 H         1 <0>         0.4228
     35 H10         0.6748   -4.4448    1.6211 H         1 <0>         0.1053
     36 H11         0.8511   -4.7086   -0.1303 H         1 <0>         0.1065
     37 H12         2.3940   -6.5992    0.3097 H         1 <0>         0.1438
     38 H13         2.2177   -6.3354    2.0612 H         1 <0>         0.1447
     39 H14         0.1652   -6.9516    3.1667 H         1 <0>         0.1452
     40 H15        -0.6147   -5.6783    2.1963 H         1 <0>         0.1405
     41 H16        -2.1907   -7.3212    1.2600 H         1 <0>         0.0848
     42 H17        -2.2581   -7.3685    3.0385 H         1 <0>         0.1461
     43 H18        -0.9702   -9.1253    0.1061 H         1 <0>         0.0849
     44 H19        -0.2137  -10.3893    1.1065 H         1 <0>         0.1472
     45 H20         1.4578   -8.7419    0.2367 H         1 <0>         0.1449
     46 H21         1.3824   -8.7508    2.0159 H         1 <0>         0.1445
     47 N5          3.6579   -1.9077    0.6354 N.ar      1 <0>        -0.5393
     48 H22         4.5572   -2.3762    0.7969 H         1 <0>         0.4757
     49 N6          0.4906   -7.0722    1.0734 N.4       1 <0>        -0.3930
     50 H23        -0.0291   -6.8721    0.2107 H         1 <0>         0.4314
@<TRIPOS>BOND
     1    1    6 ar
     2    1    2 ar
     3    1   26 1
     4    2    3 ar
     5    2   27 1
     6    3    4 ar
     7    3    8 1
     8    4    5 ar
     9    4   28 1
    10    5    6 ar
    11    5    7 1
    12    6   29 1
    13    8    9 1
    14    8   30 1
    15    9   17 ar
    16    9   10 ar
    17   10   14 ar
    18   10   11 ar
    19   11   31 1
    20   11   47 ar
    21   12   13 ar
    22   12   18 1
    23   12   47 ar
    24   13   14 ar
    25   13   32 1
    26   14   15 ar
    27   15   16 ar
    28   16   17 ar
    29   16   33 1
    30   18   19 1
    31   18   34 1
    32   19   20 1
    33   19   35 1
    34   19   36 1
    35   20   37 1
    36   20   38 1
    37   20   49 1
    38   21   22 1
    39   21   39 1
    40   21   40 1
    41   21   49 1
    42   22   23 1
    43   22   41 1
    44   22   42 1
    45   23   24 1
    46   24   25 1
    47   24   43 1
    48   24   44 1
    49   25   45 1
    50   25   46 1
    51   25   49 1
    52   47   48 1
    53   49   50 1
@<TRIPOS>MOLECULE
ZINC03815129
   33    35     0     0     0
SMALL
USER_CHARGES

@<TRIPOS>ATOM
      1 C1          0.9230    1.7830    0.7875 C.ar      1 <0>        -0.0984
      2 C2         -0.0158    1.0758    0.0584 C.ar      1 <0>        -0.0880
      3 C3         -0.9687    1.7483   -0.6842 C.ar      1 <0>        -0.1623
      4 C4         -0.9930    3.1293   -0.6911 C.ar      1 <0>        -0.1011
      5 C5         -0.0515    3.8425    0.0396 C.ar      1 <0>         0.1562
      6 C6          0.9082    3.1637    0.7801 C.ar      1 <0>        -0.0790
      7 N1         -0.0691    5.2402    0.0295 N.pl3     1 <0>        -0.6413
      8 C7          1.1129    5.9458    0.1252 C.ar      1 <0>         0.4740
      9 C8          1.1099    7.3565    0.2335 C.ar      1 <0>        -0.2352
     10 C9         -0.0791    8.0964    0.2485 C.ar      1 <0>        -0.0293
     11 C10        -0.0295    9.4527    0.3540 C.ar      1 <0>        -0.1829
     12 C11         1.1970   10.1202    0.4483 C.ar      1 <0>         0.2612
     13 C12         2.3849    9.4160    0.4452 C.ar      1 <0>        -0.2128
     14 C13         2.3573    8.0219    0.3327 C.ar      1 <0>         0.2337
     15 N2          3.4824    7.2901    0.3102 N.ar      1 <0>        -0.5547
     16 C14         3.4239    5.9838    0.2033 C.ar      1 <0>         0.3522
     17 N3          2.2829    5.3197    0.1126 N.ar      1 <0>        -0.5969
     18 N4          1.2194   11.5090    0.5562 N.pl3     1 <0>        -0.8637
     19 C15        -1.9854    0.9736   -1.4824 C.3       1 <0>         0.5096
     20 F1         -1.7638   -0.3975   -1.3144 F         1 <0>        -0.1750
     21 F2         -3.2719    1.2961   -1.0371 F         1 <0>        -0.1766
     22 F3         -1.8645    1.3031   -2.8367 F         1 <0>        -0.1758
     23 H1          1.6687    1.2546    1.3630 H         1 <0>         0.1402
     24 H2         -0.0017   -0.0041    0.0656 H         1 <0>         0.1403
     25 H3         -1.7403    3.6540   -1.2678 H         1 <0>         0.1353
     26 H4          1.6415    3.7153    1.3496 H         1 <0>         0.1475
     27 H5         -0.9121    5.7141   -0.0448 H         1 <0>         0.4220
     28 H6         -1.0318    7.5928    0.1764 H         1 <0>         0.1274
     29 H7         -0.9480   10.0207    0.3653 H         1 <0>         0.1319
     30 H8          3.3276    9.9379    0.5179 H         1 <0>         0.1379
     31 H9          4.3483    5.4256    0.1882 H         1 <0>         0.1958
     32 H10         0.3878   12.0082    0.5656 H         1 <0>         0.4030
     33 H11         2.0667   11.9768    0.6219 H         1 <0>         0.4047
@<TRIPOS>BOND
     1    1    6 ar
     2    1    2 ar
     3    1   23 1
     4    2    3 ar
     5    2   24 1
     6    3    4 ar
     7    3   19 1
     8    4    5 ar
     9    4   25 1
    10    5    6 ar
    11    5    7 1
    12    6   26 1
    13    7    8 1
    14    7   27 1
    15    8   17 ar
    16    8    9 ar
    17    9   14 ar
    18    9   10 ar
    19   10   11 ar
    20   10   28 1
    21   11   12 ar
    22   11   29 1
    23   12   13 ar
    24   12   18 1
    25   13   14 ar
    26   13   30 1
    27   14   15 ar
    28   15   16 ar
    29   16   17 ar
    30   16   31 1
    31   18   32 1
    32   18   33 1
    33   19   20 1
    34   19   21 1
    35   19   22 1
@<TRIPOS>MOLECULE
ZINC03815130
   50    53     0     0     0
SMALL
USER_CHARGES

@<TRIPOS>ATOM
      1 C1         -0.5284   -0.0684   -0.3144 C.3       1 <0>        -0.0539
      2 C2         -0.9082    2.0224    0.8462 C.3       1 <0>         0.0879
      3 C3         -1.8109    2.5593   -0.2344 C.2       1 <0>        -0.2702
      4 C4         -1.4444    2.9214   -1.4720 C.2       1 <0>         0.1532
      5 N1         -2.5346    3.3593   -2.1777 N.pl3     1 <0>        -0.5911
      6 H1         -2.5153    3.6708   -3.0961 H         1 <0>         0.4335
      7 C5         -3.6621    3.2968   -1.3863 C.ar      1 <0>         0.1468
      8 C6         -3.2563    2.7907   -0.1286 C.ar      1 <0>        -0.0987
      9 C7         -4.1792    2.6118    0.8918 C.ar      1 <0>        -0.0407
     10 C8         -5.5167    2.9359    0.6685 C.ar      1 <0>        -0.1870
     11 C9         -5.9260    3.4441   -0.5931 C.ar      1 <0>         0.2038
     12 C10        -4.9873    3.6194   -1.6116 C.ar      1 <0>        -0.1112
     13 N2         -7.2235    3.7458   -0.7738 N.ar      1 <0>        -0.5462
     14 C11        -8.0886    3.5731    0.1958 C.ar      1 <0>         0.3624
     15 N3         -7.7534    3.1027    1.3873 N.ar      1 <0>        -0.5811
     16 C12        -6.5017    2.7727    1.6752 C.ar      1 <0>         0.4744
     17 N4         -6.1669    2.2843    2.9209 N.pl3     1 <0>        -0.6349
     18 C13        -7.1680    2.0171    3.8590 C.ar      1 <0>         0.1477
     19 C14        -8.3997    1.5274    3.4425 C.ar      1 <0>        -0.0909
     20 C15        -9.3867    1.2639    4.3715 C.ar      1 <0>        -0.0911
     21 C16        -9.1506    1.4864    5.7158 C.ar      1 <0>        -0.0970
     22 C17        -7.9253    1.9740    6.1345 C.ar      1 <0>        -0.0728
     23 C18        -6.9317    2.2352    5.2100 C.ar      1 <0>        -0.1171
     24 Br1        -7.6073    2.2760    7.9740 Br        1 <0>        -0.0376
     25 C19        -0.3606    0.0242    2.0993 C.3       1 <0>         0.0004
     26 C20        -0.7176   -1.4302    2.2674 C.2       1 <0>         0.4507
     27 O1         -1.4603   -1.9650    1.4786 O.2       1 <0>        -0.4924
     28 O2         -0.2106   -2.1315    3.2935 O.3       1 <0>        -0.3360
     29 C21        -0.5977   -3.5274    3.3931 C.3       1 <0>         0.0339
     30 H2         -0.7005   -1.1438   -0.2696 H         1 <0>         0.1305
     31 H3          0.5405    0.1251   -0.4046 H         1 <0>         0.1251
     32 H4         -1.0469    0.3469   -1.1786 H         1 <0>         0.1248
     33 H5         -1.1921    2.4555    1.8054 H         1 <0>         0.1365
     34 H6          0.1252    2.2855    0.6204 H         1 <0>         0.1432
     35 H7         -0.4367    2.8730   -1.8577 H         1 <0>         0.1875
     36 H8         -3.8646    2.2248    1.8498 H         1 <0>         0.1246
     37 H9         -5.2954    4.0052   -2.5721 H         1 <0>         0.1477
     38 H10        -9.1226    3.8267    0.0146 H         1 <0>         0.2031
     39 H11        -5.2367    2.1261    3.1459 H         1 <0>         0.4170
     40 H12        -8.5851    1.3532    2.3928 H         1 <0>         0.1406
     41 H13       -10.3442    0.8832    4.0479 H         1 <0>         0.1400
     42 H14        -9.9241    1.2788    6.4404 H         1 <0>         0.1382
     43 H15        -5.9738    2.6116    5.5375 H         1 <0>         0.1335
     44 H16         0.7182    0.1217    1.9773 H         1 <0>         0.1758
     45 H17        -0.6783    0.5806    2.9810 H         1 <0>         0.1714
     46 H18        -1.6804   -3.5977    3.4970 H         1 <0>         0.0757
     47 H19        -0.2839   -4.0565    2.4932 H         1 <0>         0.0757
     48 H20        -0.1193   -3.9759    4.2637 H         1 <0>         0.1196
     49 N5         -1.0661    0.5543    0.9135 N.4       1 <0>        -0.3896
     50 H21        -2.0649    0.3295    0.9915 H         1 <0>         0.4341
@<TRIPOS>BOND
     1    1   30 1
     2    1   31 1
     3    1   32 1
     4    1   49 1
     5    2    3 1
     6    2   33 1
     7    2   34 1
     8    2   49 1
     9    3    8 1
    10    3    4 2
    11    4    5 1
    12    4   35 1
    13    5    6 1
    14    5    7 1
    15    7   12 ar
    16    7    8 ar
    17    8    9 ar
    18    9   10 ar
    19    9   36 1
    20   10   16 ar
    21   10   11 ar
    22   11   12 ar
    23   11   13 ar
    24   12   37 1
    25   13   14 ar
    26   14   15 ar
    27   14   38 1
    28   15   16 ar
    29   16   17 1
    30   17   18 1
    31   17   39 1
    32   18   23 ar
    33   18   19 ar
    34   19   20 ar
    35   19   40 1
    36   20   21 ar
    37   20   41 1
    38   21   22 ar
    39   21   42 1
    40   22   23 ar
    41   22   24 1
    42   23   43 1
    43   25   26 1
    44   25   44 1
    45   25   45 1
    46   25   49 1
    47   26   27 2
    48   26   28 1
    49   28   29 1
    50   29   46 1
    51   29   47 1
    52   29   48 1
    53   49   50 1
@<TRIPOS>MOLECULE
ZINC03815131
   52    55     0     0     0
SMALL
USER_CHARGES

@<TRIPOS>ATOM
      1 C1          4.4204   -5.4328    5.3332 C.ar      1 <0>        -0.0905
      2 C2          4.2875   -4.4220    4.4013 C.ar      1 <0>        -0.0921
      3 C3          3.5472   -4.6371    3.2459 C.ar      1 <0>         0.1497
      4 C4          2.9378   -5.8672    3.0339 C.ar      1 <0>        -0.1194
      5 C5          3.0789   -6.8761    3.9673 C.ar      1 <0>        -0.0723
      6 C6          3.8173   -6.6580    5.1174 C.ar      1 <0>        -0.0987
      7 Br1         2.2559   -8.5537    3.6770 Br        1 <0>        -0.0388
      8 N1          3.4110   -3.6159    2.3011 N.pl3     1 <0>        -0.6338
      9 C7          4.4457   -2.7284    2.0909 C.ar      1 <0>         0.4749
     10 C8          4.2893   -1.6212    1.2185 C.ar      1 <0>        -0.1873
     11 C9          3.0934   -1.3837    0.5425 C.ar      1 <0>        -0.0347
     12 C10         2.9942   -0.2850   -0.2990 C.ar      1 <0>        -0.0962
     13 C11         4.0927    0.5899   -0.4737 C.ar      1 <0>         0.1488
     14 C12         5.2801    0.3575    0.1949 C.ar      1 <0>        -0.1143
     15 C13         5.3928   -0.7445    1.0445 C.ar      1 <0>         0.2032
     16 N2          6.5308   -1.0038    1.7120 N.ar      1 <0>        -0.5459
     17 C14         6.6152   -2.0435    2.5055 C.ar      1 <0>         0.3604
     18 N3          5.6132   -2.8878    2.6986 N.ar      1 <0>        -0.5824
     19 N4          3.6900    1.5701   -1.3561 N.pl3     1 <0>        -0.5918
     20 H1          4.2426    2.3072   -1.6599 H         1 <0>         0.4324
     21 C15         2.3951    1.3450   -1.7443 C.2       1 <0>         0.1436
     22 C16         1.9162    0.2483   -1.1401 C.2       1 <0>        -0.2630
     23 C17         0.5343   -0.3312   -1.2995 C.3       1 <0>         0.0815
     24 C18        -0.5256    1.5143   -0.1447 C.3       1 <0>        -0.0036
     25 C19        -1.1373    1.9253    1.1961 C.3       1 <0>         0.0461
     26 O1         -0.2149    1.6371    2.2489 O.3       1 <0>        -0.5753
     27 C20        -1.5699   -0.6702   -0.1506 C.3       1 <0>        -0.0080
     28 C21        -1.3161   -2.1304    0.2292 C.3       1 <0>         0.0431
     29 O2         -0.8072   -2.1941    1.5630 O.3       1 <0>        -0.5754
     30 H2          4.9960   -5.2658    6.2316 H         1 <0>         0.1396
     31 H3          4.7590   -3.4652    4.5707 H         1 <0>         0.1434
     32 H4          2.3575   -6.0361    2.1388 H         1 <0>         0.1324
     33 H5          3.9223   -7.4464    5.8480 H         1 <0>         0.1376
     34 H6          2.5889   -3.5315    1.7933 H         1 <0>         0.4165
     35 H7          2.2521   -2.0483    0.6728 H         1 <0>         0.1239
     36 H8          6.1174    1.0263    0.0608 H         1 <0>         0.1468
     37 H9          7.5450   -2.2202    3.0257 H         1 <0>         0.2025
     38 H10         1.8401    1.9631   -2.4345 H         1 <0>         0.1854
     39 H11         0.5991   -1.4183   -1.3441 H         1 <0>         0.1302
     40 H12         0.0868    0.0443   -2.2198 H         1 <0>         0.1375
     41 H13         0.4230    2.0324   -0.2853 H         1 <0>         0.1337
     42 H14        -1.2079    1.7801   -0.9520 H         1 <0>         0.1422
     43 H15        -1.3534    2.9936    1.1847 H         1 <0>         0.0917
     44 H16        -2.0606    1.3696    1.3598 H         1 <0>         0.0695
     45 H17        -0.5373    1.8725    3.1296 H         1 <0>         0.4069
     46 H18        -2.2472   -0.2187    0.5743 H         1 <0>         0.1350
     47 H19        -2.0180   -0.6255   -1.1433 H         1 <0>         0.1450
     48 H20        -2.2502   -2.6890    0.1696 H         1 <0>         0.0959
     49 H21        -0.5893   -2.5635   -0.4580 H         1 <0>         0.0706
     50 H22        -0.5513   -3.0832    1.8443 H         1 <0>         0.4049
     51 N5         -0.2829    0.0563   -0.1304 N.4       1 <0>        -0.3940
     52 H23         0.2251   -0.1888    0.7276 H         1 <0>         0.4426
@<TRIPOS>BOND
     1    1    6 ar
     2    1    2 ar
     3    1   30 1
     4    2    3 ar
     5    2   31 1
     6    3    4 ar
     7    3    8 1
     8    4    5 ar
     9    4   32 1
    10    5    6 ar
    11    5    7 1
    12    6   33 1
    13    8    9 1
    14    8   34 1
    15    9   18 ar
    16    9   10 ar
    17   10   15 ar
    18   10   11 ar
    19   11   12 ar
    20   11   35 1
    21   12   22 1
    22   12   13 ar
    23   13   14 ar
    24   13   19 1
    25   14   15 ar
    26   14   36 1
    27   15   16 ar
    28   16   17 ar
    29   17   18 ar
    30   17   37 1
    31   19   20 1
    32   19   21 1
    33   21   22 2
    34   21   38 1
    35   22   23 1
    36   23   39 1
    37   23   40 1
    38   23   51 1
    39   24   25 1
    40   24   41 1
    41   24   42 1
    42   24   51 1
    43   25   26 1
    44   25   43 1
    45   25   44 1
    46   26   45 1
    47   27   28 1
    48   27   46 1
    49   27   47 1
    50   27   51 1
    51   28   29 1
    52   28   48 1
    53   28   49 1
    54   29   50 1
    55   51   52 1
@<TRIPOS>MOLECULE
ZINC03815132
   49    52     0     0     0
SMALL
USER_CHARGES

@<TRIPOS>ATOM
      1 C1         -1.9873    0.9754   -1.4832 C.3       1 <0>        -0.1212
      2 C2         -0.9700    1.7492   -0.6848 C.ar      1 <0>        -0.0625
      3 C3         -0.0172    1.0758    0.0579 C.ar      1 <0>        -0.1121
      4 C4          0.9217    1.7819    0.7869 C.ar      1 <0>        -0.0952
      5 C5          0.9074    3.1631    0.7801 C.ar      1 <0>        -0.1038
      6 C6         -0.0515    3.8425    0.0400 C.ar      1 <0>         0.1144
      7 C7         -0.9935    3.1299   -0.6914 C.ar      1 <0>        -0.1312
      8 N1         -0.0691    5.2402    0.0313 N.pl3     1 <0>        -0.6044
      9 C8          1.1117    5.9450    0.1283 C.ar      1 <0>         0.5182
     10 C9          1.1105    7.3549    0.2380 C.ar      1 <0>        -0.2630
     11 C10        -0.0648    8.1096    0.2659 C.ar      1 <0>         0.2668
     12 C11         1.1494   10.0763    0.4673 C.ar      1 <0>         0.4356
     13 C12         2.3634    9.4142    0.4533 C.ar      1 <0>        -0.1946
     14 C13         2.3618    8.0193    0.3391 C.ar      1 <0>         0.3063
     15 N2          3.4849    7.2909    0.3167 N.ar      1 <0>        -0.5584
     16 C14         3.4244    5.9834    0.2078 C.ar      1 <0>         0.4277
     17 N3          2.2834    5.3200    0.1159 N.ar      1 <0>        -0.5791
     18 N4          1.1331   11.4605    0.5800 N.pl3     1 <0>        -0.7077
     19 C15         2.3925   12.2019    0.6822 C.3       1 <0>         0.1129
     20 C16         2.0955   13.6986    0.7948 C.3       1 <0>        -0.1523
     21 C17         3.4108   14.4729    0.9016 C.3       1 <0>         0.1106
     22 N5          3.1264   15.9060    1.0095 N.pl3     1 <0>        -0.4670
     23 C18         3.0104   16.7913   -0.0280 C.2       1 <0>        -0.0595
     24 C19         2.7436   17.9946    0.5146 C.2       1 <0>        -0.0214
     25 N6          2.7071   17.8498    1.8476 N.2       1 <0>        -0.4891
     26 C20         2.9355   16.6014    2.1513 C.2       1 <0>         0.1827
     27 H1         -2.8656    0.7859   -0.8662 H         1 <0>         0.0773
     28 H2         -2.2773    1.5540   -2.3603 H         1 <0>         0.0693
     29 H3         -1.5546    0.0266   -1.8006 H         1 <0>         0.0745
     30 H4         -0.0039   -0.0041    0.0648 H         1 <0>         0.1319
     31 H5          1.6673    1.2530    1.3619 H         1 <0>         0.1346
     32 H6          1.6409    3.7141    1.3501 H         1 <0>         0.1374
     33 H7         -1.7402    3.6551   -1.2683 H         1 <0>         0.1280
     34 H8         -0.9121    5.7142   -0.0430 H         1 <0>         0.4226
     35 H9         -1.0238    7.6181    0.1933 H         1 <0>         0.1967
     36 H10         3.2916    9.9611    0.5283 H         1 <0>         0.1903
     37 H11         4.3482    5.4242    0.1929 H         1 <0>         0.2212
     38 H12         0.2879   11.9363    0.5910 H         1 <0>         0.4180
     39 H13         2.9375   11.8721    1.5667 H         1 <0>         0.0938
     40 H14         2.9961   12.0171   -0.2064 H         1 <0>         0.0931
     41 H15         1.5505   14.0284   -0.0896 H         1 <0>         0.0853
     42 H16         1.4919   13.8834    1.6835 H         1 <0>         0.0860
     43 H17         3.9558   14.1431    1.7861 H         1 <0>         0.1021
     44 H18         4.0144   14.2881    0.0130 H         1 <0>         0.0997
     45 H19         3.1111   16.5674   -1.0797 H         1 <0>         0.1755
     46 H20         2.5910   18.9158   -0.0281 H         1 <0>         0.1726
     47 H21         2.9663   16.1920    3.1502 H         1 <0>         0.2051
     48 N7         -0.0768    9.4626    0.3761 N.ar      1 <0>        -0.5408
     49 H22        -0.9530    9.9975    0.3904 H         1 <0>         0.4730
@<TRIPOS>BOND
     1    1    2 1
     2    1   27 1
     3    1   28 1
     4    1   29 1
     5    2    7 ar
     6    2    3 ar
     7    3    4 ar
     8    3   30 1
     9    4    5 ar
    10    4   31 1
    11    5    6 ar
    12    5   32 1
    13    6    7 ar
    14    6    8 1
    15    7   33 1
    16    8    9 1
    17    8   34 1
    18    9   17 ar
    19    9   10 ar
    20   10   14 ar
    21   10   11 ar
    22   11   35 1
    23   11   48 ar
    24   12   13 ar
    25   12   18 1
    26   12   48 ar
    27   13   14 ar
    28   13   36 1
    29   14   15 ar
    30   15   16 ar
    31   16   17 ar
    32   16   37 1
    33   18   19 1
    34   18   38 1
    35   19   20 1
    36   19   39 1
    37   19   40 1
    38   20   21 1
    39   20   41 1
    40   20   42 1
    41   21   22 1
    42   21   43 1
    43   21   44 1
    44   22   26 1
    45   22   23 1
    46   23   24 2
    47   23   45 1
    48   24   25 1
    49   24   46 1
    50   25   26 2
    51   26   47 1
    52   48   49 1
@<TRIPOS>MOLECULE
ZINC03815132
   50    53     0     0     0
SMALL
USER_CHARGES

@<TRIPOS>ATOM
      1 C1         -1.9873    0.9754   -1.4832 C.3       1 <0>        -0.1226
      2 C2         -0.9700    1.7492   -0.6848 C.ar      1 <0>        -0.0609
      3 C3         -0.0172    1.0758    0.0579 C.ar      1 <0>        -0.1080
      4 C4          0.9217    1.7819    0.7869 C.ar      1 <0>        -0.0950
      5 C5          0.9074    3.1631    0.7801 C.ar      1 <0>        -0.1026
      6 C6         -0.0515    3.8425    0.0400 C.ar      1 <0>         0.1074
      7 C7         -0.9935    3.1299   -0.6914 C.ar      1 <0>        -0.1288
      8 N1         -0.0691    5.2402    0.0313 N.pl3     1 <0>        -0.5976
      9 C8          1.1117    5.9450    0.1283 C.ar      1 <0>         0.5174
     10 C9          1.1105    7.3549    0.2380 C.ar      1 <0>        -0.2614
     11 C10        -0.0648    8.1096    0.2659 C.ar      1 <0>         0.2705
     12 C11         1.1494   10.0763    0.4673 C.ar      1 <0>         0.4315
     13 C12         2.3634    9.4142    0.4533 C.ar      1 <0>        -0.1935
     14 C13         2.3618    8.0193    0.3391 C.ar      1 <0>         0.3085
     15 N2          3.4849    7.2909    0.3167 N.ar      1 <0>        -0.5597
     16 C14         3.4244    5.9834    0.2078 C.ar      1 <0>         0.4329
     17 N3          2.2834    5.3200    0.1159 N.ar      1 <0>        -0.5752
     18 N4          1.1331   11.4605    0.5800 N.pl3     1 <0>        -0.7183
     19 C15         2.3925   12.2019    0.6822 C.3       1 <0>         0.1157
     20 C16         2.0955   13.6986    0.7948 C.3       1 <0>        -0.1575
     21 C17         3.4108   14.4729    0.9016 C.3       1 <0>         0.0979
     22 N5          3.1264   15.9060    1.0095 N.pl3     1 <0>        -0.4164
     23 C18         3.0104   16.7913   -0.0280 C.2       1 <0>         0.0215
     24 C19         2.7436   17.9946    0.5146 C.2       1 <0>         0.0117
     25 C20         2.9355   16.6014    2.1513 C.cat     1 <0>         0.2897
     26 H1         -2.8656    0.7859   -0.8662 H         1 <0>         0.0786
     27 H2         -2.2773    1.5540   -2.3603 H         1 <0>         0.0699
     28 H3         -1.5546    0.0266   -1.8006 H         1 <0>         0.0760
     29 H4         -0.0039   -0.0041    0.0648 H         1 <0>         0.1340
     30 H5          1.6673    1.2530    1.3619 H         1 <0>         0.1360
     31 H6          1.6409    3.7141    1.3501 H         1 <0>         0.1368
     32 H7         -1.7402    3.6551   -1.2683 H         1 <0>         0.1286
     33 H8         -0.9121    5.7142   -0.0430 H         1 <0>         0.4231
     34 H9         -1.0238    7.6181    0.1933 H         1 <0>         0.1983
     35 H10         3.2916    9.9611    0.5283 H         1 <0>         0.1887
     36 H11         4.3482    5.4242    0.1929 H         1 <0>         0.2235
     37 H12         0.2879   11.9363    0.5910 H         1 <0>         0.4171
     38 H13         2.9375   11.8721    1.5667 H         1 <0>         0.0959
     39 H14         2.9961   12.0171   -0.2064 H         1 <0>         0.0960
     40 H15         1.5505   14.0284   -0.0896 H         1 <0>         0.0941
     41 H16         1.4919   13.8834    1.6835 H         1 <0>         0.0920
     42 H17         3.9558   14.1431    1.7861 H         1 <0>         0.1287
     43 H18         4.0144   14.2881    0.0130 H         1 <0>         0.1312
     44 H19         3.1111   16.5674   -1.0797 H         1 <0>         0.2235
     45 H20         2.5910   18.9158   -0.0281 H         1 <0>         0.2256
     46 H21         2.9663   16.1920    3.1502 H         1 <0>         0.2599
     47 N6         -0.0768    9.4626    0.3761 N.ar      1 <0>        -0.5421
     48 H22        -0.9530    9.9975    0.3904 H         1 <0>         0.4728
     49 N7          2.7073   17.8488    1.8467 N.pl3     1 <0>        -0.4804
     50 H23         2.5280   18.6015    2.5216 H         1 <0>         0.4852
@<TRIPOS>BOND
     1    1    2 1
     2    1   26 1
     3    1   27 1
     4    1   28 1
     5    2    7 ar
     6    2    3 ar
     7    3    4 ar
     8    3   29 1
     9    4    5 ar
    10    4   30 1
    11    5    6 ar
    12    5   31 1
    13    6    7 ar
    14    6    8 1
    15    7   32 1
    16    8    9 1
    17    8   33 1
    18    9   17 ar
    19    9   10 ar
    20   10   14 ar
    21   10   11 ar
    22   11   34 1
    23   11   47 ar
    24   12   13 ar
    25   12   18 1
    26   12   47 ar
    27   13   14 ar
    28   13   35 1
    29   14   15 ar
    30   15   16 ar
    31   16   17 ar
    32   16   36 1
    33   18   19 1
    34   18   37 1
    35   19   20 1
    36   19   38 1
    37   19   39 1
    38   20   21 1
    39   20   40 1
    40   20   41 1
    41   21   22 1
    42   21   42 1
    43   21   43 1
    44   22   25 1
    45   22   23 1
    46   23   24 2
    47   23   44 1
    48   24   45 1
    49   24   49 1
    50   25   46 1
    51   25   49 2
    52   47   48 1
    53   49   50 1
@<TRIPOS>MOLECULE
ZINC03815133
   51    55     0     0     0
SMALL
USER_CHARGES

@<TRIPOS>ATOM
      1 C1          4.8791    1.0198   -0.4205 C.ar      1 <0>        -0.0928
      2 C2          3.7001    1.7338   -0.5109 C.ar      1 <0>        -0.0898
      3 C3          3.5982    2.9827    0.0883 C.ar      1 <0>         0.1456
      4 C4          4.6851    3.5125    0.7721 C.ar      1 <0>        -0.1132
      5 C5          5.8601    2.7913    0.8630 C.ar      1 <0>        -0.0728
      6 C6          5.9577    1.5469    0.2651 C.ar      1 <0>        -0.0962
      7 Br1         7.3386    3.5081    1.7991 Br        1 <0>        -0.0369
      8 N1          2.4064    3.7075   -0.0015 N.pl3     1 <0>        -0.6302
      9 C7          1.1958    3.0481    0.0150 C.ar      1 <0>         0.4897
     10 C8         -0.0194    3.7504   -0.1963 C.ar      1 <0>        -0.2185
     11 C9         -0.0398    5.1230   -0.4272 C.ar      1 <0>         0.0362
     12 C10        -1.2577    5.7631   -0.6289 C.ar      1 <0>        -0.1872
     13 C11        -1.6320    7.1528   -0.8902 C.2       1 <0>         0.1170
     14 N2         -2.9271    7.2026   -0.9992 N.2       1 <0>        -0.2459
     15 N3         -3.4782    5.9290   -0.8292 N.pl3     1 <0>        -0.4324
     16 C12        -2.4672    5.0277   -0.6000 C.ar      1 <0>         0.1713
     17 C13        -2.4495    3.6631   -0.3703 C.ar      1 <0>        -0.1587
     18 C14        -1.2330    3.0119   -0.1673 C.ar      1 <0>         0.2339
     19 N4         -1.1736    1.6865    0.0529 N.ar      1 <0>        -0.5627
     20 C15        -0.0204    1.0947    0.2464 C.ar      1 <0>         0.3749
     21 N5          1.1355    1.7411    0.2283 N.ar      1 <0>        -0.5906
     22 C16        -4.9062    5.6070   -0.8865 C.3       1 <0>         0.1287
     23 C17        -5.2932    5.2585   -2.3251 C.3       1 <0>        -0.0278
     24 C18        -7.0170    3.7008   -1.6399 C.3       1 <0>        -0.0466
     25 C19        -8.5242    3.4347   -1.6751 C.3       1 <0>         0.0360
     26 O1         -8.9590    3.3638   -3.0358 O.3       1 <0>        -0.3552
     27 C20        -8.6910    4.5500   -3.7883 C.3       1 <0>         0.0351
     28 C21        -7.1855    4.8275   -3.7745 C.3       1 <0>        -0.0373
     29 H1          4.9585    0.0487   -0.8863 H         1 <0>         0.1394
     30 H2          2.8580    1.3211   -1.0466 H         1 <0>         0.1402
     31 H3          4.6107    4.4855    1.2350 H         1 <0>         0.1361
     32 H4          6.8784    0.9867    0.3339 H         1 <0>         0.1380
     33 H5          2.4310    4.6743   -0.0754 H         1 <0>         0.4229
     34 H6          0.8819    5.6856   -0.4499 H         1 <0>         0.1413
     35 H7         -0.9537    7.9887   -0.9771 H         1 <0>         0.2105
     36 H8         -3.3737    3.1047   -0.3492 H         1 <0>         0.1376
     37 H9         -0.0118    0.0296    0.4247 H         1 <0>         0.2023
     38 H10        -5.1129    4.7555   -0.2382 H         1 <0>         0.1095
     39 H11        -5.4863    6.4673   -0.5524 H         1 <0>         0.1158
     40 H12        -5.0865    6.1100   -2.9734 H         1 <0>         0.1396
     41 H13        -4.7131    4.3983   -2.6591 H         1 <0>         0.1370
     42 H14        -6.4890    2.8658   -2.1004 H         1 <0>         0.1441
     43 H15        -6.6912    3.8125   -0.6057 H         1 <0>         0.1406
     44 H16        -9.0487    4.2439   -1.1671 H         1 <0>         0.0826
     45 H17        -8.7388    2.4904   -1.1748 H         1 <0>         0.1437
     46 H18        -9.2204    5.3917   -3.3418 H         1 <0>         0.0824
     47 H19        -9.0265    4.4131   -4.8164 H         1 <0>         0.1433
     48 H20        -6.9827    5.7615   -4.2985 H         1 <0>         0.1423
     49 H21        -6.6602    4.0104   -4.2691 H         1 <0>         0.1414
     50 N6         -6.7400    4.9551   -2.3707 N.4       1 <0>        -0.3926
     51 H22        -7.2561    5.7225   -1.9248 H         1 <0>         0.4287
@<TRIPOS>BOND
     1    1    6 ar
     2    1    2 ar
     3    1   29 1
     4    2    3 ar
     5    2   30 1
     6    3    4 ar
     7    3    8 1
     8    4    5 ar
     9    4   31 1
    10    5    6 ar
    11    5    7 1
    12    6   32 1
    13    8    9 1
    14    8   33 1
    15    9   21 ar
    16    9   10 ar
    17   10   18 ar
    18   10   11 ar
    19   11   12 ar
    20   11   34 1
    21   12   16 ar
    22   12   13 1
    23   13   14 2
    24   13   35 1
    25   14   15 1
    26   15   16 1
    27   15   22 1
    28   16   17 ar
    29   17   18 ar
    30   17   36 1
    31   18   19 ar
    32   19   20 ar
    33   20   21 ar
    34   20   37 1
    35   22   23 1
    36   22   38 1
    37   22   39 1
    38   23   40 1
    39   23   41 1
    40   23   50 1
    41   24   25 1
    42   24   42 1
    43   24   43 1
    44   24   50 1
    45   25   26 1
    46   25   44 1
    47   25   45 1
    48   26   27 1
    49   27   28 1
    50   27   46 1
    51   27   47 1
    52   28   48 1
    53   28   49 1
    54   28   50 1
    55   50   51 1
@<TRIPOS>MOLECULE
ZINC03815134
   52    56     0     0     0
SMALL
USER_CHARGES

@<TRIPOS>ATOM
      1 C1          6.4550  -11.1352   -2.2728 C.ar      1 <0>        -0.0926
      2 C2          5.9112  -10.1170   -1.5141 C.ar      1 <0>        -0.0907
      3 C3          4.6535  -10.2718   -0.9454 C.ar      1 <0>         0.1490
      4 C4          3.9483  -11.4532   -1.1374 C.ar      1 <0>        -0.1152
      5 C5          4.4956  -12.4660   -1.9013 C.ar      1 <0>        -0.0725
      6 C6          5.7490  -12.3079   -2.4667 C.ar      1 <0>        -0.0981
      7 Br1         3.5346  -14.0725   -2.1686 Br        1 <0>        -0.0386
      8 N1          4.1010   -9.2433   -0.1768 N.pl3     1 <0>        -0.6330
      9 C7          4.3354   -7.9270   -0.5155 C.ar      1 <0>         0.4825
     10 C8          3.8872   -6.8701    0.3171 C.ar      1 <0>        -0.2039
     11 C9          3.1963   -7.1138    1.5032 C.ar      1 <0>        -0.0055
     12 C10         2.7811   -6.0426    2.2811 C.ar      1 <0>        -0.1160
     13 C11         2.0529   -5.9397    3.5511 C.2       1 <0>        -0.1701
     14 C12         1.9362   -4.6342    3.8327 C.2       1 <0>         0.0480
     15 N2          2.5210   -3.8847    2.8455 N.pl3     1 <0>        -0.5040
     16 C13         3.0523   -4.7130    1.8795 C.ar      1 <0>         0.1547
     17 C14         3.7367   -4.4674    0.7038 C.ar      1 <0>        -0.1480
     18 C15         4.1603   -5.5366   -0.0877 C.ar      1 <0>         0.2111
     19 N3          4.8288   -5.3383   -1.2373 N.ar      1 <0>        -0.5596
     20 C16         5.2179   -6.3564   -1.9653 C.ar      1 <0>         0.3631
     21 N4          4.9859   -7.6160   -1.6281 N.ar      1 <0>        -0.5890
     22 C17         2.5785   -2.4210    2.8229 C.3       1 <0>         0.0935
     23 C18         1.4164   -1.8777    1.9890 C.3       1 <0>        -0.0275
     24 C19         0.5235    0.1396    0.9889 C.3       1 <0>        -0.0378
     25 C20         0.5736    1.6689    1.0407 C.3       1 <0>         0.0352
     26 O1          1.9135    2.1054    0.7972 O.3       1 <0>        -0.3548
     27 C21         2.8658    1.5894    1.7312 C.3       1 <0>         0.0364
     28 C22         2.8389    0.0593    1.6865 C.3       1 <0>        -0.0508
     29 H1          7.4331  -11.0152   -2.7147 H         1 <0>         0.1390
     30 H2          6.4634   -9.2012   -1.3635 H         1 <0>         0.1402
     31 H3          2.9720  -11.5784   -0.6929 H         1 <0>         0.1352
     32 H4          6.1765  -13.1024   -3.0603 H         1 <0>         0.1375
     33 H5          3.5526   -9.4554    0.5947 H         1 <0>         0.4225
     34 H6          2.9867   -8.1268    1.8138 H         1 <0>         0.1345
     35 H7          1.6843   -6.7607    4.1482 H         1 <0>         0.1595
     36 H8          1.4496   -4.2315    4.7087 H         1 <0>         0.1774
     37 H9          3.9431   -3.4522    0.3989 H         1 <0>         0.1313
     38 H10         5.7528   -6.1590   -2.8826 H         1 <0>         0.1996
     39 H11         3.5227   -2.1012    2.3821 H         1 <0>         0.1086
     40 H12         2.5049   -2.0388    3.8411 H         1 <0>         0.1131
     41 H13         0.4722   -2.1975    2.4299 H         1 <0>         0.1383
     42 H14         1.4900   -2.2600    0.9709 H         1 <0>         0.1380
     43 H15        -0.4838   -0.1999    1.2302 H         1 <0>         0.1424
     44 H16         0.7928   -0.1998   -0.0112 H         1 <0>         0.1419
     45 H17        -0.0876    2.0807    0.2782 H         1 <0>         0.1434
     46 H18         0.2525    2.0105    2.0247 H         1 <0>         0.0822
     47 H19         2.6114    1.9287    2.7353 H         1 <0>         0.0824
     48 H20         3.8626    1.9438    1.4689 H         1 <0>         0.1435
     49 H21         3.5218   -0.3388    2.4370 H         1 <0>         0.1423
     50 H22         3.1452   -0.2813    0.6974 H         1 <0>         0.1445
     51 N5          1.4675   -0.3996    1.9906 N.4       1 <0>        -0.3919
     52 H23         1.1992   -0.0575    2.9207 H         1 <0>         0.4289
@<TRIPOS>BOND
     1    1    6 ar
     2    1    2 ar
     3    1   29 1
     4    2    3 ar
     5    2   30 1
     6    3    4 ar
     7    3    8 1
     8    4    5 ar
     9    4   31 1
    10    5    6 ar
    11    5    7 1
    12    6   32 1
    13    8    9 1
    14    8   33 1
    15    9   21 ar
    16    9   10 ar
    17   10   18 ar
    18   10   11 ar
    19   11   12 ar
    20   11   34 1
    21   12   16 ar
    22   12   13 1
    23   13   14 2
    24   13   35 1
    25   14   15 1
    26   14   36 1
    27   15   16 1
    28   15   22 1
    29   16   17 ar
    30   17   18 ar
    31   17   37 1
    32   18   19 ar
    33   19   20 ar
    34   20   21 ar
    35   20   38 1
    36   22   23 1
    37   22   39 1
    38   22   40 1
    39   23   41 1
    40   23   42 1
    41   23   51 1
    42   24   25 1
    43   24   43 1
    44   24   44 1
    45   24   51 1
    46   25   26 1
    47   25   45 1
    48   25   46 1
    49   26   27 1
    50   27   28 1
    51   27   47 1
    52   27   48 1
    53   28   49 1
    54   28   50 1
    55   28   51 1
    56   51   52 1
@<TRIPOS>MOLECULE
ZINC03815136
   34    36     0     0     0
SMALL
USER_CHARGES

@<TRIPOS>ATOM
      1 C1          4.7265    4.9972    0.3129 C.3       1 <0>         0.0251
      2 O1          3.5357    5.7703    0.1510 O.3       1 <0>        -0.3156
      3 C2          2.3564    5.0958    0.1606 C.ar      1 <0>         0.1247
      4 C3          2.3569    3.7385    0.3208 C.ar      1 <0>        -0.1727
      5 C4          1.1444    3.0387    0.3314 C.ar      1 <0>         0.1813
      6 C5         -0.0729    3.7472    0.1756 C.ar      1 <0>        -0.1617
      7 C6         -0.0538    5.1377    0.0127 C.ar      1 <0>        -0.1549
      8 C7          1.1534    5.8017    0.0059 C.ar      1 <0>         0.2035
      9 N1          1.1802    7.1911   -0.1569 N.pl3     1 <0>        -0.8674
     10 C8         -1.2815    3.0115    0.1912 C.ar      1 <0>         0.4542
     11 N2         -1.2131    1.6957    0.3459 N.ar      1 <0>        -0.5777
     12 C9         -0.0526    1.0764    0.4929 C.ar      1 <0>         0.3310
     13 N3          1.0982    1.7059    0.4864 N.ar      1 <0>        -0.5372
     14 N4         -2.4992    3.6455    0.0437 N.pl3     1 <0>        -0.6406
     15 C10        -3.6722    2.8918   -0.0547 C.ar      1 <0>         0.1621
     16 C11        -4.8637    3.3879    0.4597 C.ar      1 <0>        -0.1354
     17 C12        -6.0210    2.6411    0.3612 C.ar      1 <0>        -0.0921
     18 C13        -5.9956    1.4004   -0.2491 C.ar      1 <0>        -0.1092
     19 C14        -4.8110    0.9029   -0.7625 C.ar      1 <0>        -0.0702
     20 C15        -3.6503    1.6479   -0.6718 C.ar      1 <0>        -0.0857
     21 Br1        -4.7815   -0.7942   -1.5962 Br        1 <0>        -0.0452
     22 H1          4.6946    4.4768    1.2701 H         1 <0>         0.0614
     23 H2          4.7993    4.2686   -0.4945 H         1 <0>         0.0614
     24 H3          5.5941    5.6566    0.2866 H         1 <0>         0.1053
     25 H4          3.2899    3.2075    0.4392 H         1 <0>         0.1489
     26 H5         -0.9772    5.6849   -0.1071 H         1 <0>         0.1321
     27 H6          0.3511    7.6829   -0.2644 H         1 <0>         0.4017
     28 H7          2.0280    7.6625   -0.1622 H         1 <0>         0.4068
     29 H8         -0.0529    0.0039    0.6194 H         1 <0>         0.1953
     30 H9         -2.5407    4.6140    0.0083 H         1 <0>         0.4215
     31 H10        -4.8846    4.3567    0.9366 H         1 <0>         0.1307
     32 H11        -6.9473    3.0265    0.7610 H         1 <0>         0.1362
     33 H12        -6.9023    0.8187   -0.3254 H         1 <0>         0.1337
     34 H13        -2.7267    1.2613   -1.0766 H         1 <0>         0.1485
@<TRIPOS>BOND
     1    1    2 1
     2    1   22 1
     3    1   23 1
     4    1   24 1
     5    2    3 1
     6    3    8 ar
     7    3    4 ar
     8    4    5 ar
     9    4   25 1
    10    5   13 ar
    11    5    6 ar
    12    6    7 ar
    13    6   10 ar
    14    7    8 ar
    15    7   26 1
    16    8    9 1
    17    9   27 1
    18    9   28 1
    19   10   11 ar
    20   10   14 1
    21   11   12 ar
    22   12   13 ar
    23   12   29 1
    24   14   15 1
    25   14   30 1
    26   15   20 ar
    27   15   16 ar
    28   16   17 ar
    29   16   31 1
    30   17   18 ar
    31   17   32 1
    32   18   19 ar
    33   18   33 1
    34   19   20 ar
    35   19   21 1
    36   20   34 1
@<TRIPOS>MOLECULE
ZINC03815137
   30    32     0     0     0
SMALL
USER_CHARGES

@<TRIPOS>ATOM
      1 C1         -0.1189    1.1747   -0.1053 C.3       1 <0>         0.0414
      2 O1         -0.7779    1.6487    1.0707 O.3       1 <0>        -0.2854
      3 C2         -2.0087    1.1460    1.3311 C.ar      1 <0>         0.4927
      4 N1         -2.5249    0.2544    0.4908 N.ar      1 <0>        -0.5306
      5 C3         -3.7161   -0.2715    0.6887 C.ar      1 <0>         0.2495
      6 C4         -4.4449    0.1324    1.8223 C.ar      1 <0>         0.0512
      7 C5         -3.8588    1.0836    2.6912 C.ar      1 <0>         0.0689
      8 N2         -2.6447    1.5562    2.4105 N.ar      1 <0>        -0.4914
      9 C6         -4.5962    1.4880    3.8323 C.ar      1 <0>         0.4757
     10 N3         -5.7940    0.9533    4.0231 N.ar      1 <0>        -0.5546
     11 C7         -6.2990    0.0663    3.1804 C.ar      1 <0>         0.3408
     12 N4         -5.6612   -0.3445    2.1092 N.ar      1 <0>        -0.5110
     13 N5         -4.0815    2.4118    4.7196 N.pl3     1 <0>        -0.6179
     14 C8         -4.8695    2.8831    5.7731 C.ar      1 <0>         0.1524
     15 C9         -4.2812    3.2205    6.9858 C.ar      1 <0>        -0.1274
     16 C10        -5.0622    3.6859    8.0251 C.ar      1 <0>        -0.0912
     17 C11        -6.4291    3.8165    7.8604 C.ar      1 <0>        -0.1038
     18 C12        -7.0186    3.4820    6.6542 C.ar      1 <0>        -0.0712
     19 C13        -6.2416    3.0206    5.6084 C.ar      1 <0>        -0.0850
     20 Br1        -8.8879    3.6636    6.4338 Br        1 <0>        -0.0423
     21 H1          0.0142    0.0950   -0.0370 H         1 <0>         0.0661
     22 H2          0.8550    1.6558   -0.1950 H         1 <0>         0.1084
     23 H3         -0.7233    1.4116   -0.9809 H         1 <0>         0.0661
     24 H4         -4.1234   -0.9946   -0.0024 H         1 <0>         0.1988
     25 H5         -7.2798   -0.3377    3.3832 H         1 <0>         0.2090
     26 H6         -3.1729    2.7338    4.6118 H         1 <0>         0.4351
     27 H7         -3.2138    3.1185    7.1155 H         1 <0>         0.1339
     28 H8         -4.6050    3.9486    8.9676 H         1 <0>         0.1387
     29 H9         -7.0376    4.1808    8.6749 H         1 <0>         0.1358
     30 H10        -6.7014    2.7638    4.6655 H         1 <0>         0.1473
@<TRIPOS>BOND
     1    1    2 1
     2    1   21 1
     3    1   22 1
     4    1   23 1
     5    2    3 1
     6    3    8 ar
     7    3    4 ar
     8    4    5 ar
     9    5    6 ar
    10    5   24 1
    11    6   12 ar
    12    6    7 ar
    13    7    8 ar
    14    7    9 ar
    15    9   10 ar
    16    9   13 1
    17   10   11 ar
    18   11   12 ar
    19   11   25 1
    20   13   14 1
    21   13   26 1
    22   14   19 ar
    23   14   15 ar
    24   15   16 ar
    25   15   27 1
    26   16   17 ar
    27   16   28 1
    28   17   18 ar
    29   17   29 1
    30   18   19 ar
    31   18   20 1
    32   19   30 1
@<TRIPOS>MOLECULE
ZINC03815138
   30    32     0     0     0
SMALL
USER_CHARGES

@<TRIPOS>ATOM
      1 C1         -1.1382    3.4119    0.3642 C.3       1 <0>         0.0340
      2 O1         -1.1801    1.9941    0.1904 O.3       1 <0>        -0.2914
      3 C2          0.0062    1.3597    0.0176 C.ar      1 <0>         0.2796
      4 C3          0.0324   -0.0318   -0.1583 C.ar      1 <0>         0.1470
      5 N1          1.1710   -0.6639   -0.3321 N.ar      1 <0>        -0.3905
      6 C4          2.3159    0.0250   -0.3420 C.ar      1 <0>         0.2949
      7 C5          2.2890    1.4289   -0.1650 C.ar      1 <0>        -0.0135
      8 N2          1.1264    2.0563    0.0108 N.ar      1 <0>        -0.4674
      9 C6          3.5225    2.1286   -0.1814 C.ar      1 <0>         0.4856
     10 N3          4.6364    1.4324   -0.3616 N.ar      1 <0>        -0.5671
     11 C7          4.6109    0.1196   -0.5229 C.ar      1 <0>         0.3646
     12 N4          3.4999   -0.5785   -0.5165 N.ar      1 <0>        -0.5177
     13 N5          3.5622    3.4976   -0.0147 N.pl3     1 <0>        -0.6193
     14 C8          4.7921    4.1543    0.0821 C.ar      1 <0>         0.1513
     15 C9          4.9335    5.4443   -0.4144 C.ar      1 <0>        -0.1281
     16 C10         6.1498    6.0907   -0.3175 C.ar      1 <0>        -0.0915
     17 C11         7.2272    5.4559    0.2731 C.ar      1 <0>        -0.1031
     18 C12         7.0902    4.1715    0.7690 C.ar      1 <0>        -0.0711
     19 C13         5.8740    3.5211    0.6798 C.ar      1 <0>        -0.0839
     20 Br1         8.5661    3.3083    1.5767 Br        1 <0>        -0.0411
     21 H1         -0.5462    3.6524    1.2472 H         1 <0>         0.0627
     22 H2         -0.6850    3.8724   -0.5136 H         1 <0>         0.0625
     23 H3         -2.1517    3.7924    0.4917 H         1 <0>         0.1066
     24 H4         -0.8926   -0.5891   -0.1504 H         1 <0>         0.1973
     25 H5          5.5463   -0.4007   -0.6662 H         1 <0>         0.2127
     26 H6          2.7366    4.0043    0.0353 H         1 <0>         0.4316
     27 H7          4.0928    5.9409   -0.8761 H         1 <0>         0.1327
     28 H8          6.2598    7.0936   -0.7030 H         1 <0>         0.1387
     29 H9          8.1774    5.9638    0.3476 H         1 <0>         0.1361
     30 H10         5.7661    2.5202    1.0710 H         1 <0>         0.1478
@<TRIPOS>BOND
     1    1    2 1
     2    1   21 1
     3    1   22 1
     4    1   23 1
     5    2    3 1
     6    3    8 ar
     7    3    4 ar
     8    4    5 ar
     9    4   24 1
    10    5    6 ar
    11    6   12 ar
    12    6    7 ar
    13    7    8 ar
    14    7    9 ar
    15    9   10 ar
    16    9   13 1
    17   10   11 ar
    18   11   12 ar
    19   11   25 1
    20   13   14 1
    21   13   26 1
    22   14   19 ar
    23   14   15 ar
    24   15   16 ar
    25   15   27 1
    26   16   17 ar
    27   16   28 1
    28   17   18 ar
    29   17   29 1
    30   18   19 ar
    31   18   20 1
    32   19   30 1
@<TRIPOS>MOLECULE
ZINC03815139
   58    61     0     0     0
SMALL
USER_CHARGES

@<TRIPOS>ATOM
      1 C1        -10.2216   -6.4224   -0.2830 C.3       1 <0>        -0.0476
      2 C2         -8.0835   -6.2065   -1.3995 C.3       1 <0>        -0.0278
      3 C3         -6.6170   -5.8195   -1.1945 C.3       1 <0>        -0.0261
      4 C4         -7.2786   -4.1975    0.4759 C.3       1 <0>        -0.0326
      5 C5         -8.7451   -4.5844    0.2708 C.3       1 <0>        -0.0269
      6 C6         -5.1405   -3.9816   -0.6407 C.3       1 <0>        -0.0028
      7 C7         -5.0914   -2.4643   -0.4498 C.3       1 <0>        -0.1693
      8 C8         -3.6357   -2.0147   -0.3098 C.3       1 <0>         0.1202
      9 N1         -3.5888   -0.5619   -0.1270 N.pl3     1 <0>        -0.7304
     10 C9         -2.3630    0.0818    0.0237 C.ar      1 <0>         0.3806
     11 C10        -1.1975   -0.6654   -0.0016 C.ar      1 <0>        -0.1300
     12 C11         0.0199    0.0007    0.1514 C.ar      1 <0>        -0.0742
     13 C12         0.0114    1.4088    0.3255 C.ar      1 <0>         0.1344
     14 C13        -1.2200    2.0755    0.3424 C.ar      1 <0>         0.2376
     15 N2          1.1832    2.0418    0.4722 N.ar      1 <0>        -0.5194
     16 C14         2.3130    1.3791    0.4558 C.ar      1 <0>         0.3965
     17 N3          2.3968    0.0675    0.2981 N.ar      1 <0>        -0.5376
     18 C15         1.3108   -0.6806    0.1421 C.ar      1 <0>         0.4675
     19 N4          1.3992   -2.0476   -0.0228 N.pl3     1 <0>        -0.6060
     20 C16         2.6510   -2.6575   -0.1435 C.ar      1 <0>         0.1184
     21 C17         2.8501   -3.9416    0.3485 C.ar      1 <0>        -0.1192
     22 C18         4.0878   -4.5418    0.2275 C.ar      1 <0>        -0.0891
     23 C19         5.1289   -3.8668   -0.3832 C.ar      1 <0>        -0.0823
     24 C20         4.9344   -2.5882   -0.8748 C.ar      1 <0>        -0.0732
     25 C21         3.6967   -1.9836   -0.7606 C.ar      1 <0>        -0.0775
     26 Br1         6.3609   -1.6700   -1.7100 Br        1 <0>        -0.0180
     27 H1        -10.2520   -7.4840   -0.5284 H         1 <0>         0.1391
     28 H2        -10.7466   -6.2516    0.6569 H         1 <0>         0.1381
     29 H3        -10.7033   -5.8520   -1.0771 H         1 <0>         0.1342
     30 H4         -8.5152   -5.5906   -2.1885 H         1 <0>         0.1572
     31 H5         -8.1461   -7.2571   -1.6830 H         1 <0>         0.1793
     32 H6         -6.0720   -5.9514   -2.1292 H         1 <0>         0.1773
     33 H7         -6.1778   -6.4538   -0.4245 H         1 <0>         0.1593
     34 H8         -6.8469   -4.8133    1.2648 H         1 <0>         0.1595
     35 H9         -7.2159   -3.1467    0.7589 H         1 <0>         0.1714
     36 H10        -9.1843   -3.9502   -0.4992 H         1 <0>         0.1564
     37 H11        -9.2901   -4.4526    1.2055 H         1 <0>         0.1774
     38 H12        -4.5884   -4.2525   -1.5407 H         1 <0>         0.1500
     39 H13        -4.6904   -4.4712    0.2229 H         1 <0>         0.1480
     40 H14        -5.6435   -2.1934    0.4502 H         1 <0>         0.1016
     41 H15        -5.5415   -1.9747   -1.3133 H         1 <0>         0.1060
     42 H16        -3.0837   -2.2856   -1.2098 H         1 <0>         0.0939
     43 H17        -3.1856   -2.5043    0.5537 H         1 <0>         0.0928
     44 H18        -4.4115   -0.0483   -0.1109 H         1 <0>         0.4181
     45 H19        -1.2293   -1.7366   -0.1359 H         1 <0>         0.1751
     46 H20        -1.2516    3.1470    0.4735 H         1 <0>         0.2242
     47 H21         3.2304    1.9358    0.5779 H         1 <0>         0.2263
     48 H22         0.5925   -2.5854   -0.0548 H         1 <0>         0.4217
     49 H23         2.0377   -4.4696    0.8256 H         1 <0>         0.1321
     50 H24         4.2428   -5.5399    0.6098 H         1 <0>         0.1457
     51 H25         6.0958   -4.3388   -0.4768 H         1 <0>         0.1456
     52 H26         3.5441   -0.9870   -1.1477 H         1 <0>         0.1471
     53 N5         -8.8113   -6.0060   -0.1289 N.4       1 <0>        -0.4065
     54 H27        -8.3722   -6.5789    0.6013 H         1 <0>         0.4415
     55 N6         -6.5506   -4.3982   -0.7950 N.4       1 <0>        -0.4068
     56 H28        -6.9897   -3.8253   -1.5252 H         1 <0>         0.4394
     57 N7         -2.4116    1.4433    0.1898 N.ar      1 <0>        -0.4891
     58 H29        -3.3012    1.9560    0.1983 H         1 <0>         0.4789
@<TRIPOS>BOND
     1    1   27 1
     2    1   28 1
     3    1   29 1
     4    1   53 1
     5    2    3 1
     6    2   30 1
     7    2   31 1
     8    2   53 1
     9    3   32 1
    10    3   33 1
    11    3   55 1
    12    4    5 1
    13    4   34 1
    14    4   35 1
    15    4   55 1
    16    5   36 1
    17    5   37 1
    18    5   53 1
    19    6    7 1
    20    6   38 1
    21    6   39 1
    22    6   55 1
    23    7    8 1
    24    7   40 1
    25    7   41 1
    26    8    9 1
    27    8   42 1
    28    8   43 1
    29    9   10 1
    30    9   44 1
    31   10   11 ar
    32   10   57 ar
    33   11   12 ar
    34   11   45 1
    35   12   18 ar
    36   12   13 ar
    37   13   14 ar
    38   13   15 ar
    39   14   46 1
    40   14   57 ar
    41   15   16 ar
    42   16   17 ar
    43   16   47 1
    44   17   18 ar
    45   18   19 1
    46   19   20 1
    47   19   48 1
    48   20   25 ar
    49   20   21 ar
    50   21   22 ar
    51   21   49 1
    52   22   23 ar
    53   22   50 1
    54   23   24 ar
    55   23   51 1
    56   24   25 ar
    57   24   26 1
    58   25   52 1
    59   53   54 1
    60   55   56 1
    61   57   58 1
@<TRIPOS>MOLECULE
ZINC03815140
   33    35     0     0     0
SMALL
USER_CHARGES

@<TRIPOS>ATOM
      1 C1         -5.6760   -1.8300    0.7256 C.3       1 <0>         0.0877
      2 N1         -4.5739   -0.8704    0.6216 N.pl3     1 <0>        -0.7492
      3 C2         -3.2820   -1.3187    0.3333 C.ar      1 <0>         0.2113
      4 C3         -3.0482   -2.6846    0.1452 C.ar      1 <0>        -0.1310
      5 C4         -1.7998   -3.1494   -0.1367 C.ar      1 <0>        -0.0585
      6 C5         -0.7285   -2.2513   -0.2414 C.ar      1 <0>         0.1394
      7 C6         -0.9572   -0.8670   -0.0469 C.ar      1 <0>        -0.1321
      8 C7         -2.2484   -0.4094    0.2362 C.ar      1 <0>        -0.1791
      9 C8          0.1437    0.0162   -0.1645 C.ar      1 <0>         0.4474
     10 N2          1.3339   -0.4994   -0.4409 N.ar      1 <0>        -0.5721
     11 C9          1.5006   -1.8016   -0.6095 C.ar      1 <0>         0.3216
     12 N3          0.5177   -2.6651   -0.5175 N.ar      1 <0>        -0.5288
     13 N4         -0.0166    1.3761    0.0096 N.pl3     1 <0>        -0.6401
     14 C10         1.0994    2.2177    0.0052 C.ar      1 <0>         0.1623
     15 C11         0.9936    3.5115   -0.4899 C.ar      1 <0>        -0.1359
     16 C12         2.0978    4.3408   -0.4931 C.ar      1 <0>        -0.0918
     17 C13         3.3083    3.8851   -0.0038 C.ar      1 <0>        -0.1094
     18 C14         3.4176    2.5973    0.4901 C.ar      1 <0>        -0.0700
     19 C15         2.3148    1.7642    0.5009 C.ar      1 <0>        -0.0862
     20 Br1         5.0750    1.9793    1.1586 Br        1 <0>        -0.0449
     21 H1         -5.7863   -2.3606   -0.2201 H         1 <0>         0.0555
     22 H2         -5.4618   -2.5446    1.5203 H         1 <0>         0.0555
     23 H3         -6.5999   -1.2987    0.9541 H         1 <0>         0.0770
     24 H4         -4.7408    0.0760    0.7528 H         1 <0>         0.4030
     25 H5         -3.8698   -3.3811    0.2252 H         1 <0>         0.1355
     26 H6         -1.6353   -4.2073   -0.2789 H         1 <0>         0.1440
     27 H7         -2.4338    0.6445    0.3818 H         1 <0>         0.1234
     28 H8          2.4911   -2.1698   -0.8327 H         1 <0>         0.1951
     29 H9         -0.9042    1.7482    0.1310 H         1 <0>         0.4216
     30 H10         0.0487    3.8683   -0.8723 H         1 <0>         0.1305
     31 H11         2.0158    5.3465   -0.8779 H         1 <0>         0.1363
     32 H12         4.1701    4.5360   -0.0068 H         1 <0>         0.1339
     33 H13         2.3991    0.7605    0.8905 H         1 <0>         0.1485
@<TRIPOS>BOND
     1    1    2 1
     2    1   21 1
     3    1   22 1
     4    1   23 1
     5    2    3 1
     6    2   24 1
     7    3    8 ar
     8    3    4 ar
     9    4    5 ar
    10    4   25 1
    11    5    6 ar
    12    5   26 1
    13    6   12 ar
    14    6    7 ar
    15    7    8 ar
    16    7    9 ar
    17    8   27 1
    18    9   10 ar
    19    9   13 1
    20   10   11 ar
    21   11   12 ar
    22   11   28 1
    23   13   14 1
    24   13   29 1
    25   14   19 ar
    26   14   15 ar
    27   15   16 ar
    28   15   30 1
    29   16   17 ar
    30   16   31 1
    31   17   18 ar
    32   17   32 1
    33   18   19 ar
    34   18   20 1
    35   19   33 1
@<TRIPOS>MOLECULE
ZINC03815141
   37    39     0     0     0
SMALL
USER_CHARGES

@<TRIPOS>ATOM
      1 C1         -5.6356    5.3499    8.2610 C.3       1 <0>        -0.1155
      2 C2         -4.3469    4.5687    8.2576 C.ar      1 <0>        -0.0660
      3 C3         -3.7617    4.1961    9.4541 C.ar      1 <0>        -0.1339
      4 C4         -2.5796    3.4789    9.4555 C.ar      1 <0>        -0.0951
      5 C5         -1.9813    3.1284    8.2609 C.ar      1 <0>        -0.1173
      6 C6         -2.5637    3.5051    7.0576 C.ar      1 <0>         0.1511
      7 C7         -3.7518    4.2253    7.0598 C.ar      1 <0>        -0.1458
      8 N1         -1.9589    3.1555    5.8471 N.pl3     1 <0>        -0.6198
      9 C8         -0.5835    3.0744    5.7607 C.ar      1 <0>         0.4677
     10 C9          0.0736    2.5965    4.5459 C.ar      1 <0>         0.0897
     11 C10         1.4886    2.5447    4.5402 C.ar      1 <0>         0.0250
     12 C11         2.1320    2.0865    3.3766 C.ar      1 <0>         0.2494
     13 N2          1.3882    1.7284    2.3502 N.ar      1 <0>        -0.5284
     14 C12         0.0597    1.7918    2.3948 C.ar      1 <0>         0.5563
     15 N3         -0.5958    2.2189    3.4591 N.ar      1 <0>        -0.5445
     16 N4         -0.6630    1.4001    1.2808 N.pl3     1 <0>        -0.5871
     17 C13         0.0359    0.9273    0.0832 C.3       1 <0>         0.0986
     18 C14        -2.1267    1.4585    1.2995 C.3       1 <0>         0.1002
     19 N5          2.1525    2.9316    5.6348 N.ar      1 <0>        -0.5125
     20 C15         1.5114    3.3516    6.6979 C.ar      1 <0>         0.3251
     21 N6          0.1927    3.4277    6.7774 N.ar      1 <0>        -0.5552
     22 H1         -6.4790    4.6595    8.2491 H         1 <0>         0.0721
     23 H2         -5.6839    5.9671    9.1581 H         1 <0>         0.0690
     24 H3         -5.6760    5.9880    7.3783 H         1 <0>         0.0661
     25 H4         -4.2294    4.4657   10.3895 H         1 <0>         0.1235
     26 H5         -2.1255    3.1893   10.3916 H         1 <0>         0.1270
     27 H6         -1.0601    2.5647    8.2626 H         1 <0>         0.1362
     28 H7         -4.2096    4.5159    6.1258 H         1 <0>         0.1239
     29 H8         -2.5056    2.9698    5.0676 H         1 <0>         0.4289
     30 H9          3.2093    2.0294    3.3259 H         1 <0>         0.1926
     31 H10         0.1755   -0.1519    0.1463 H         1 <0>         0.0554
     32 H11         1.0078    1.4159    0.0131 H         1 <0>         0.0823
     33 H12        -0.5555    1.1661   -0.8007 H         1 <0>         0.0728
     34 H13        -2.5235    0.5111    1.6643 H         1 <0>         0.0549
     35 H14        -2.4498    2.2652    1.9576 H         1 <0>         0.0786
     36 H15        -2.4960    1.6428    0.2907 H         1 <0>         0.0733
     37 H16         2.0920    3.6526    7.5574 H         1 <0>         0.2014
@<TRIPOS>BOND
     1    1    2 1
     2    1   22 1
     3    1   23 1
     4    1   24 1
     5    2    7 ar
     6    2    3 ar
     7    3    4 ar
     8    3   25 1
     9    4    5 ar
    10    4   26 1
    11    5    6 ar
    12    5   27 1
    13    6    7 ar
    14    6    8 1
    15    7   28 1
    16    8    9 1
    17    8   29 1
    18    9   21 ar
    19    9   10 ar
    20   10   15 ar
    21   10   11 ar
    22   11   12 ar
    23   11   19 ar
    24   12   13 ar
    25   12   30 1
    26   13   14 ar
    27   14   15 ar
    28   14   16 1
    29   16   17 1
    30   16   18 1
    31   17   31 1
    32   17   32 1
    33   17   33 1
    34   18   34 1
    35   18   35 1
    36   18   36 1
    37   19   20 ar
    38   20   21 ar
    39   20   37 1
@<TRIPOS>MOLECULE
ZINC03815143
   34    36     0     0     0
SMALL
USER_CHARGES

@<TRIPOS>ATOM
      1 C1         -1.9932    0.9752   -1.4767 C.3       1 <0>        -0.1156
      2 C2         -0.9727    1.7492   -0.6826 C.ar      1 <0>        -0.0660
      3 C3         -0.0171    1.0758    0.0566 C.ar      1 <0>        -0.1337
      4 C4          0.9243    1.7820    0.7824 C.ar      1 <0>        -0.0952
      5 C5          0.9100    3.1631    0.7757 C.ar      1 <0>        -0.1173
      6 C6         -0.0515    3.8425    0.0386 C.ar      1 <0>         0.1506
      7 C7         -0.9959    3.1298   -0.6895 C.ar      1 <0>        -0.1455
      8 N1         -0.0691    5.2400    0.0299 N.pl3     1 <0>        -0.6194
      9 C8          1.1134    5.9458    0.1271 C.ar      1 <0>         0.4683
     10 C9          1.1201    7.4028    0.2403 C.ar      1 <0>         0.0891
     11 C10         2.3761    8.0491    0.3409 C.ar      1 <0>         0.0262
     12 C11         2.3947    9.4507    0.4562 C.ar      1 <0>         0.2492
     13 N2          1.2446   10.0925    0.4707 N.ar      1 <0>        -0.5271
     14 C12         0.0841    9.4479    0.3795 C.ar      1 <0>         0.5569
     15 N3          0.0081    8.1338    0.2690 N.ar      1 <0>        -0.5467
     16 N4         -1.0890   10.1829    0.4008 N.pl3     1 <0>        -0.6980
     17 C13        -1.0371   11.6420    0.5219 C.3       1 <0>         0.1026
     18 N5          3.4876    7.3057    0.3172 N.ar      1 <0>        -0.5130
     19 C14         3.4229    6.0012    0.2088 C.ar      1 <0>         0.3264
     20 N6          2.2876    5.3277    0.1158 N.ar      1 <0>        -0.5554
     21 H1         -2.8692    0.7861   -0.8562 H         1 <0>         0.0721
     22 H2         -2.2866    1.5535   -2.3528 H         1 <0>         0.0662
     23 H3         -1.5620    0.0263   -1.7955 H         1 <0>         0.0690
     24 H4         -0.0035   -0.0041    0.0633 H         1 <0>         0.1236
     25 H5          1.6718    1.2531    1.3550 H         1 <0>         0.1271
     26 H6          1.6454    3.7142    1.3431 H         1 <0>         0.1363
     27 H7         -1.7449    3.6550   -1.2637 H         1 <0>         0.1241
     28 H8         -0.9121    5.7139   -0.0444 H         1 <0>         0.4295
     29 H9          3.3289    9.9874    0.5307 H         1 <0>         0.1930
     30 H10        -1.9453    9.7318    0.3355 H         1 <0>         0.4172
     31 H11        -0.5403   11.9117    1.4539 H         1 <0>         0.0621
     32 H12        -0.4816   12.0568   -0.3192 H         1 <0>         0.0621
     33 H13        -2.0507   12.0429    0.5211 H         1 <0>         0.0794
     34 H14         4.3483    5.4446    0.1941 H         1 <0>         0.2017
@<TRIPOS>BOND
     1    1    2 1
     2    1   21 1
     3    1   22 1
     4    1   23 1
     5    2    7 ar
     6    2    3 ar
     7    3    4 ar
     8    3   24 1
     9    4    5 ar
    10    4   25 1
    11    5    6 ar
    12    5   26 1
    13    6    7 ar
    14    6    8 1
    15    7   27 1
    16    8    9 1
    17    8   28 1
    18    9   20 ar
    19    9   10 ar
    20   10   15 ar
    21   10   11 ar
    22   11   12 ar
    23   11   18 ar
    24   12   13 ar
    25   12   29 1
    26   13   14 ar
    27   14   15 ar
    28   14   16 1
    29   16   17 1
    30   16   30 1
    31   17   31 1
    32   17   32 1
    33   17   33 1
    34   18   19 ar
    35   19   20 ar
    36   19   34 1
@<TRIPOS>MOLECULE
ZINC03815144
   31    33     0     0     0
SMALL
USER_CHARGES

@<TRIPOS>ATOM
      1 C1          6.9994    4.0330   -0.2552 C.3       1 <0>         0.0369
      2 O1          7.0335    5.4580   -0.3573 O.3       1 <0>        -0.3011
      3 C2          5.8418    6.1052   -0.3401 C.ar      1 <0>         0.3389
      4 C3          5.8204    7.5019   -0.4373 C.ar      1 <0>        -0.1314
      5 C4          4.6294    8.1669   -0.4214 C.ar      1 <0>        -0.0272
      6 C5          3.4481    7.4111   -0.3060 C.ar      1 <0>         0.1154
      7 C6          3.5412    6.0037   -0.2065 C.ar      1 <0>         0.0347
      8 N1          4.7318    5.4060   -0.2321 N.ar      1 <0>        -0.5167
      9 C7          2.3354    5.2651   -0.0967 C.ar      1 <0>         0.4723
     10 N2          1.1899    5.9314   -0.0836 N.ar      1 <0>        -0.5663
     11 C8          1.1555    7.2510   -0.1749 C.ar      1 <0>         0.3362
     12 N3          2.2380    7.9849   -0.2831 N.ar      1 <0>        -0.5271
     13 N4          2.3548    3.8878   -0.0000 N.pl3     1 <0>        -0.6247
     14 C9          1.1558    3.1697   -0.0085 C.ar      1 <0>         0.1577
     15 C10         0.0738    3.6302   -0.7486 C.ar      1 <0>        -0.0971
     16 C11        -1.1098    2.9189   -0.7548 C.ar      1 <0>        -0.0919
     17 C12        -1.2212    1.7521   -0.0209 C.ar      1 <0>        -0.1049
     18 C13        -0.1441    1.2873    0.7127 C.ar      1 <0>        -0.0704
     19 C14         1.0433    1.9946    0.7230 C.ar      1 <0>        -0.1195
     20 Br1        -0.2993   -0.3127    1.7087 Br        1 <0>        -0.0444
     21 H1          6.5243    3.7473    0.6833 H         1 <0>         0.0609
     22 H2          6.4311    3.6225   -1.0898 H         1 <0>         0.0611
     23 H3          8.0166    3.6424   -0.2812 H         1 <0>         0.1019
     24 H4          6.7457    8.0520   -0.5251 H         1 <0>         0.1587
     25 H5          4.5941    9.2438   -0.4950 H         1 <0>         0.1640
     26 H6          0.1954    7.7453   -0.1595 H         1 <0>         0.2035
     27 H7          3.2006    3.4186    0.0738 H         1 <0>         0.4303
     28 H8          0.1585    4.5435   -1.3187 H         1 <0>         0.1430
     29 H9         -1.9510    3.2767   -1.3299 H         1 <0>         0.1375
     30 H10        -2.1495    1.2001   -0.0240 H         1 <0>         0.1351
     31 H11         1.8824    1.6342    1.2996 H         1 <0>         0.1347
@<TRIPOS>BOND
     1    1    2 1
     2    1   21 1
     3    1   22 1
     4    1   23 1
     5    2    3 1
     6    3    8 ar
     7    3    4 ar
     8    4    5 ar
     9    4   24 1
    10    5    6 ar
    11    5   25 1
    12    6   12 ar
    13    6    7 ar
    14    7    8 ar
    15    7    9 ar
    16    9   10 ar
    17    9   13 1
    18   10   11 ar
    19   11   12 ar
    20   11   26 1
    21   13   14 1
    22   13   27 1
    23   14   19 ar
    24   14   15 ar
    25   15   16 ar
    26   15   28 1
    27   16   17 ar
    28   16   29 1
    29   17   18 ar
    30   17   30 1
    31   18   19 ar
    32   18   20 1
    33   19   31 1
@<TRIPOS>MOLECULE
ZINC03815145
   55    57     0     0     0
SMALL
USER_CHARGES

@<TRIPOS>ATOM
      1 C1          7.9144   -1.0695   -3.3086 C.3       1 <0>        -0.1882
      2 C2          7.7727   -2.0888   -2.1764 C.3       1 <0>        -0.0159
      3 C3          9.3593   -0.8520   -0.8289 C.3       1 <0>        -0.0122
      4 C4         10.3864   -1.9801   -0.7133 C.3       1 <0>        -0.1904
      5 C5          6.9893   -0.3973   -0.6311 C.3       1 <0>        -0.0446
      6 C6          5.6245   -1.0656   -0.4528 C.3       1 <0>         0.0700
      7 H1          5.4072   -1.6856   -1.3225 H         1 <0>         0.1362
      8 C7          4.5451    0.0093   -0.3102 C.3       1 <0>         0.0846
      9 N1          3.2383   -0.6305   -0.1394 N.pl3     1 <0>        -0.7173
     10 C8          2.0950    0.1504    0.0113 C.ar      1 <0>         0.3900
     11 C9          2.2100    1.5302   -0.0020 C.ar      1 <0>        -0.1360
     12 C10         1.0508    2.2930    0.1512 C.ar      1 <0>        -0.0697
     13 C11        -0.1906    1.6253    0.3134 C.ar      1 <0>         0.1291
     14 C12        -0.2042    0.2249    0.3133 C.ar      1 <0>         0.2340
     15 N2         -1.2997    2.3636    0.4545 N.ar      1 <0>        -0.5207
     16 C13        -1.2420    3.6723    0.4533 C.ar      1 <0>         0.3912
     17 N3         -0.1212    4.3612    0.3069 N.ar      1 <0>        -0.5409
     18 C14         1.0490    3.7527    0.1528 C.ar      1 <0>         0.4677
     19 N4          2.2167    4.4716   -0.0001 N.pl3     1 <0>        -0.6070
     20 C15         2.1711    5.8646   -0.1051 C.ar      1 <0>         0.1219
     21 C16         3.2160    6.6347    0.3904 C.ar      1 <0>        -0.1189
     22 C17         3.1685    8.0107    0.2849 C.ar      1 <0>        -0.0892
     23 C18         2.0824    8.6230   -0.3133 C.ar      1 <0>        -0.0846
     24 C19         1.0401    7.8595   -0.8084 C.ar      1 <0>        -0.0734
     25 C20         1.0839    6.4816   -0.7102 C.ar      1 <0>        -0.0785
     26 Br1        -0.4425    8.7017   -1.6261 Br        1 <0>        -0.0224
     27 O1          5.6430   -1.8807    0.7208 O.3       1 <0>        -0.5472
     28 H2          7.2550   -0.2224   -3.1195 H         1 <0>         0.0754
     29 H3          8.9465   -0.7226   -3.3582 H         1 <0>         0.0863
     30 H4          7.6425   -1.5374   -4.2548 H         1 <0>         0.1100
     31 H5          8.5028   -2.8867   -2.3124 H         1 <0>         0.1367
     32 H6          6.7674   -2.5098   -2.1902 H         1 <0>         0.1254
     33 H7          9.5504   -0.2781   -1.7356 H         1 <0>         0.1360
     34 H8          9.4393   -0.1974    0.0390 H         1 <0>         0.1299
     35 H9         10.1349   -2.6148    0.1364 H         1 <0>         0.0813
     36 H10        10.3771   -2.5749   -1.6266 H         1 <0>         0.0823
     37 H11        11.3791   -1.5541   -0.5672 H         1 <0>         0.1109
     38 H12         6.9488    0.2924   -1.4741 H         1 <0>         0.1486
     39 H13         7.2465    0.1511    0.2751 H         1 <0>         0.1404
     40 H14         4.5311    0.6311   -1.2053 H         1 <0>         0.1020
     41 H15         4.7625    0.6294    0.5595 H         1 <0>         0.0966
     42 H16         3.1694   -1.5980   -0.1313 H         1 <0>         0.4238
     43 H17         3.1722    2.0044   -0.1274 H         1 <0>         0.1757
     44 H18        -1.1370   -0.3056    0.4347 H         1 <0>         0.2223
     45 H19        -2.1639    4.2216    0.5744 H         1 <0>         0.2238
     46 H20         3.0693    4.0103   -0.0348 H         1 <0>         0.4232
     47 H21         4.0645    6.1575    0.8581 H         1 <0>         0.1335
     48 H22         3.9808    8.6094    0.6698 H         1 <0>         0.1453
     49 H23         2.0478    9.6994   -0.3945 H         1 <0>         0.1442
     50 H24         0.2720    5.8856   -1.1001 H         1 <0>         0.1481
     51 H25         5.8309   -1.3939    1.5349 H         1 <0>         0.3980
     52 N5          8.0056   -1.4443   -0.8667 N.4       1 <0>        -0.3918
     53 H26         7.9312   -2.1536   -0.1281 H         1 <0>         0.4346
     54 N6          0.9136   -0.5311    0.1655 N.ar      1 <0>        -0.4902
     55 H27         0.8773   -1.5572    0.1689 H         1 <0>         0.4797
@<TRIPOS>BOND
     1    1    2 1
     2    1   28 1
     3    1   29 1
     4    1   30 1
     5    2   31 1
     6    2   32 1
     7    2   52 1
     8    3    4 1
     9    3   33 1
    10    3   34 1
    11    3   52 1
    12    4   35 1
    13    4   36 1
    14    4   37 1
    15    5    6 1
    16    5   38 1
    17    5   39 1
    18    5   52 1
    19    6    7 1
    20    6    8 1
    21    6   27 1
    22    8    9 1
    23    8   40 1
    24    8   41 1
    25    9   10 1
    26    9   42 1
    27   10   11 ar
    28   10   54 ar
    29   11   12 ar
    30   11   43 1
    31   12   18 ar
    32   12   13 ar
    33   13   14 ar
    34   13   15 ar
    35   14   44 1
    36   14   54 ar
    37   15   16 ar
    38   16   17 ar
    39   16   45 1
    40   17   18 ar
    41   18   19 1
    42   19   20 1
    43   19   46 1
    44   20   25 ar
    45   20   21 ar
    46   21   22 ar
    47   21   47 1
    48   22   23 ar
    49   22   48 1
    50   23   24 ar
    51   23   49 1
    52   24   25 ar
    53   24   26 1
    54   25   50 1
    55   27   51 1
    56   52   53 1
    57   54   55 1
@<TRIPOS>MOLECULE
ZINC03815146
   29    31     0     0     0
SMALL
USER_CHARGES

@<TRIPOS>ATOM
      1 C1         -1.4900    6.0226    0.3400 C.ar      1 <0>        -0.0920
      2 C2         -0.2799    5.3628    0.4305 C.ar      1 <0>        -0.1321
      3 C3         -0.1514    4.0771   -0.0792 C.ar      1 <0>         0.1564
      4 C4         -1.2397    3.4606   -0.6834 C.ar      1 <0>        -0.0840
      5 C5         -2.4487    4.1242   -0.7669 C.ar      1 <0>        -0.0710
      6 C6         -2.5731    5.4050   -0.2575 C.ar      1 <0>        -0.1058
      7 Br1        -3.9330    3.2842   -1.5838 Br        1 <0>        -0.0428
      8 N1          1.0722    3.4072    0.0106 N.pl3     1 <0>        -0.6375
      9 C7          1.0985    2.0361    0.1631 C.ar      1 <0>         0.4683
     10 C8          2.3224    1.3257    0.1391 C.ar      1 <0>        -0.2004
     11 C9          3.5515    1.9720   -0.0394 C.ar      1 <0>        -0.0550
     12 C10         4.7017    1.2428   -0.0559 C.ar      1 <0>        -0.1517
     13 C11         4.6722   -0.1455    0.1038 C.ar      1 <0>         0.1569
     14 C12         3.4770   -0.8094    0.2809 C.ar      1 <0>        -0.1392
     15 C13         2.2818   -0.0813    0.3014 C.ar      1 <0>         0.2038
     16 N2          1.0911   -0.6769    0.4704 N.ar      1 <0>        -0.5443
     17 C14        -0.0117    0.0334    0.4845 C.ar      1 <0>         0.3511
     18 N3         -0.0228    1.3484    0.3366 N.ar      1 <0>        -0.5827
     19 O1          5.8339   -0.8483    0.0838 O.3       1 <0>        -0.4943
     20 H1         -1.5902    7.0223    0.7362 H         1 <0>         0.1376
     21 H2          0.5656    5.8461    0.8974 H         1 <0>         0.1320
     22 H3         -1.1419    2.4626   -1.0843 H         1 <0>         0.1482
     23 H4         -3.5180    5.9233   -0.3273 H         1 <0>         0.1351
     24 H5          1.9028    3.9062   -0.0343 H         1 <0>         0.4231
     25 H6          3.5873    3.0442   -0.1638 H         1 <0>         0.1316
     26 H7          5.6486    1.7436   -0.1937 H         1 <0>         0.1398
     27 H8          3.4631   -1.8823    0.4035 H         1 <0>         0.1488
     28 H9         -0.9529   -0.4780    0.6227 H         1 <0>         0.1999
     29 H10         6.2454   -0.9529    0.9526 H         1 <0>         0.4001
@<TRIPOS>BOND
     1    1    6 ar
     2    1    2 ar
     3    1   20 1
     4    2    3 ar
     5    2   21 1
     6    3    4 ar
     7    3    8 1
     8    4    5 ar
     9    4   22 1
    10    5    6 ar
    11    5    7 1
    12    6   23 1
    13    8    9 1
    14    8   24 1
    15    9   18 ar
    16    9   10 ar
    17   10   15 ar
    18   10   11 ar
    19   11   12 ar
    20   11   25 1
    21   12   13 ar
    22   12   26 1
    23   13   14 ar
    24   13   19 1
    25   14   15 ar
    26   14   27 1
    27   15   16 ar
    28   16   17 ar
    29   17   18 ar
    30   17   28 1
    31   19   29 1
@<TRIPOS>MOLECULE
ZINC03815147
   49    53     0     0     0
SMALL
USER_CHARGES

@<TRIPOS>ATOM
      1 C1          4.8804    1.0224   -0.4171 C.ar      1 <0>        -0.0911
      2 C2          3.7010    1.7355   -0.5084 C.ar      1 <0>        -0.0906
      3 C3          3.5979    2.9846    0.0902 C.ar      1 <0>         0.1466
      4 C4          4.6839    3.5153    0.7748 C.ar      1 <0>        -0.1164
      5 C5          5.8592    2.7947    0.8671 C.ar      1 <0>        -0.0726
      6 C6          5.9581    1.5504    0.2693 C.ar      1 <0>        -0.0964
      7 Br1         7.3362    3.5124    1.8047 Br        1 <0>        -0.0368
      8 N1          2.4057    3.7087   -0.0010 N.pl3     1 <0>        -0.6349
      9 C7          1.1949    3.0483    0.0136 C.ar      1 <0>         0.4740
     10 C8         -0.0194    3.7494   -0.1990 C.ar      1 <0>        -0.1864
     11 C9         -0.0411    5.1239   -0.4309 C.ar      1 <0>        -0.0475
     12 C10        -1.2572    5.7606   -0.6334 C.ar      1 <0>        -0.0986
     13 C11        -2.4673    5.0274   -0.6060 C.ar      1 <0>         0.1461
     14 C12        -2.4496    3.6644   -0.3760 C.ar      1 <0>        -0.1094
     15 C13        -1.2326    3.0118   -0.1712 C.ar      1 <0>         0.2036
     16 N2         -1.1738    1.6868    0.0497 N.ar      1 <0>        -0.5458
     17 C14        -0.0207    1.0948    0.2444 C.ar      1 <0>         0.3630
     18 N3          1.1351    1.7412    0.2273 N.ar      1 <0>        -0.5799
     19 N4         -3.4873    5.9261   -0.8369 N.pl3     1 <0>        -0.5917
     20 H1         -4.4302    5.7012   -0.8733 H         1 <0>         0.4336
     21 C15        -2.9712    7.1843   -1.0069 C.2       1 <0>         0.1541
     22 C16        -1.6355    7.1539   -0.8965 C.2       1 <0>        -0.2725
     23 C17        -0.6994    8.3286   -1.0189 C.3       1 <0>         0.0884
     24 C18         0.7782    7.1789   -2.5557 C.3       1 <0>        -0.0488
     25 C19         1.3316    7.1986   -3.9831 C.3       1 <0>         0.0362
     26 O1          2.0114    8.4365   -4.2084 O.3       1 <0>        -0.3561
     27 C20         1.1839    9.5889   -4.0277 C.3       1 <0>         0.0342
     28 C21         0.6291    9.5934   -2.6008 C.3       1 <0>        -0.0405
     29 H2          4.9609    0.0513   -0.8828 H         1 <0>         0.1401
     30 H3          2.8595    1.3220   -1.0445 H         1 <0>         0.1405
     31 H4          4.6084    4.4881    1.2376 H         1 <0>         0.1334
     32 H5          6.8792    0.9908    0.3388 H         1 <0>         0.1384
     33 H6          2.4300    4.6756   -0.0745 H         1 <0>         0.4165
     34 H7          0.8797    5.6878   -0.4523 H         1 <0>         0.1251
     35 H8         -3.3740    3.1062   -0.3558 H         1 <0>         0.1481
     36 H9         -0.0124    0.0296    0.4226 H         1 <0>         0.2035
     37 H10        -3.5556    8.0714   -1.2018 H         1 <0>         0.1875
     38 H11        -1.2542    9.2533   -0.8601 H         1 <0>         0.1376
     39 H12         0.0887    8.2446   -0.2706 H         1 <0>         0.1346
     40 H13         1.6033    7.2237   -1.8448 H         1 <0>         0.1354
     41 H14         0.2105    6.2618   -2.3981 H         1 <0>         0.1426
     42 H15         0.5105    7.0997   -4.6931 H         1 <0>         0.0800
     43 H16         2.0287    6.3712   -4.1153 H         1 <0>         0.1389
     44 H17         0.3586    9.5595   -4.7390 H         1 <0>         0.0801
     45 H18         1.7745   10.4903   -4.1914 H         1 <0>         0.1413
     46 H19        -0.0474   10.4389   -2.4760 H         1 <0>         0.1416
     47 H20         1.4513    9.6772   -1.8901 H         1 <0>         0.1399
     48 N5         -0.1206    8.3387   -2.3798 N.4       1 <0>        -0.3940
     49 H21        -0.8816    8.2787   -3.0665 H         1 <0>         0.4252
@<TRIPOS>BOND
     1    1    6 ar
     2    1    2 ar
     3    1   29 1
     4    2    3 ar
     5    2   30 1
     6    3    4 ar
     7    3    8 1
     8    4    5 ar
     9    4   31 1
    10    5    6 ar
    11    5    7 1
    12    6   32 1
    13    8    9 1
    14    8   33 1
    15    9   18 ar
    16    9   10 ar
    17   10   15 ar
    18   10   11 ar
    19   11   12 ar
    20   11   34 1
    21   12   22 1
    22   12   13 ar
    23   13   14 ar
    24   13   19 1
    25   14   15 ar
    26   14   35 1
    27   15   16 ar
    28   16   17 ar
    29   17   18 ar
    30   17   36 1
    31   19   20 1
    32   19   21 1
    33   21   22 2
    34   21   37 1
    35   22   23 1
    36   23   38 1
    37   23   39 1
    38   23   48 1
    39   24   25 1
    40   24   40 1
    41   24   41 1
    42   24   48 1
    43   25   26 1
    44   25   42 1
    45   25   43 1
    46   26   27 1
    47   27   28 1
    48   27   44 1
    49   27   45 1
    50   28   46 1
    51   28   47 1
    52   28   48 1
    53   48   49 1
@<TRIPOS>MOLECULE
ZINC03815149
   58    61     0     0     0
SMALL
USER_CHARGES

@<TRIPOS>ATOM
      1 C1          1.1841  -12.7113    1.0535 C.3       1 <0>        -0.0474
      2 C2          0.0381  -10.7621    1.9206 C.3       1 <0>        -0.0276
      3 C3         -0.3827   -9.3283    1.5896 C.3       1 <0>        -0.0261
      4 C4          1.6020   -9.0595    0.2304 C.3       1 <0>        -0.0327
      5 C5          2.0228  -10.4933    0.5614 C.3       1 <0>        -0.0267
      6 C6          0.4559   -7.1103    1.0976 C.3       1 <0>        -0.0028
      7 C7          1.7226   -6.2521    1.0953 C.3       1 <0>        -0.1688
      8 C8          1.3484   -4.7911    0.8377 C.3       1 <0>         0.1193
      9 N1          2.5612   -3.9694    0.8356 N.pl3     1 <0>        -0.7263
     10 C9          2.4720   -2.6003    0.6204 C.ar      1 <0>         0.4274
     11 C10         1.2299   -2.0292    0.4098 C.ar      1 <0>        -0.1913
     12 C11         1.1580   -0.6486    0.1946 C.ar      1 <0>         0.3094
     13 C12         2.3673    0.0969    0.2036 C.ar      1 <0>        -0.2597
     14 C13         3.5750   -0.5685    0.4254 C.ar      1 <0>         0.2750
     15 C14         2.2915    1.4922   -0.0143 C.ar      1 <0>         0.5194
     16 N2          1.0937    2.0291   -0.2162 N.ar      1 <0>        -0.5727
     17 C15        -0.0056    1.2930   -0.2154 C.ar      1 <0>         0.4386
     18 N3          0.0030   -0.0056   -0.0184 N.ar      1 <0>        -0.5589
     19 N4          3.4280    2.2722   -0.0180 N.pl3     1 <0>        -0.5942
     20 C16         3.3212    3.6627   -0.1146 C.ar      1 <0>         0.1063
     21 C17         2.2594    4.3230    0.4911 C.ar      1 <0>        -0.0803
     22 C18         2.1566    5.6966    0.3945 C.ar      1 <0>        -0.0909
     23 C19         3.1093    6.4157   -0.3040 C.ar      1 <0>        -0.0743
     24 C20         4.1680    5.7616   -0.9086 C.ar      1 <0>        -0.0764
     25 C21         4.2791    4.3874   -0.8114 C.ar      1 <0>        -0.0970
     26 Br1         5.4681    6.7494   -1.8625 Br        1 <0>        -0.0175
     27 H1          0.2766  -13.3047    1.1646 H         1 <0>         0.1389
     28 H2          1.7658  -13.0909    0.2134 H         1 <0>         0.1378
     29 H3          1.7766  -12.7792    1.9659 H         1 <0>         0.1339
     30 H4          0.6427  -10.7634    2.8276 H         1 <0>         0.1568
     31 H5         -0.8498  -11.3753    2.0745 H         1 <0>         0.1790
     32 H6         -0.9418   -8.9108    2.4271 H         1 <0>         0.1776
     33 H7         -1.0098   -9.3299    0.6981 H         1 <0>         0.1595
     34 H8          0.9974   -9.0581   -0.6766 H         1 <0>         0.1596
     35 H9          2.4899   -8.4462    0.0769 H         1 <0>         0.1711
     36 H10         2.6499  -10.4917    1.4529 H         1 <0>         0.1560
     37 H11         2.5818  -10.9107   -0.2761 H         1 <0>         0.1769
     38 H12        -0.2164   -6.7636    1.8823 H         1 <0>         0.1509
     39 H13        -0.0407   -7.0275    0.1308 H         1 <0>         0.1489
     40 H14         2.3949   -6.5988    0.3105 H         1 <0>         0.1002
     41 H15         2.2193   -6.3349    2.0620 H         1 <0>         0.1045
     42 H16         0.6760   -4.4445    1.6225 H         1 <0>         0.0979
     43 H17         0.8517   -4.7083   -0.1290 H         1 <0>         0.0969
     44 H18         3.4266   -4.3816    0.9845 H         1 <0>         0.4167
     45 H19         0.3360   -2.6352    0.4111 H         1 <0>         0.1867
     46 H20         4.5024   -0.0151    0.4350 H         1 <0>         0.2008
     47 H21        -0.9530    1.7815   -0.3890 H         1 <0>         0.2265
     48 H22         4.3019    1.8563    0.0464 H         1 <0>         0.4255
     49 H23         1.5149    3.7624    1.0368 H         1 <0>         0.1407
     50 H24         1.3313    6.2102    0.8653 H         1 <0>         0.1477
     51 H25         3.0268    7.4900   -0.3774 H         1 <0>         0.1470
     52 H26         5.1079    3.8775   -1.2799 H         1 <0>         0.1399
     53 N5          0.8088  -11.3070    0.7833 N.4       1 <0>        -0.4066
     54 H27         0.2258  -11.2740   -0.0613 H         1 <0>         0.4417
     55 N6          0.8311   -8.5147    1.3679 N.4       1 <0>        -0.4066
     56 H28         1.4139   -8.5476    2.2125 H         1 <0>         0.4387
     57 N7          3.6583   -1.9074    0.6355 N.ar      1 <0>        -0.5425
     58 H29         4.5576   -2.3758    0.7966 H         1 <0>         0.4734
@<TRIPOS>BOND
     1    1   27 1
     2    1   28 1
     3    1   29 1
     4    1   53 1
     5    2    3 1
     6    2   30 1
     7    2   31 1
     8    2   53 1
     9    3   32 1
    10    3   33 1
    11    3   55 1
    12    4    5 1
    13    4   34 1
    14    4   35 1
    15    4   55 1
    16    5   36 1
    17    5   37 1
    18    5   53 1
    19    6    7 1
    20    6   38 1
    21    6   39 1
    22    6   55 1
    23    7    8 1
    24    7   40 1
    25    7   41 1
    26    8    9 1
    27    8   42 1
    28    8   43 1
    29    9   10 1
    30    9   44 1
    31   10   11 ar
    32   10   57 ar
    33   11   12 ar
    34   11   45 1
    35   12   18 ar
    36   12   13 ar
    37   13   14 ar
    38   13   15 ar
    39   14   46 1
    40   14   57 ar
    41   15   16 ar
    42   15   19 1
    43   16   17 ar
    44   17   18 ar
    45   17   47 1
    46   19   20 1
    47   19   48 1
    48   20   25 ar
    49   20   21 ar
    50   21   22 ar
    51   21   49 1
    52   22   23 ar
    53   22   50 1
    54   23   24 ar
    55   23   51 1
    56   24   25 ar
    57   24   26 1
    58   25   52 1
    59   53   54 1
    60   55   56 1
    61   57   58 1
@<TRIPOS>MOLECULE
ZINC03815150
   39    42     0     0     0
SMALL
USER_CHARGES

@<TRIPOS>ATOM
      1 C1         -1.9973    4.6229    1.0469 C.ar      1 <0>        -0.0853
      2 C2         -0.8879    3.8208    0.8626 C.ar      1 <0>        -0.1056
      3 C3          0.2545    4.3428    0.2697 C.ar      1 <0>         0.1646
      4 C4          0.2796    5.6723   -0.1317 C.ar      1 <0>        -0.1421
      5 C5         -0.8353    6.4684    0.0505 C.ar      1 <0>        -0.0143
      6 C6         -1.9720    5.9444    0.6419 C.ar      1 <0>        -0.1243
      7 Cl1        -0.8080    8.1285   -0.4565 Cl        1 <0>        -0.0642
      8 N1          1.3787    3.5334    0.0825 N.pl3     1 <0>        -0.6416
      9 C7          1.2240    2.1828   -0.1680 C.ar      1 <0>         0.5112
     10 C8          2.3399    1.3332   -0.2504 C.ar      1 <0>        -0.3408
     11 C9          2.1260   -0.0350   -0.5087 C.ar      1 <0>         0.3981
     12 N2          3.3523   -0.6265   -0.5385 N.pl3     1 <0>        -0.4757
     13 H1          3.5214   -1.5984   -0.7020 H         1 <0>         0.4565
     14 N3          4.3385    0.3378   -0.3047 N.2       1 <0>        -0.2889
     15 C10         3.7839    1.5098   -0.1293 C.2       1 <0>         0.3813
     16 N4          4.4509    2.7095    0.1276 N.pl3     1 <0>        -0.6385
     17 C11         5.8359    2.7104    0.3321 C.ar      1 <0>         0.1008
     18 C12         6.4597    1.5907    0.8669 C.ar      1 <0>        -0.0841
     19 C13         7.8263    1.5897    1.0636 C.ar      1 <0>        -0.1696
     20 C14         8.5757    2.7122    0.7365 C.ar      1 <0>         0.1987
     21 C15         7.9513    3.8340    0.2071 C.ar      1 <0>        -0.1720
     22 C16         6.5853    3.8332    0.0054 C.ar      1 <0>        -0.1017
     23 N5          9.9604    2.7132    0.9409 N.pl3     1 <0>        -0.8804
     24 N6          0.8748   -0.4679   -0.6638 N.ar      1 <0>        -0.5696
     25 C17        -0.1388    0.3651   -0.5775 C.ar      1 <0>         0.3901
     26 N7          0.0154    1.6552   -0.3374 N.ar      1 <0>        -0.5936
     27 H2         -2.8855    4.2172    1.5083 H         1 <0>         0.1379
     28 H3         -0.9089    2.7884    1.1791 H         1 <0>         0.1461
     29 H4          1.1677    6.0823   -0.5894 H         1 <0>         0.1348
     30 H5         -2.8407    6.5694    0.7874 H         1 <0>         0.1354
     31 H6          2.2674    3.9194    0.1284 H         1 <0>         0.4131
     32 H7          3.9547    3.5421    0.1643 H         1 <0>         0.4097
     33 H8          5.8763    0.7192    1.1251 H         1 <0>         0.1363
     34 H9          8.3120    0.7175    1.4757 H         1 <0>         0.1236
     35 H10         8.5341    4.7069   -0.0473 H         1 <0>         0.1247
     36 H11         6.0998    4.7054   -0.4067 H         1 <0>         0.1244
     37 H12        10.4838    3.4973    0.7128 H         1 <0>         0.3979
     38 H13        10.3966    1.9297    1.3107 H         1 <0>         0.3982
     39 H14        -1.1389   -0.0211   -0.7086 H         1 <0>         0.2089
@<TRIPOS>BOND
     1    1    6 ar
     2    1    2 ar
     3    1   27 1
     4    2    3 ar
     5    2   28 1
     6    3    4 ar
     7    3    8 1
     8    4    5 ar
     9    4   29 1
    10    5    6 ar
    11    5    7 1
    12    6   30 1
    13    8    9 1
    14    8   31 1
    15    9   26 ar
    16    9   10 ar
    17   10   15 1
    18   10   11 ar
    19   11   12 1
    20   11   24 ar
    21   12   13 1
    22   12   14 1
    23   14   15 2
    24   15   16 1
    25   16   17 1
    26   16   32 1
    27   17   22 ar
    28   17   18 ar
    29   18   19 ar
    30   18   33 1
    31   19   20 ar
    32   19   34 1
    33   20   21 ar
    34   20   23 1
    35   21   22 ar
    36   21   35 1
    37   22   36 1
    38   23   37 1
    39   23   38 1
    40   24   25 ar
    41   25   26 ar
    42   25   39 1
@<TRIPOS>MOLECULE
ZINC03815150
   39    42     0     0     0
SMALL
USER_CHARGES

@<TRIPOS>ATOM
      1 C1         -1.9973    4.6229    1.0469 C.ar      1 <0>        -0.0853
      2 C2         -0.8879    3.8208    0.8626 C.ar      1 <0>        -0.1056
      3 C3          0.2545    4.3428    0.2697 C.ar      1 <0>         0.1646
      4 C4          0.2796    5.6723   -0.1317 C.ar      1 <0>        -0.1421
      5 C5         -0.8353    6.4684    0.0505 C.ar      1 <0>        -0.0143
      6 C6         -1.9720    5.9444    0.6419 C.ar      1 <0>        -0.1243
      7 Cl1        -0.8080    8.1285   -0.4565 Cl        1 <0>        -0.0642
      8 N1          1.3787    3.5334    0.0825 N.pl3     1 <0>        -0.6416
      9 C7          1.2240    2.1828   -0.1680 C.ar      1 <0>         0.5112
     10 C8          2.3399    1.3332   -0.2504 C.ar      1 <0>        -0.3408
     11 C9          2.1260   -0.0350   -0.5087 C.ar      1 <0>         0.3981
     12 N2          3.3523   -0.6265   -0.5385 N.pl3     1 <0>        -0.4757
     13 H1          3.5214   -1.5984   -0.7020 H         1 <0>         0.4565
     14 N3          4.3385    0.3378   -0.3047 N.2       1 <0>        -0.2889
     15 C10         3.7839    1.5098   -0.1293 C.2       1 <0>         0.3813
     16 N4          4.4509    2.7095    0.1276 N.pl3     1 <0>        -0.6385
     17 C11         5.8359    2.7104    0.3321 C.ar      1 <0>         0.1008
     18 C12         6.4597    1.5907    0.8669 C.ar      1 <0>        -0.0841
     19 C13         7.8263    1.5897    1.0636 C.ar      1 <0>        -0.1696
     20 C14         8.5757    2.7122    0.7365 C.ar      1 <0>         0.1987
     21 C15         7.9513    3.8340    0.2071 C.ar      1 <0>        -0.1720
     22 C16         6.5853    3.8332    0.0054 C.ar      1 <0>        -0.1017
     23 N5          9.9604    2.7132    0.9409 N.pl3     1 <0>        -0.8804
     24 N6          0.8748   -0.4679   -0.6638 N.ar      1 <0>        -0.5696
     25 C17        -0.1388    0.3651   -0.5775 C.ar      1 <0>         0.3901
     26 N7          0.0154    1.6552   -0.3374 N.ar      1 <0>        -0.5936
     27 H2         -2.8855    4.2172    1.5083 H         1 <0>         0.1379
     28 H3         -0.9089    2.7884    1.1791 H         1 <0>         0.1461
     29 H4          1.1677    6.0823   -0.5894 H         1 <0>         0.1348
     30 H5         -2.8407    6.5694    0.7874 H         1 <0>         0.1354
     31 H6          2.2674    3.9194    0.1284 H         1 <0>         0.4131
     32 H7          3.9547    3.5421    0.1643 H         1 <0>         0.4097
     33 H8          5.8763    0.7192    1.1251 H         1 <0>         0.1363
     34 H9          8.3120    0.7175    1.4757 H         1 <0>         0.1236
     35 H10         8.5341    4.7069   -0.0473 H         1 <0>         0.1247
     36 H11         6.0998    4.7054   -0.4067 H         1 <0>         0.1244
     37 H12        10.4838    3.4973    0.7128 H         1 <0>         0.3979
     38 H13        10.3966    1.9297    1.3107 H         1 <0>         0.3982
     39 H14        -1.1389   -0.0211   -0.7086 H         1 <0>         0.2089
@<TRIPOS>BOND
     1    1    6 ar
     2    1    2 ar
     3    1   27 1
     4    2    3 ar
     5    2   28 1
     6    3    4 ar
     7    3    8 1
     8    4    5 ar
     9    4   29 1
    10    5    6 ar
    11    5    7 1
    12    6   30 1
    13    8    9 1
    14    8   31 1
    15    9   26 ar
    16    9   10 ar
    17   10   15 1
    18   10   11 ar
    19   11   12 1
    20   11   24 ar
    21   12   13 1
    22   12   14 1
    23   14   15 2
    24   15   16 1
    25   16   17 1
    26   16   32 1
    27   17   22 ar
    28   17   18 ar
    29   18   19 ar
    30   18   33 1
    31   19   20 ar
    32   19   34 1
    33   20   21 ar
    34   20   23 1
    35   21   22 ar
    36   21   35 1
    37   22   36 1
    38   23   37 1
    39   23   38 1
    40   24   25 ar
    41   25   26 ar
    42   25   39 1
@<TRIPOS>MOLECULE
ZINC03815151
   37    40     0     0     0
SMALL
USER_CHARGES

@<TRIPOS>ATOM
      1 C1          0.7518    2.6630   -2.2981 C.ar      1 <0>        -0.0603
      2 C2          0.2966    3.8729   -1.8131 C.ar      1 <0>        -0.1796
      3 C3          0.3349    4.1345   -0.4442 C.ar      1 <0>         0.0222
      4 C4          0.8280    3.1701    0.4318 C.ar      1 <0>        -0.1641
      5 C5          1.2779    1.9554   -0.0630 C.ar      1 <0>         0.2251
      6 C6          1.2358    1.7035   -1.4295 C.ar      1 <0>        -0.1844
      7 N1          1.7727    0.9849    0.8114 N.pl3     1 <0>        -0.8739
      8 C7         -0.1482    5.4354    0.0778 C.2       1 <0>         0.1722
      9 C8         -1.3868    6.1147   -0.3012 C.ar      1 <0>        -0.3155
     10 C9         -1.4301    7.3087    0.4430 C.ar      1 <0>         0.3808
     11 N2         -0.3023    7.3394    1.2082 N.pl3     1 <0>        -0.4805
     12 H1         -0.0540    8.0720    1.8420 H         1 <0>         0.4569
     13 N3          0.4537    6.1868    0.9691 N.2       1 <0>        -0.2249
     14 N4         -2.4719    8.1241    0.2822 N.ar      1 <0>        -0.5681
     15 C10        -3.4397    7.8195   -0.5545 C.ar      1 <0>         0.3872
     16 N5         -3.4399    6.7106   -1.2723 N.ar      1 <0>        -0.5903
     17 C11        -2.4443    5.8339   -1.1818 C.ar      1 <0>         0.5084
     18 N6         -2.4497    4.6751   -1.9360 N.pl3     1 <0>        -0.6403
     19 C12        -3.4447    4.4709   -2.8963 C.ar      1 <0>         0.1644
     20 C13        -3.9004    3.1860   -3.1641 C.ar      1 <0>        -0.1432
     21 C14        -4.8837    2.9870   -4.1130 C.ar      1 <0>        -0.0849
     22 C15        -5.4157    4.0650   -4.7966 C.ar      1 <0>        -0.1273
     23 C16        -4.9647    5.3464   -4.5325 C.ar      1 <0>        -0.0146
     24 C17        -3.9836    5.5524   -3.5806 C.ar      1 <0>        -0.1062
     25 Cl1        -5.6362    6.6967   -5.3923 Cl        1 <0>        -0.0647
     26 H2          0.7253    2.4641   -3.3593 H         1 <0>         0.1326
     27 H3         -0.0851    4.6186   -2.4947 H         1 <0>         0.1265
     28 H4          0.8601    3.3681    1.4931 H         1 <0>         0.1285
     29 H5          1.5864    0.7570   -1.8137 H         1 <0>         0.1276
     30 H6          2.0871    0.1351    0.4652 H         1 <0>         0.4018
     31 H7          1.8020    1.1608    1.7649 H         1 <0>         0.4011
     32 H8         -4.2686    8.5040   -0.6589 H         1 <0>         0.2091
     33 H9         -1.7631    4.0039   -1.7986 H         1 <0>         0.4267
     34 H10        -3.4857    2.3434   -2.6308 H         1 <0>         0.1307
     35 H11        -5.2381    1.9883   -4.3212 H         1 <0>         0.1370
     36 H12        -6.1849    3.9066   -5.5380 H         1 <0>         0.1345
     37 H13        -3.6344    6.5528   -3.3718 H         1 <0>         0.1492
@<TRIPOS>BOND
     1    1    6 ar
     2    1    2 ar
     3    1   26 1
     4    2    3 ar
     5    2   27 1
     6    3    4 ar
     7    3    8 1
     8    4    5 ar
     9    4   28 1
    10    5    6 ar
    11    5    7 1
    12    6   29 1
    13    7   30 1
    14    7   31 1
    15    8   13 2
    16    8    9 1
    17    9   17 ar
    18    9   10 ar
    19   10   11 1
    20   10   14 ar
    21   11   12 1
    22   11   13 1
    23   14   15 ar
    24   15   16 ar
    25   15   32 1
    26   16   17 ar
    27   17   18 1
    28   18   19 1
    29   18   33 1
    30   19   24 ar
    31   19   20 ar
    32   20   21 ar
    33   20   34 1
    34   21   22 ar
    35   21   35 1
    36   22   23 ar
    37   22   36 1
    38   23   24 ar
    39   23   25 1
    40   24   37 1
@<TRIPOS>MOLECULE
ZINC03815152
   37    40     0     0     0
SMALL
USER_CHARGES

@<TRIPOS>ATOM
      1 C1          0.6439   -9.1144    6.7205 C.ar      1 <0>        -0.0939
      2 C2          0.2571   -8.1807    5.7790 C.ar      1 <0>        -0.0941
      3 C3          0.7516   -8.2567    4.4833 C.ar      1 <0>         0.1718
      4 C4          1.6303   -9.2754    4.1370 C.ar      1 <0>        -0.1242
      5 C5          2.0172  -10.2035    5.0846 C.ar      1 <0>        -0.0705
      6 C6          1.5225  -10.1242    6.3748 C.ar      1 <0>        -0.1117
      7 Br1         3.2178  -11.5874    4.6165 Br        1 <0>        -0.0529
      8 N1          0.3616   -7.3134    3.5283 N.pl3     1 <0>        -0.6443
      9 C7          0.1432   -6.0038    3.9017 C.ar      1 <0>         0.4699
     10 C8         -0.3689   -5.0586    2.9765 C.ar      1 <0>        -0.1987
     11 C9         -0.6709   -5.4095    1.6615 C.ar      1 <0>        -0.0413
     12 C10        -1.1706   -4.4454    0.7978 C.ar      1 <0>        -0.0934
     13 C11        -1.5833   -4.4682   -0.6104 C.2       1 <0>        -0.2309
     14 C12        -1.9927   -3.2297   -0.9200 C.2       1 <0>         0.0958
     15 N2         -1.8703   -2.4065    0.1688 N.pl3     1 <0>        -0.4608
     16 C13        -1.3730   -3.1168    1.2410 C.ar      1 <0>         0.1698
     17 C14        -1.0742   -2.7651    2.5441 C.ar      1 <0>        -0.1193
     18 C15        -0.5713   -3.7259    3.4233 C.ar      1 <0>         0.1829
     19 N3         -0.2693   -3.4227    4.6979 N.ar      1 <0>        -0.5371
     20 C16         0.2014   -4.3402    5.5069 C.ar      1 <0>         0.3272
     21 N4          0.4064   -5.5947    5.1351 N.ar      1 <0>        -0.5972
     22 C17        -2.2216   -0.9844    0.1919 C.3       1 <0>         0.0579
     23 C18        -0.9894   -0.1582   -0.0728 C.2       1 <0>         0.4480
     24 O1          0.0732   -0.7015   -0.2614 O.co2     1 <0>        -0.6161
     25 H1          0.2592   -9.0557    7.7280 H         1 <0>         0.1342
     26 H2         -0.4291   -7.3920    6.0502 H         1 <0>         0.1426
     27 H3          2.0132   -9.3398    3.1292 H         1 <0>         0.1338
     28 H4          1.8233  -10.8530    7.1129 H         1 <0>         0.1311
     29 H5          0.2444   -7.5800    2.6030 H         1 <0>         0.4214
     30 H6         -0.5178   -6.4221    1.3185 H         1 <0>         0.1239
     31 H7         -1.5648   -5.3223   -1.2711 H         1 <0>         0.1486
     32 H8         -2.3623   -2.9244   -1.8878 H         1 <0>         0.1680
     33 H9         -1.2296   -1.7508    2.8809 H         1 <0>         0.1350
     34 H10         0.4326   -4.0603    6.5241 H         1 <0>         0.1900
     35 H11        -2.6288   -0.7266    1.1696 H         1 <0>         0.0932
     36 H12        -2.9671   -0.7817   -0.5770 H         1 <0>         0.0980
     37 O2         -1.0724    1.1813   -0.0990 O.co2     1 <0>        -0.7570
@<TRIPOS>BOND
     1    1    6 ar
     2    1    2 ar
     3    1   25 1
     4    2    3 ar
     5    2   26 1
     6    3    4 ar
     7    3    8 1
     8    4    5 ar
     9    4   27 1
    10    5    6 ar
    11    5    7 1
    12    6   28 1
    13    8    9 1
    14    8   29 1
    15    9   21 ar
    16    9   10 ar
    17   10   18 ar
    18   10   11 ar
    19   11   12 ar
    20   11   30 1
    21   12   16 ar
    22   12   13 1
    23   13   14 2
    24   13   31 1
    25   14   15 1
    26   14   32 1
    27   15   16 1
    28   15   22 1
    29   16   17 ar
    30   17   18 ar
    31   17   33 1
    32   18   19 ar
    33   19   20 ar
    34   20   21 ar
    35   20   34 1
    36   22   23 1
    37   22   35 1
    38   22   36 1
    39   23   24 2
    40   23   37 1
@<TRIPOS>MOLECULE
ZINC03815153
   56    59     0     0     0
SMALL
USER_CHARGES

@<TRIPOS>ATOM
      1 C1          2.1576    5.6966    0.3943 C.ar      1 <0>        -0.0913
      2 C2          2.2602    4.3225    0.4909 C.ar      1 <0>        -0.0815
      3 C3          3.3215    3.6622   -0.1146 C.ar      1 <0>         0.1139
      4 C4          4.2799    4.3869   -0.8116 C.ar      1 <0>        -0.0996
      5 C5          4.1693    5.7608   -0.9084 C.ar      1 <0>        -0.0758
      6 C6          3.1101    6.4152   -0.3040 C.ar      1 <0>        -0.0786
      7 Br1         5.4699    6.7485   -1.8618 Br        1 <0>        -0.0220
      8 N1          3.4281    2.2717   -0.0180 N.pl3     1 <0>        -0.6017
      9 C7          2.2914    1.4919   -0.0148 C.ar      1 <0>         0.5204
     10 C8          2.3670    0.0967    0.2030 C.ar      1 <0>        -0.2622
     11 C9          3.5749   -0.5691    0.4254 C.ar      1 <0>         0.2716
     12 C10         2.4714   -2.6007    0.6198 C.ar      1 <0>         0.4328
     13 C11         1.2297   -2.0296    0.4088 C.ar      1 <0>        -0.1945
     14 C12         1.1579   -0.6486    0.1936 C.ar      1 <0>         0.3081
     15 N2          0.0031   -0.0057   -0.0199 N.ar      1 <0>        -0.5589
     16 C13        -0.0055    1.2929   -0.2168 C.ar      1 <0>         0.4332
     17 N3          1.0938    2.0290   -0.2171 N.ar      1 <0>        -0.5773
     18 N4          2.5604   -3.9699    0.8350 N.pl3     1 <0>        -0.7159
     19 C14         1.3474   -4.7915    0.8366 C.3       1 <0>         0.1119
     20 C15         1.7214   -6.2525    1.0942 C.3       1 <0>        -0.1325
     21 C16         0.4547   -7.1106    1.0959 C.3       1 <0>        -0.1486
     22 C17         0.8287   -8.5716    1.3536 C.3       1 <0>        -0.0041
     23 C18        -1.2521   -9.0564    2.4949 C.3       1 <0>        -0.0425
     24 C19        -2.5318   -9.8938    2.4247 C.3       1 <0>         0.0335
     25 O1         -2.1868  -11.2815    2.4009 O.3       1 <0>        -0.3540
     26 C20        -1.3458  -11.6469    1.3033 C.3       1 <0>         0.0333
     27 C21        -0.0541  -10.8272    1.3622 C.3       1 <0>        -0.0387
     28 H1          1.3324    6.2103    0.8651 H         1 <0>         0.1462
     29 H2          1.5156    3.7620    1.0367 H         1 <0>         0.1413
     30 H3          5.1086    3.8769   -1.2801 H         1 <0>         0.1395
     31 H4          3.0277    7.4896   -0.3777 H         1 <0>         0.1450
     32 H5          4.3020    1.8556    0.0467 H         1 <0>         0.4251
     33 H6          4.5023   -0.0157    0.4358 H         1 <0>         0.1990
     34 H7          0.3358   -2.6356    0.4097 H         1 <0>         0.1878
     35 H8         -0.9528    1.7814   -0.3908 H         1 <0>         0.2238
     36 H9          3.4256   -4.3822    0.9842 H         1 <0>         0.4177
     37 H10         0.6748   -4.4448    1.6211 H         1 <0>         0.0903
     38 H11         0.8511   -4.7086   -0.1303 H         1 <0>         0.0905
     39 H12         2.3940   -6.5992    0.3097 H         1 <0>         0.0888
     40 H13         2.2177   -6.3354    2.0612 H         1 <0>         0.0886
     41 H14        -0.2180   -6.7639    1.8805 H         1 <0>         0.0950
     42 H15        -0.0416   -7.0276    0.1290 H         1 <0>         0.0956
     43 H16         1.5013   -8.9183    0.5691 H         1 <0>         0.1331
     44 H17         1.3249   -8.6545    2.3205 H         1 <0>         0.1339
     45 H18        -0.7275   -9.2707    3.4261 H         1 <0>         0.1412
     46 H19        -1.5074   -7.9974    2.4557 H         1 <0>         0.1397
     47 H20        -3.0834   -9.6403    1.5194 H         1 <0>         0.0821
     48 H21        -3.1502   -9.6874    3.2982 H         1 <0>         0.1432
     49 H22        -1.8629  -11.4443    0.3654 H         1 <0>         0.0826
     50 H23        -1.1065  -12.7084    1.3658 H         1 <0>         0.1444
     51 H24         0.5651  -11.0609    0.4961 H         1 <0>         0.1420
     52 H25         0.4896  -11.0698    2.2752 H         1 <0>         0.1414
     53 N5          3.6579   -1.9077    0.6354 N.ar      1 <0>        -0.5410
     54 H26         4.5572   -2.3762    0.7969 H         1 <0>         0.4738
     55 N6         -0.4022   -9.3913    1.3327 N.4       1 <0>        -0.3970
     56 H27        -0.9218   -9.1911    0.4700 H         1 <0>         0.4276
@<TRIPOS>BOND
     1    1    6 ar
     2    1    2 ar
     3    1   28 1
     4    2    3 ar
     5    2   29 1
     6    3    4 ar
     7    3    8 1
     8    4    5 ar
     9    4   30 1
    10    5    6 ar
    11    5    7 1
    12    6   31 1
    13    8    9 1
    14    8   32 1
    15    9   17 ar
    16    9   10 ar
    17   10   14 ar
    18   10   11 ar
    19   11   33 1
    20   11   53 ar
    21   12   13 ar
    22   12   18 1
    23   12   53 ar
    24   13   14 ar
    25   13   34 1
    26   14   15 ar
    27   15   16 ar
    28   16   17 ar
    29   16   35 1
    30   18   19 1
    31   18   36 1
    32   19   20 1
    33   19   37 1
    34   19   38 1
    35   20   21 1
    36   20   39 1
    37   20   40 1
    38   21   22 1
    39   21   41 1
    40   21   42 1
    41   22   43 1
    42   22   44 1
    43   22   55 1
    44   23   24 1
    45   23   45 1
    46   23   46 1
    47   23   55 1
    48   24   25 1
    49   24   47 1
    50   24   48 1
    51   25   26 1
    52   26   27 1
    53   26   49 1
    54   26   50 1
    55   27   51 1
    56   27   52 1
    57   27   55 1
    58   53   54 1
    59   55   56 1
@<TRIPOS>MOLECULE
ZINC03815154
   54    56     0     0     0
SMALL
USER_CHARGES

@<TRIPOS>ATOM
      1 C1         -1.9876    0.9754   -1.4828 C.3       1 <0>        -0.1225
      2 C2         -0.9700    1.7492   -0.6848 C.ar      1 <0>        -0.0610
      3 C3         -0.0172    1.0758    0.0579 C.ar      1 <0>        -0.1084
      4 C4          0.9217    1.7819    0.7869 C.ar      1 <0>        -0.0950
      5 C5          0.9074    3.1631    0.7801 C.ar      1 <0>        -0.1028
      6 C6         -0.0515    3.8425    0.0400 C.ar      1 <0>         0.1081
      7 C7         -0.9935    3.1299   -0.6914 C.ar      1 <0>        -0.1290
      8 N1         -0.0691    5.2402    0.0313 N.pl3     1 <0>        -0.5982
      9 C8          1.1117    5.9450    0.1283 C.ar      1 <0>         0.5177
     10 C9          1.1105    7.3549    0.2380 C.ar      1 <0>        -0.2621
     11 C10        -0.0649    8.1095    0.2667 C.ar      1 <0>         0.2700
     12 C11         1.1493   10.0761    0.4689 C.ar      1 <0>         0.4323
     13 C12         2.3633    9.4141    0.4546 C.ar      1 <0>        -0.1955
     14 C13         2.3618    8.0193    0.3396 C.ar      1 <0>         0.3082
     15 N2          3.4849    7.2909    0.3171 N.ar      1 <0>        -0.5610
     16 C14         3.4244    5.9834    0.2078 C.ar      1 <0>         0.4319
     17 N3          2.2834    5.3200    0.1159 N.ar      1 <0>        -0.5760
     18 N4          1.1330   11.4602    0.5829 N.pl3     1 <0>        -0.7167
     19 C15         2.3924   12.2016    0.6862 C.3       1 <0>         0.1120
     20 C16         2.0954   13.6981    0.8001 C.3       1 <0>        -0.1327
     21 C17         3.4106   14.4724    0.9079 C.3       1 <0>        -0.1493
     22 C18         3.1136   15.9689    1.0219 C.3       1 <0>        -0.0059
     23 C19         5.1543   16.6039   -0.1159 C.3       1 <0>        -0.0483
     24 C20         4.1324   18.1186    1.4728 C.3       1 <0>        -0.0441
     25 H1         -2.8658    0.7862   -0.8656 H         1 <0>         0.0786
     26 H2         -2.2777    1.5538   -2.3600 H         1 <0>         0.0698
     27 H3         -1.5552    0.0264   -1.8001 H         1 <0>         0.0759
     28 H4         -0.0039   -0.0041    0.0648 H         1 <0>         0.1338
     29 H5          1.6673    1.2530    1.3619 H         1 <0>         0.1358
     30 H6          1.6409    3.7141    1.3501 H         1 <0>         0.1367
     31 H7         -1.7403    3.6551   -1.2683 H         1 <0>         0.1286
     32 H8         -0.9121    5.7142   -0.0430 H         1 <0>         0.4231
     33 H9         -1.0238    7.6180    0.1945 H         1 <0>         0.1981
     34 H10         3.2915    9.9610    0.5300 H         1 <0>         0.1873
     35 H11         4.3482    5.4242    0.1926 H         1 <0>         0.2229
     36 H12         0.2878   11.9360    0.5942 H         1 <0>         0.4172
     37 H13         2.9372   11.8709    1.5704 H         1 <0>         0.0901
     38 H14         2.9962   12.0176   -0.2025 H         1 <0>         0.0898
     39 H15         1.5505   14.0288   -0.0842 H         1 <0>         0.0878
     40 H16         1.4916   13.8821    1.6888 H         1 <0>         0.0881
     41 H17         3.9554   14.1417    1.7922 H         1 <0>         0.0951
     42 H18         4.0144   14.2884    0.0193 H         1 <0>         0.0952
     43 H19         2.5687   16.2996    0.1376 H         1 <0>         0.1327
     44 H20         2.5098   16.1529    1.9105 H         1 <0>         0.1310
     45 H21         4.5754   17.0121   -0.9444 H         1 <0>         0.1245
     46 H22         6.0841   17.1633   -0.0121 H         1 <0>         0.1264
     47 H23         5.3808   15.5560   -0.3125 H         1 <0>         0.1211
     48 H24         3.6159   18.1719    2.4312 H         1 <0>         0.1229
     49 H25         5.0838   18.6458    1.5430 H         1 <0>         0.1264
     50 H26         3.5164   18.5817    0.7019 H         1 <0>         0.1244
     51 N5         -0.0768    9.4624    0.3778 N.ar      1 <0>        -0.5421
     52 H27        -0.9531    9.9973    0.3930 H         1 <0>         0.4731
     53 N6          4.3918   16.7005    1.1466 N.4       1 <0>        -0.3986
     54 H28         4.9443   16.2800    1.9029 H         1 <0>         0.4323
@<TRIPOS>BOND
     1    1    2 1
     2    1   25 1
     3    1   26 1
     4    1   27 1
     5    2    7 ar
     6    2    3 ar
     7    3    4 ar
     8    3   28 1
     9    4    5 ar
    10    4   29 1
    11    5    6 ar
    12    5   30 1
    13    6    7 ar
    14    6    8 1
    15    7   31 1
    16    8    9 1
    17    8   32 1
    18    9   17 ar
    19    9   10 ar
    20   10   14 ar
    21   10   11 ar
    22   11   33 1
    23   11   51 ar
    24   12   13 ar
    25   12   18 1
    26   12   51 ar
    27   13   14 ar
    28   13   34 1
    29   14   15 ar
    30   15   16 ar
    31   16   17 ar
    32   16   35 1
    33   18   19 1
    34   18   36 1
    35   19   20 1
    36   19   37 1
    37   19   38 1
    38   20   21 1
    39   20   39 1
    40   20   40 1
    41   21   22 1
    42   21   41 1
    43   21   42 1
    44   22   43 1
    45   22   44 1
    46   22   53 1
    47   23   45 1
    48   23   46 1
    49   23   47 1
    50   23   53 1
    51   24   48 1
    52   24   49 1
    53   24   50 1
    54   24   53 1
    55   51   52 1
    56   53   54 1
@<TRIPOS>MOLECULE
ZINC03815155
   61    64     0     0     0
SMALL
USER_CHARGES

@<TRIPOS>ATOM
      1 C1         -1.9876    0.9754   -1.4828 C.3       1 <0>        -0.1240
      2 C2         -0.9700    1.7492   -0.6848 C.ar      1 <0>        -0.0595
      3 C3         -0.0172    1.0758    0.0579 C.ar      1 <0>        -0.1038
      4 C4          0.9217    1.7819    0.7869 C.ar      1 <0>        -0.0947
      5 C5          0.9074    3.1631    0.7801 C.ar      1 <0>        -0.1012
      6 C6         -0.0515    3.8425    0.0400 C.ar      1 <0>         0.1003
      7 C7         -0.9935    3.1299   -0.6914 C.ar      1 <0>        -0.1264
      8 N1         -0.0691    5.2402    0.0313 N.pl3     1 <0>        -0.5902
      9 C8          1.1117    5.9450    0.1283 C.ar      1 <0>         0.5161
     10 C9          1.1105    7.3549    0.2380 C.ar      1 <0>        -0.2597
     11 C10        -0.0649    8.1095    0.2667 C.ar      1 <0>         0.2736
     12 C11         1.1493   10.0761    0.4689 C.ar      1 <0>         0.4265
     13 C12         2.3633    9.4141    0.4546 C.ar      1 <0>        -0.1922
     14 C13         2.3618    8.0193    0.3396 C.ar      1 <0>         0.3095
     15 N2          3.4849    7.2909    0.3171 N.ar      1 <0>        -0.5609
     16 C14         3.4244    5.9834    0.2078 C.ar      1 <0>         0.4371
     17 N3          2.2834    5.3200    0.1159 N.ar      1 <0>        -0.5711
     18 N4          1.1330   11.4602    0.5829 N.pl3     1 <0>        -0.7272
     19 C15         2.3924   12.2016    0.6862 C.3       1 <0>         0.1197
     20 C16         2.0954   13.6981    0.8001 C.3       1 <0>        -0.1687
     21 C17         3.4106   14.4724    0.9079 C.3       1 <0>        -0.0028
     22 C18         2.5220   16.4222   -0.2206 C.3       1 <0>        -0.0327
     23 C19         2.1679   17.8999   -0.0381 C.3       1 <0>        -0.0267
     24 C20         3.9858   18.1405    1.5417 C.3       1 <0>        -0.0276
     25 C21         4.3399   16.6627    1.3593 C.3       1 <0>        -0.0261
     26 C22         3.0972   20.0903    0.4132 C.3       1 <0>        -0.0473
     27 H1         -2.8658    0.7862   -0.8656 H         1 <0>         0.0800
     28 H2         -2.2777    1.5538   -2.3600 H         1 <0>         0.0704
     29 H3         -1.5552    0.0264   -1.8001 H         1 <0>         0.0775
     30 H4         -0.0039   -0.0041    0.0648 H         1 <0>         0.1360
     31 H5          1.6673    1.2530    1.3619 H         1 <0>         0.1375
     32 H6          1.6409    3.7141    1.3501 H         1 <0>         0.1361
     33 H7         -1.7403    3.6551   -1.2683 H         1 <0>         0.1292
     34 H8         -0.9121    5.7142   -0.0430 H         1 <0>         0.4236
     35 H9         -1.0238    7.6180    0.1945 H         1 <0>         0.2000
     36 H10         3.2915    9.9610    0.5300 H         1 <0>         0.1861
     37 H11         4.3482    5.4242    0.1926 H         1 <0>         0.2256
     38 H12         0.2878   11.9360    0.5942 H         1 <0>         0.4163
     39 H13         2.9372   11.8709    1.5704 H         1 <0>         0.0975
     40 H14         2.9962   12.0176   -0.2025 H         1 <0>         0.0965
     41 H15         1.5505   14.0288   -0.0842 H         1 <0>         0.1000
     42 H16         1.4916   13.8821    1.6888 H         1 <0>         0.1044
     43 H17         3.9554   14.1417    1.7922 H         1 <0>         0.1509
     44 H18         4.0144   14.2884    0.0193 H         1 <0>         0.1489
     45 H19         3.2311   16.3168   -1.0416 H         1 <0>         0.1596
     46 H20         1.6177   15.8567   -0.4458 H         1 <0>         0.1712
     47 H21         1.4381   18.0026    0.7650 H         1 <0>         0.1560
     48 H22         1.7467   18.2900   -0.9647 H         1 <0>         0.1768
     49 H23         3.2767   18.2458    2.3628 H         1 <0>         0.1568
     50 H24         4.8900   18.7059    1.7673 H         1 <0>         0.1790
     51 H25         4.7611   16.2726    2.2859 H         1 <0>         0.1776
     52 H26         5.0697   16.5601    0.5562 H         1 <0>         0.1595
     53 H27         4.0246   20.6315    0.6003 H         1 <0>         0.1388
     54 H28         2.6513   20.4440   -0.5164 H         1 <0>         0.1377
     55 H29         2.4041   20.2614    1.2369 H         1 <0>         0.1339
     56 N5         -0.0768    9.4624    0.3778 N.ar      1 <0>        -0.5436
     57 H30        -0.9531    9.9973    0.3930 H         1 <0>         0.4727
     58 N6          3.1071   15.9136    1.0380 N.4       1 <0>        -0.4065
     59 H31         2.4293   16.0445    1.7980 H         1 <0>         0.4388
     60 N7          3.4009   18.6491    0.2833 N.4       1 <0>        -0.4066
     61 H32         4.0788   18.5182   -0.4767 H         1 <0>         0.4417
@<TRIPOS>BOND
     1    1    2 1
     2    1   27 1
     3    1   28 1
     4    1   29 1
     5    2    7 ar
     6    2    3 ar
     7    3    4 ar
     8    3   30 1
     9    4    5 ar
    10    4   31 1
    11    5    6 ar
    12    5   32 1
    13    6    7 ar
    14    6    8 1
    15    7   33 1
    16    8    9 1
    17    8   34 1
    18    9   17 ar
    19    9   10 ar
    20   10   14 ar
    21   10   11 ar
    22   11   35 1
    23   11   56 ar
    24   12   13 ar
    25   12   18 1
    26   12   56 ar
    27   13   14 ar
    28   13   36 1
    29   14   15 ar
    30   15   16 ar
    31   16   17 ar
    32   16   37 1
    33   18   19 1
    34   18   38 1
    35   19   20 1
    36   19   39 1
    37   19   40 1
    38   20   21 1
    39   20   41 1
    40   20   42 1
    41   21   43 1
    42   21   44 1
    43   21   58 1
    44   22   23 1
    45   22   45 1
    46   22   46 1
    47   22   58 1
    48   23   47 1
    49   23   48 1
    50   23   60 1
    51   24   25 1
    52   24   49 1
    53   24   50 1
    54   24   60 1
    55   25   51 1
    56   25   52 1
    57   25   58 1
    58   26   53 1
    59   26   54 1
    60   26   55 1
    61   26   60 1
    62   56   57 1
    63   58   59 1
    64   60   61 1
@<TRIPOS>MOLECULE
ZINC03815156
   32    35     0     0     0
SMALL
USER_CHARGES

@<TRIPOS>ATOM
      1 C1         -4.7048    1.4963    0.4458 C.ar      1 <0>        -0.1308
      2 C2         -5.5620    0.4094    0.5239 C.ar      1 <0>        -0.0877
      3 C3         -5.0688   -0.8768    0.4758 C.ar      1 <0>        -0.1241
      4 C4         -3.7011   -1.0942    0.3471 C.ar      1 <0>         0.1311
      5 C5         -2.8341    0.0070    0.2682 C.ar      1 <0>        -0.0735
      6 C6         -3.3465    1.3015    0.3185 C.ar      1 <0>        -0.0770
      7 C7         -1.4765   -0.5457    0.1457 C.ar      1 <0>        -0.2579
      8 C8         -1.6105   -1.9433    0.1502 C.ar      1 <0>         0.4020
      9 N1         -2.9430   -2.2510    0.2740 N.pl3     1 <0>        -0.5869
     10 H1         -3.3026   -3.1513    0.3058 H         1 <0>         0.4260
     11 N2         -0.5094   -2.6868    0.0466 N.ar      1 <0>        -0.5703
     12 C9          0.6760   -2.1250   -0.0623 C.ar      1 <0>         0.3726
     13 N3          0.8442   -0.8167   -0.0752 N.ar      1 <0>        -0.5828
     14 C10        -0.1966    0.0076    0.0229 C.ar      1 <0>         0.4846
     15 N4         -0.0167    1.3803    0.0096 N.pl3     1 <0>        -0.6441
     16 C11         1.2506    1.9167   -0.2352 C.ar      1 <0>         0.1689
     17 C12         2.1139    1.2860   -1.1226 C.ar      1 <0>        -0.1066
     18 C13         3.3654    1.8180   -1.3627 C.ar      1 <0>        -0.0857
     19 C14         3.7605    2.9775   -0.7210 C.ar      1 <0>        -0.1260
     20 C15         2.9036    3.6087    0.1635 C.ar      1 <0>        -0.0142
     21 C16         1.6473    3.0841    0.4037 C.ar      1 <0>        -0.1420
     22 Cl1         3.4037    5.0644    0.9663 Cl        1 <0>        -0.0654
     23 H2         -5.1031    2.4994    0.4846 H         1 <0>         0.1317
     24 H3         -6.6251    0.5719    0.6232 H         1 <0>         0.1344
     25 H4         -5.7451   -1.7166    0.5370 H         1 <0>         0.1299
     26 H5         -2.6811    2.1500    0.2583 H         1 <0>         0.1195
     27 H6          1.5454   -2.7605   -0.1442 H         1 <0>         0.2074
     28 H7         -0.7709    1.9698    0.1663 H         1 <0>         0.4204
     29 H8          1.8065    0.3802   -1.6240 H         1 <0>         0.1401
     30 H9          4.0363    1.3280   -2.0527 H         1 <0>         0.1369
     31 H10         4.7397    3.3916   -0.9109 H         1 <0>         0.1349
     32 H11         0.9768    3.5793    1.0904 H         1 <0>         0.1346
@<TRIPOS>BOND
     1    1    6 ar
     2    1    2 ar
     3    1   23 1
     4    2    3 ar
     5    2   24 1
     6    3    4 ar
     7    3   25 1
     8    4    9 1
     9    4    5 ar
    10    5    6 ar
    11    5    7 1
    12    6   26 1
    13    7   14 ar
    14    7    8 ar
    15    8    9 1
    16    8   11 ar
    17    9   10 1
    18   11   12 ar
    19   12   13 ar
    20   12   27 1
    21   13   14 ar
    22   14   15 1
    23   15   16 1
    24   15   28 1
    25   16   21 ar
    26   16   17 ar
    27   17   18 ar
    28   17   29 1
    29   18   19 ar
    30   18   30 1
    31   19   20 ar
    32   19   31 1
    33   20   21 ar
    34   20   22 1
    35   21   32 1
@<TRIPOS>MOLECULE
ZINC03815157
   46    49     0     0     0
SMALL
USER_CHARGES

@<TRIPOS>ATOM
      1 C1          0.6581    5.2570   -1.6094 C.3       1 <0>        -0.0435
      2 C2          1.3481    3.4024   -0.2133 C.3       1 <0>         0.0078
      3 C3          1.3960    1.8752   -0.1239 C.3       1 <0>        -0.0113
      4 N1          0.0267    1.3423   -0.1525 N.pl3     1 <0>        -0.4790
      5 C4         -0.6632    1.7366   -1.3886 C.3       1 <0>         0.0185
      6 C5         -0.7111    3.2638   -1.4780 C.3       1 <0>        -0.0006
      7 C6          0.0268   -0.0422   -0.0008 C.ar      1 <0>         0.2613
      8 C7         -1.1783   -0.7242   -0.0026 C.ar      1 <0>        -0.0494
      9 C8         -1.1543   -2.1117    0.1504 C.ar      1 <0>        -0.1059
     10 C9          0.0981   -2.7613    0.3006 C.ar      1 <0>         0.1636
     11 C10         1.2629   -1.9840    0.2894 C.ar      1 <0>         0.2312
     12 N2          0.1139   -4.0931    0.4465 N.ar      1 <0>        -0.5233
     13 C11        -0.9996   -4.7831    0.4510 C.ar      1 <0>         0.4079
     14 N3         -2.2015   -4.2451    0.3166 N.ar      1 <0>        -0.5394
     15 C12        -2.3593   -2.9354    0.1636 C.ar      1 <0>         0.4774
     16 N4         -3.6125   -2.3755    0.0236 N.pl3     1 <0>        -0.5984
     17 C13        -4.7383   -3.1979   -0.0761 C.ar      1 <0>         0.1133
     18 C14        -5.9572   -2.7751    0.4398 C.ar      1 <0>        -0.1130
     19 C15        -7.0678   -3.5895    0.3394 C.ar      1 <0>        -0.0883
     20 C16        -6.9683   -4.8250   -0.2738 C.ar      1 <0>        -0.0798
     21 C17        -5.7564   -5.2493   -0.7891 C.ar      1 <0>        -0.0753
     22 C18        -4.6422   -4.4368   -0.6961 C.ar      1 <0>        -0.0762
     23 Br1        -5.6259   -6.9394   -1.6271 Br        1 <0>        -0.0208
     24 H1          1.6858    5.6178   -1.6524 H         1 <0>         0.1301
     25 H2          0.1413    5.5214   -2.5320 H         1 <0>         0.1308
     26 H3          0.1472    5.7152   -0.7626 H         1 <0>         0.1303
     27 H4          0.8093    3.8002    0.6466 H         1 <0>         0.1521
     28 H5          2.3636    3.7982   -0.2211 H         1 <0>         0.1541
     29 H6          1.8816    1.5804    0.8063 H         1 <0>         0.1389
     30 H7          1.9582    1.4786   -0.9693 H         1 <0>         0.0874
     31 H8         -0.1244    1.3387   -2.2486 H         1 <0>         0.0891
     32 H9         -1.6787    1.3408   -1.3804 H         1 <0>         0.1415
     33 H10        -1.2732    3.6601   -0.6324 H         1 <0>         0.1506
     34 H11        -1.1969    3.5589   -2.4081 H         1 <0>         0.1538
     35 H12        -2.1131   -0.1962   -0.1197 H         1 <0>         0.1861
     36 H13         2.2277   -2.4561    0.4021 H         1 <0>         0.2248
     37 H14        -0.9331   -5.8543    0.5718 H         1 <0>         0.2287
     38 H15        -3.7123   -1.4111   -0.0056 H         1 <0>         0.4267
     39 H16        -6.0358   -1.8105    0.9191 H         1 <0>         0.1367
     40 H17        -8.0154   -3.2609    0.7400 H         1 <0>         0.1477
     41 H18        -7.8386   -5.4600   -0.3509 H         1 <0>         0.1458
     42 H19        -3.6971   -4.7666   -1.1017 H         1 <0>         0.1463
     43 N5          0.6721    3.7851   -1.4707 N.4       1 <0>        -0.4026
     44 H20         1.1856    3.3802   -2.2623 H         1 <0>         0.4306
     45 N6          1.2570   -0.6352    0.1359 N.ar      1 <0>        -0.4810
     46 H21         2.1259   -0.0882    0.1228 H         1 <0>         0.4747
@<TRIPOS>BOND
     1    1   24 1
     2    1   25 1
     3    1   26 1
     4    1   43 1
     5    2    3 1
     6    2   27 1
     7    2   28 1
     8    2   43 1
     9    3    4 1
    10    3   29 1
    11    3   30 1
    12    4    5 1
    13    4    7 1
    14    5    6 1
    15    5   31 1
    16    5   32 1
    17    6   33 1
    18    6   34 1
    19    6   43 1
    20    7    8 ar
    21    7   45 ar
    22    8    9 ar
    23    8   35 1
    24    9   15 ar
    25    9   10 ar
    26   10   11 ar
    27   10   12 ar
    28   11   36 1
    29   11   45 ar
    30   12   13 ar
    31   13   14 ar
    32   13   37 1
    33   14   15 ar
    34   15   16 1
    35   16   17 1
    36   16   38 1
    37   17   22 ar
    38   17   18 ar
    39   18   19 ar
    40   18   39 1
    41   19   20 ar
    42   19   40 1
    43   20   21 ar
    44   20   41 1
    45   21   22 ar
    46   21   23 1
    47   22   42 1
    48   43   44 1
    49   45   46 1
@<TRIPOS>MOLECULE
ZINC03815158
   41    44     0     0     0
SMALL
USER_CHARGES

@<TRIPOS>ATOM
      1 C1          5.9413    3.2594    0.0268 C.3       1 <0>         0.0212
      2 O1          4.7438    4.0386    0.0538 O.3       1 <0>        -0.2993
      3 C2          3.5655    3.3599    0.0503 C.ar      1 <0>         0.1128
      4 C3          3.5727    1.9942    0.0218 C.ar      1 <0>        -0.1501
      5 C4          2.3601    1.2945    0.0177 C.ar      1 <0>        -0.1803
      6 C5          1.1343    2.0049    0.0427 C.ar      1 <0>         0.2025
      7 C6          1.1505    3.4046    0.0722 C.ar      1 <0>        -0.1828
      8 C7          2.3568    4.0695    0.0755 C.ar      1 <0>         0.1643
      9 O2          2.3754    5.4275    0.1041 O.3       1 <0>        -0.2968
     10 C8          1.1111    6.0933    0.1288 C.3       1 <0>         0.0198
     11 N1         -0.0139    1.3097    0.0387 N.ar      1 <0>        -0.5389
     12 C9          0.0028   -0.0017    0.0121 C.ar      1 <0>         0.3439
     13 N2          1.1224   -0.7070   -0.0124 N.ar      1 <0>        -0.5801
     14 C10         2.3119   -0.1196   -0.0109 C.ar      1 <0>         0.4610
     15 N3          3.4718   -0.8678   -0.0362 N.pl3     1 <0>        -0.6260
     16 C11         3.4074   -2.2577    0.0622 C.ar      1 <0>         0.1112
     17 C12         2.3318   -2.8737    0.6684 C.ar      1 <0>         0.0754
     18 N4          2.2515   -4.1925    0.7649 N.ar      1 <0>        -0.4618
     19 C13         3.1817   -4.9981    0.3086 C.ar      1 <0>         0.1204
     20 C14         4.3224   -4.4751   -0.3213 C.ar      1 <0>        -0.0935
     21 C15         4.4446   -3.0677   -0.4511 C.ar      1 <0>        -0.0416
     22 C16         5.5750   -2.5257   -1.0758 C.ar      1 <0>        -0.1197
     23 C17         6.5431   -3.3588   -1.5510 C.ar      1 <0>        -0.0927
     24 C18         6.4255   -4.7415   -1.4243 C.ar      1 <0>        -0.1191
     25 C19         5.3402   -5.3024   -0.8227 C.ar      1 <0>        -0.0817
     26 H1          5.9736    2.6122    0.9032 H         1 <0>         0.0575
     27 H2          5.9575    2.6493   -0.8763 H         1 <0>         0.0569
     28 H3          6.8065    3.9225    0.0328 H         1 <0>         0.1077
     29 H4          4.5093    1.4568    0.0029 H         1 <0>         0.1377
     30 H5          0.2238    3.9590    0.0913 H         1 <0>         0.1572
     31 H6          0.5427    5.8268   -0.7622 H         1 <0>         0.0625
     32 H7          0.5577    5.7892    1.0173 H         1 <0>         0.0627
     33 H8          1.2687    7.1716    0.1503 H         1 <0>         0.1077
     34 H9         -0.9394   -0.5296    0.0096 H         1 <0>         0.2007
     35 H10         4.3315   -0.4270   -0.1224 H         1 <0>         0.4188
     36 H11         1.5338   -2.2664    1.0693 H         1 <0>         0.1806
     37 H12         3.0693   -6.0667    0.4176 H         1 <0>         0.1650
     38 H13         5.6788   -1.4558   -1.1797 H         1 <0>         0.1212
     39 H14         7.4148   -2.9410   -2.0327 H         1 <0>         0.1285
     40 H15         7.2076   -5.3787   -1.8099 H         1 <0>         0.1297
     41 H16         5.2627   -6.3758   -0.7321 H         1 <0>         0.1376
@<TRIPOS>BOND
     1    1    2 1
     2    1   26 1
     3    1   27 1
     4    1   28 1
     5    2    3 1
     6    3    8 ar
     7    3    4 ar
     8    4    5 ar
     9    4   29 1
    10    5   14 ar
    11    5    6 ar
    12    6    7 ar
    13    6   11 ar
    14    7    8 ar
    15    7   30 1
    16    8    9 1
    17    9   10 1
    18   10   31 1
    19   10   32 1
    20   10   33 1
    21   11   12 ar
    22   12   13 ar
    23   12   34 1
    24   13   14 ar
    25   14   15 1
    26   15   16 1
    27   15   35 1
    28   16   21 ar
    29   16   17 ar
    30   17   18 ar
    31   17   36 1
    32   18   19 ar
    33   19   20 ar
    34   19   37 1
    35   20   25 ar
    36   20   21 ar
    37   21   22 ar
    38   22   23 ar
    39   22   38 1
    40   23   24 ar
    41   23   39 1
    42   24   25 ar
    43   24   40 1
    44   25   41 1
@<TRIPOS>MOLECULE
ZINC03815159
   30    32     0     0     0
SMALL
USER_CHARGES

@<TRIPOS>ATOM
      1 C1         -6.0209    2.6413    0.3627 C.ar      1 <0>        -0.0919
      2 C2         -4.8630    3.3880    0.4613 C.ar      1 <0>        -0.1340
      3 C3         -3.6721    2.8918   -0.0534 C.ar      1 <0>         0.1597
      4 C4         -3.6507    1.6477   -0.6711 C.ar      1 <0>        -0.0852
      5 C5         -4.8112    0.9034   -0.7618 C.ar      1 <0>        -0.0704
      6 C6         -5.9959    1.4011   -0.2478 C.ar      1 <0>        -0.1076
      7 Br1        -4.7825   -0.7932   -1.5966 Br        1 <0>        -0.0439
      8 N1         -2.4989    3.6452    0.0450 N.pl3     1 <0>        -0.6382
      9 C7         -1.2816    3.0110    0.1921 C.ar      1 <0>         0.4523
     10 C8         -0.0716    3.7467    0.1765 C.ar      1 <0>        -0.1322
     11 C9         -0.0506    5.1363    0.0142 C.ar      1 <0>        -0.1670
     12 C10         1.1596    5.7983    0.0079 C.ar      1 <0>         0.2219
     13 C11         2.3583    5.0921    0.1618 C.ar      1 <0>        -0.0516
     14 C12         2.3584    3.7387    0.3211 C.ar      1 <0>        -0.0488
     15 C13         1.1447    3.0380    0.3318 C.ar      1 <0>         0.1496
     16 N2          1.0982    1.7055    0.4863 N.ar      1 <0>        -0.5266
     17 C14        -0.0525    1.0763    0.4928 C.ar      1 <0>         0.3294
     18 N3         -1.2132    1.6955    0.3459 N.ar      1 <0>        -0.5697
     19 Cl1         3.8660    5.9526    0.1503 Cl        1 <0>        -0.0497
     20 N4          1.1891    7.1866   -0.1532 N.pl3     1 <0>        -0.8663
     21 H1         -6.9470    3.0269    0.7628 H         1 <0>         0.1368
     22 H2         -4.8836    4.3566    0.9384 H         1 <0>         0.1311
     23 H3         -2.7272    1.2611   -1.0762 H         1 <0>         0.1484
     24 H4         -6.9028    0.8197   -0.3242 H         1 <0>         0.1344
     25 H5         -2.5400    4.6137    0.0099 H         1 <0>         0.4222
     26 H6         -0.9730    5.6853   -0.1052 H         1 <0>         0.1339
     27 H7          3.2914    3.2076    0.4391 H         1 <0>         0.1554
     28 H8         -0.0528    0.0037    0.6193 H         1 <0>         0.1986
     29 H9          0.3609    7.6802   -0.2599 H         1 <0>         0.4050
     30 H10         2.0378    7.6563   -0.1583 H         1 <0>         0.4044
@<TRIPOS>BOND
     1    1    6 ar
     2    1    2 ar
     3    1   21 1
     4    2    3 ar
     5    2   22 1
     6    3    4 ar
     7    3    8 1
     8    4    5 ar
     9    4   23 1
    10    5    6 ar
    11    5    7 1
    12    6   24 1
    13    8    9 1
    14    8   25 1
    15    9   18 ar
    16    9   10 ar
    17   10   15 ar
    18   10   11 ar
    19   11   12 ar
    20   11   26 1
    21   12   13 ar
    22   12   20 1
    23   13   14 ar
    24   13   19 1
    25   14   15 ar
    26   14   27 1
    27   15   16 ar
    28   16   17 ar
    29   17   18 ar
    30   17   28 1
    31   20   29 1
    32   20   30 1
@<TRIPOS>MOLECULE
ZINC03815160
   40    43     0     0     0
SMALL
USER_CHARGES

@<TRIPOS>ATOM
      1 C1         -5.7897    4.7992    0.6069 C.ar      1 <0>        -0.1079
      2 C2         -5.0484    4.8470    1.7727 C.ar      1 <0>        -0.1216
      3 C3         -3.6975    5.1356    1.7215 C.ar      1 <0>        -0.0989
      4 C4         -3.0880    5.3769    0.5044 C.ar      1 <0>        -0.1162
      5 C5         -3.8305    5.3347   -0.6608 C.ar      1 <0>        -0.0986
      6 C6         -5.1802    5.0405   -0.6101 C.ar      1 <0>        -0.1215
      7 C7         -1.6154    5.6920    0.4486 C.3       1 <0>         0.1739
      8 N1         -0.8549    4.4480    0.3055 N.pl3     1 <0>        -0.7030
      9 C8          0.5391    4.4864    0.2315 C.2       1 <0>         0.3894
     10 C9          1.4283    3.3376    0.0890 C.ar      1 <0>        -0.3443
     11 C10         2.7407    3.8503    0.0633 C.ar      1 <0>         0.3974
     12 N2          2.6372    5.2028    0.1842 N.pl3     1 <0>        -0.4761
     13 H1          3.4060    5.8420    0.2032 H         1 <0>         0.4555
     14 N3          1.2874    5.5584    0.2776 N.2       1 <0>        -0.3048
     15 N4          3.7569    2.9981   -0.0674 N.ar      1 <0>        -0.5715
     16 C11         3.5396    1.7047   -0.1654 C.ar      1 <0>         0.3896
     17 N5          2.3272    1.1806   -0.1413 N.ar      1 <0>        -0.5952
     18 C12         1.2489    1.9483   -0.0143 C.ar      1 <0>         0.5109
     19 N6         -0.0169    1.3937    0.0097 N.pl3     1 <0>        -0.6432
     20 C13        -0.1843    0.0241   -0.2149 C.ar      1 <0>         0.1648
     21 C14         0.6379   -0.6388   -1.1176 C.ar      1 <0>        -0.1026
     22 C15         0.4704   -1.9917   -1.3377 C.ar      1 <0>        -0.0862
     23 C16        -0.5145   -2.6875   -0.6609 C.ar      1 <0>        -0.1229
     24 C17        -1.3354   -2.0308    0.2391 C.ar      1 <0>        -0.0152
     25 C18        -1.1689   -0.6776    0.4679 C.ar      1 <0>        -0.1396
     26 Cl1        -2.5701   -2.9084    1.0870 Cl        1 <0>        -0.0645
     27 H2         -6.8450    4.5730    0.6469 H         1 <0>         0.1248
     28 H3         -5.5246    4.6585    2.7236 H         1 <0>         0.1256
     29 H4         -3.1183    5.1729    2.6323 H         1 <0>         0.1248
     30 H5         -3.3552    5.5275   -1.6113 H         1 <0>         0.1247
     31 H6         -5.7593    5.0028   -1.5209 H         1 <0>         0.1256
     32 H7         -1.3167    6.1967    1.3673 H         1 <0>         0.0764
     33 H8         -1.4147    6.3406   -0.4041 H         1 <0>         0.0763
     34 H9         -1.3197    3.5977    0.2621 H         1 <0>         0.4030
     35 H10         4.3873    1.0439   -0.2702 H         1 <0>         0.2078
     36 H11        -0.7894    1.9555    0.1785 H         1 <0>         0.4138
     37 H12         1.4072   -0.0963   -1.6471 H         1 <0>         0.1418
     38 H13         1.1097   -2.5071   -2.0392 H         1 <0>         0.1378
     39 H14        -0.6430   -3.7456   -0.8347 H         1 <0>         0.1355
     40 H15        -1.8064   -0.1662    1.1739 H         1 <0>         0.1343
@<TRIPOS>BOND
     1    1    6 ar
     2    1    2 ar
     3    1   27 1
     4    2    3 ar
     5    2   28 1
     6    3    4 ar
     7    3   29 1
     8    4    5 ar
     9    4    7 1
    10    5    6 ar
    11    5   30 1
    12    6   31 1
    13    7    8 1
    14    7   32 1
    15    7   33 1
    16    8    9 1
    17    8   34 1
    18    9   14 2
    19    9   10 1
    20   10   18 ar
    21   10   11 ar
    22   11   12 1
    23   11   15 ar
    24   12   13 1
    25   12   14 1
    26   15   16 ar
    27   16   17 ar
    28   16   35 1
    29   17   18 ar
    30   18   19 1
    31   19   20 1
    32   19   36 1
    33   20   25 ar
    34   20   21 ar
    35   21   22 ar
    36   21   37 1
    37   22   23 ar
    38   22   38 1
    39   23   24 ar
    40   23   39 1
    41   24   25 ar
    42   24   26 1
    43   25   40 1
@<TRIPOS>MOLECULE
ZINC03815161
   44    47     0     0     0
SMALL
USER_CHARGES

@<TRIPOS>ATOM
      1 C1         -7.8178    4.4957   -0.5856 C.3       1 <0>         0.0253
      2 O1         -7.1136    4.5268    0.6574 O.3       1 <0>        -0.3155
      3 C2         -5.7851    4.8090    0.6070 C.ar      1 <0>         0.1401
      4 C3         -5.0399    4.8555    1.7762 C.ar      1 <0>        -0.1542
      5 C4         -3.6895    5.1422    1.7222 C.ar      1 <0>        -0.0574
      6 C5         -3.0808    5.3825    0.5043 C.ar      1 <0>        -0.1550
      7 C6         -3.8225    5.3422   -0.6619 C.ar      1 <0>        -0.0561
      8 C7         -5.1719    5.0504   -0.6138 C.ar      1 <0>        -0.2111
      9 C8         -1.6076    5.6949    0.4484 C.3       1 <0>         0.1788
     10 N1         -0.8494    4.4496    0.3049 N.pl3     1 <0>        -0.7033
     11 C9          0.5447    4.4854    0.2308 C.2       1 <0>         0.3894
     12 C10         1.4318    3.3351    0.0880 C.ar      1 <0>        -0.3442
     13 C11         2.7450    3.8455    0.0617 C.ar      1 <0>         0.3971
     14 N2          2.6441    5.1980    0.1836 N.pl3     1 <0>        -0.4762
     15 H1          3.4142    5.8357    0.2038 H         1 <0>         0.4554
     16 N3          1.2949    5.5561    0.2762 N.2       1 <0>        -0.3050
     17 N4          3.7597    2.9914   -0.0699 N.ar      1 <0>        -0.5717
     18 C12         3.5400    1.6985   -0.1681 C.ar      1 <0>         0.3893
     19 N5          2.3267    1.1765   -0.1432 N.ar      1 <0>        -0.5955
     20 C13         1.2499    1.9461   -0.0153 C.ar      1 <0>         0.5108
     21 N6         -0.0169    1.3937    0.0097 N.pl3     1 <0>        -0.6433
     22 C14        -0.1868    0.0244   -0.2149 C.ar      1 <0>         0.1651
     23 C15         0.6338   -0.6400   -1.1178 C.ar      1 <0>        -0.1027
     24 C16         0.4642   -1.9927   -1.3375 C.ar      1 <0>        -0.0863
     25 C17        -0.5215   -2.6868   -0.6600 C.ar      1 <0>        -0.1232
     26 C18        -1.3409   -2.0286    0.2402 C.ar      1 <0>        -0.0152
     27 C19        -1.1725   -0.6755    0.4683 C.ar      1 <0>        -0.1397
     28 Cl1        -2.5766   -2.9041    1.0890 Cl        1 <0>        -0.0645
     29 H2         -8.8662    4.2597   -0.4034 H         1 <0>         0.1030
     30 H3         -7.7434    5.4693   -1.0699 H         1 <0>         0.0575
     31 H4         -7.3810    3.7342   -1.2318 H         1 <0>         0.0573
     32 H5         -5.5150    4.6683    2.7278 H         1 <0>         0.1343
     33 H6         -3.1089    5.1782    2.6321 H         1 <0>         0.1327
     34 H7         -3.3456    5.5349   -1.6115 H         1 <0>         0.1279
     35 H8         -5.7500    5.0147   -1.5254 H         1 <0>         0.1313
     36 H9         -1.3079    6.1989    1.3672 H         1 <0>         0.0760
     37 H10        -1.4058    6.3434   -0.4042 H         1 <0>         0.0751
     38 H11        -1.3157    3.6001    0.2614 H         1 <0>         0.4027
     39 H12         4.3865    1.0362   -0.2740 H         1 <0>         0.2076
     40 H13        -0.7883    1.9568    0.1791 H         1 <0>         0.4139
     41 H14         1.4037   -0.0988   -1.6478 H         1 <0>         0.1418
     42 H15         1.1023   -2.5093   -2.0391 H         1 <0>         0.1377
     43 H16        -0.6518   -3.7448   -0.8334 H         1 <0>         0.1354
     44 H17        -1.8092   -0.1628    1.1741 H         1 <0>         0.1345
@<TRIPOS>BOND
     1    1    2 1
     2    1   29 1
     3    1   30 1
     4    1   31 1
     5    2    3 1
     6    3    8 ar
     7    3    4 ar
     8    4    5 ar
     9    4   32 1
    10    5    6 ar
    11    5   33 1
    12    6    7 ar
    13    6    9 1
    14    7    8 ar
    15    7   34 1
    16    8   35 1
    17    9   10 1
    18    9   36 1
    19    9   37 1
    20   10   11 1
    21   10   38 1
    22   11   16 2
    23   11   12 1
    24   12   20 ar
    25   12   13 ar
    26   13   14 1
    27   13   17 ar
    28   14   15 1
    29   14   16 1
    30   17   18 ar
    31   18   19 ar
    32   18   39 1
    33   19   20 ar
    34   20   21 1
    35   21   22 1
    36   21   40 1
    37   22   27 ar
    38   22   23 ar
    39   23   24 ar
    40   23   41 1
    41   24   25 ar
    42   24   42 1
    43   25   26 ar
    44   25   43 1
    45   26   27 ar
    46   26   28 1
    47   27   44 1
@<TRIPOS>MOLECULE
ZINC03815162
   33    35     0     0     0
SMALL
USER_CHARGES

@<TRIPOS>ATOM
      1 C1         -0.6753    8.3927    0.4404 C.3       1 <0>         0.0857
      2 N1          0.6253    7.7809    0.1569 N.pl3     1 <0>        -0.7411
      3 C2          0.7399    6.3949    0.0741 C.ar      1 <0>         0.2580
      4 C3         -0.3923    5.5940    0.2635 C.ar      1 <0>        -0.1827
      5 C4         -0.3075    4.2374    0.1884 C.ar      1 <0>        -0.0296
      6 C5          0.9253    3.6323   -0.0870 C.ar      1 <0>        -0.2350
      7 C6          2.0793    4.4336   -0.2752 C.ar      1 <0>         0.2332
      8 C7          1.9692    5.8259   -0.1935 C.ar      1 <0>        -0.2101
      9 N2          3.2495    3.8289   -0.5322 N.ar      1 <0>        -0.5557
     10 C8          3.3206    2.5205   -0.6021 C.ar      1 <0>         0.3517
     11 N3          2.2721    1.7328   -0.4281 N.ar      1 <0>        -0.5958
     12 C9          1.0680    2.2274   -0.1691 C.ar      1 <0>         0.4742
     13 N4         -0.0169    1.3936    0.0097 N.pl3     1 <0>        -0.6408
     14 C10         0.1641    0.0079    0.0396 C.ar      1 <0>         0.1615
     15 C11         1.3333   -0.5303    0.5628 C.ar      1 <0>        -0.0956
     16 C12         1.5095   -1.8996    0.5911 C.ar      1 <0>        -0.0926
     17 C13         0.5237   -2.7357    0.0994 C.ar      1 <0>        -0.1066
     18 C14        -0.6420   -2.2035   -0.4224 C.ar      1 <0>        -0.0707
     19 C15        -0.8267   -0.8340   -0.4483 C.ar      1 <0>        -0.1229
     20 Br1        -1.9871   -3.3510   -1.0929 Br        1 <0>        -0.0460
     21 H1         -0.5687    9.4772    0.4664 H         1 <0>         0.0787
     22 H2         -1.3847    8.1160   -0.3394 H         1 <0>         0.0571
     23 H3         -1.0400    8.0403    1.4052 H         1 <0>         0.0571
     24 H4          1.4067    8.3407    0.0268 H         1 <0>         0.4066
     25 H5         -1.3449    6.0581    0.4722 H         1 <0>         0.1322
     26 H6         -1.1884    3.6303    0.3361 H         1 <0>         0.1267
     27 H7          2.8383    6.4504   -0.3389 H         1 <0>         0.1374
     28 H8          4.2780    2.0664   -0.8106 H         1 <0>         0.1951
     29 H9         -0.9056    1.7689    0.1106 H         1 <0>         0.4211
     30 H10         2.1039    0.1218    0.9467 H         1 <0>         0.1444
     31 H11         2.4181   -2.3182    0.9980 H         1 <0>         0.1366
     32 H12         0.6640   -3.8063    0.1230 H         1 <0>         0.1341
     33 H13        -1.7386   -0.4189   -0.8515 H         1 <0>         0.1338
@<TRIPOS>BOND
     1    1    2 1
     2    1   21 1
     3    1   22 1
     4    1   23 1
     5    2    3 1
     6    2   24 1
     7    3    8 ar
     8    3    4 ar
     9    4    5 ar
    10    4   25 1
    11    5    6 ar
    12    5   26 1
    13    6   12 ar
    14    6    7 ar
    15    7    8 ar
    16    7    9 ar
    17    8   27 1
    18    9   10 ar
    19   10   11 ar
    20   10   28 1
    21   11   12 ar
    22   12   13 1
    23   13   14 1
    24   13   29 1
    25   14   19 ar
    26   14   15 ar
    27   15   16 ar
    28   15   30 1
    29   16   17 ar
    30   16   31 1
    31   17   18 ar
    32   17   32 1
    33   18   19 ar
    34   18   20 1
    35   19   33 1
@<TRIPOS>MOLECULE
ZINC03815163
   31    33     0     0     0
SMALL
USER_CHARGES

@<TRIPOS>ATOM
      1 C1          2.1576    5.6966    0.3943 C.ar      1 <0>        -0.0934
      2 C2          2.2602    4.3225    0.4909 C.ar      1 <0>        -0.0913
      3 C3          3.3215    3.6622   -0.1146 C.ar      1 <0>         0.1563
      4 C4          4.2799    4.3869   -0.8116 C.ar      1 <0>        -0.1171
      5 C5          4.1693    5.7608   -0.9084 C.ar      1 <0>        -0.0721
      6 C6          3.1101    6.4152   -0.3040 C.ar      1 <0>        -0.1025
      7 Br1         5.4699    6.7485   -1.8618 Br        1 <0>        -0.0439
      8 N1          3.4281    2.2717   -0.0180 N.pl3     1 <0>        -0.6365
      9 C7          2.2914    1.4919   -0.0148 C.ar      1 <0>         0.4972
     10 C8          2.3670    0.0967    0.2030 C.ar      1 <0>        -0.3001
     11 C9          3.5749   -0.5691    0.4254 C.ar      1 <0>         0.2294
     12 N2          3.5830   -1.8689    0.6220 N.ar      1 <0>        -0.5226
     13 C10         2.4714   -2.6007    0.6198 C.ar      1 <0>         0.4349
     14 C11         1.2297   -2.0296    0.4088 C.ar      1 <0>        -0.2488
     15 C12         1.1579   -0.6486    0.1936 C.ar      1 <0>         0.2583
     16 N3          0.0031   -0.0057   -0.0199 N.ar      1 <0>        -0.5592
     17 C13        -0.0055    1.2929   -0.2168 C.ar      1 <0>         0.3712
     18 N4          1.0938    2.0290   -0.2171 N.ar      1 <0>        -0.5988
     19 N5          2.5604   -3.9699    0.8350 N.pl3     1 <0>        -0.5638
     20 N6          3.7788   -4.5505    1.0451 N.3       1 <0>        -0.5979
     21 H1          1.3324    6.2103    0.8651 H         1 <0>         0.1373
     22 H2          1.5156    3.7620    1.0367 H         1 <0>         0.1415
     23 H3          5.1086    3.8769   -1.2801 H         1 <0>         0.1358
     24 H4          3.0277    7.4896   -0.3777 H         1 <0>         0.1350
     25 H5          4.3020    1.8556    0.0467 H         1 <0>         0.4230
     26 H6          4.5023   -0.0157    0.4358 H         1 <0>         0.1625
     27 H7          0.3358   -2.6356    0.4097 H         1 <0>         0.1463
     28 H8         -0.9528    1.7814   -0.3908 H         1 <0>         0.1991
     29 H9          1.7573   -4.5139    0.8360 H         1 <0>         0.4159
     30 H10         4.2560   -4.1186    1.8222 H         1 <0>         0.3463
     31 H11         3.6860   -5.5453    1.1856 H         1 <0>         0.3580
@<TRIPOS>BOND
     1    1    6 ar
     2    1    2 ar
     3    1   21 1
     4    2    3 ar
     5    2   22 1
     6    3    4 ar
     7    3    8 1
     8    4    5 ar
     9    4   23 1
    10    5    6 ar
    11    5    7 1
    12    6   24 1
    13    8    9 1
    14    8   25 1
    15    9   18 ar
    16    9   10 ar
    17   10   15 ar
    18   10   11 ar
    19   11   12 ar
    20   11   26 1
    21   12   13 ar
    22   13   14 ar
    23   13   19 1
    24   14   15 ar
    25   14   27 1
    26   15   16 ar
    27   16   17 ar
    28   17   18 ar
    29   17   28 1
    30   19   20 1
    31   19   29 1
    32   20   30 1
    33   20   31 1
@<TRIPOS>MOLECULE
ZINC03815164
   46    49     0     0     0
SMALL
USER_CHARGES

@<TRIPOS>ATOM
      1 C1         -1.9873    0.9754   -1.4832 C.3       1 <0>        -0.1208
      2 C2         -0.9700    1.7492   -0.6848 C.ar      1 <0>        -0.0630
      3 C3         -0.0172    1.0758    0.0579 C.ar      1 <0>        -0.1136
      4 C4          0.9217    1.7819    0.7869 C.ar      1 <0>        -0.0952
      5 C5          0.9074    3.1631    0.7801 C.ar      1 <0>        -0.1042
      6 C6         -0.0515    3.8425    0.0400 C.ar      1 <0>         0.1169
      7 C7         -0.9935    3.1299   -0.6914 C.ar      1 <0>        -0.1321
      8 N1         -0.0691    5.2402    0.0313 N.pl3     1 <0>        -0.6068
      9 C8          1.1117    5.9450    0.1283 C.ar      1 <0>         0.5179
     10 C9          1.1105    7.3549    0.2380 C.ar      1 <0>        -0.2629
     11 C10        -0.0648    8.1096    0.2659 C.ar      1 <0>         0.2637
     12 C11         1.1494   10.0763    0.4673 C.ar      1 <0>         0.4368
     13 C12         2.3634    9.4142    0.4533 C.ar      1 <0>        -0.1925
     14 C13         2.3618    8.0193    0.3391 C.ar      1 <0>         0.3044
     15 N2          3.4849    7.2909    0.3167 N.ar      1 <0>        -0.5576
     16 C14         3.4244    5.9834    0.2078 C.ar      1 <0>         0.4252
     17 N3          2.2834    5.3200    0.1159 N.ar      1 <0>        -0.5806
     18 N4          1.1331   11.4605    0.5800 N.pl3     1 <0>        -0.7044
     19 C15         2.3925   12.2019    0.6822 C.3       1 <0>         0.1159
     20 C16         2.0955   13.6986    0.7948 C.3       1 <0>        -0.0392
     21 C17         3.3910   14.4612    0.9000 C.2       1 <0>        -0.0162
     22 C18         3.7821   15.4711    0.0995 C.2       1 <0>        -0.0366
     23 N5          5.0125   15.8746    0.5433 N.pl3     1 <0>        -0.5690
     24 H1          5.5714   16.6084    0.1570 H         1 <0>         0.4332
     25 C19         5.3307   15.0967    1.6003 C.2       1 <0>         0.1982
     26 N6          4.3541   14.2571    1.8110 N.2       1 <0>        -0.4920
     27 H2         -2.8656    0.7859   -0.8662 H         1 <0>         0.0768
     28 H3         -2.2773    1.5540   -2.3603 H         1 <0>         0.0690
     29 H4         -1.5546    0.0266   -1.8006 H         1 <0>         0.0740
     30 H5         -0.0039   -0.0041    0.0648 H         1 <0>         0.1312
     31 H6          1.6673    1.2530    1.3619 H         1 <0>         0.1340
     32 H7          1.6409    3.7141    1.3501 H         1 <0>         0.1376
     33 H8         -1.7402    3.6551   -1.2683 H         1 <0>         0.1277
     34 H9         -0.9121    5.7142   -0.0430 H         1 <0>         0.4223
     35 H10        -1.0238    7.6181    0.1933 H         1 <0>         0.1956
     36 H11         3.2916    9.9611    0.5290 H         1 <0>         0.1907
     37 H12         4.3482    5.4242    0.1929 H         1 <0>         0.2201
     38 H13         0.2879   11.9363    0.5910 H         1 <0>         0.4163
     39 H14         2.9375   11.8721    1.5667 H         1 <0>         0.0977
     40 H15         2.9961   12.0171   -0.2064 H         1 <0>         0.0875
     41 H16         1.5505   14.0284   -0.0896 H         1 <0>         0.0860
     42 H17         1.4919   13.8834    1.6835 H         1 <0>         0.0862
     43 H18         3.2310   15.8832   -0.7329 H         1 <0>         0.1777
     44 H19         6.2408   15.1614    2.1782 H         1 <0>         0.2124
     45 N7         -0.0768    9.4626    0.3761 N.ar      1 <0>        -0.5406
     46 H20        -0.9530    9.9975    0.3904 H         1 <0>         0.4723
@<TRIPOS>BOND
     1    1    2 1
     2    1   27 1
     3    1   28 1
     4    1   29 1
     5    2    7 ar
     6    2    3 ar
     7    3    4 ar
     8    3   30 1
     9    4    5 ar
    10    4   31 1
    11    5    6 ar
    12    5   32 1
    13    6    7 ar
    14    6    8 1
    15    7   33 1
    16    8    9 1
    17    8   34 1
    18    9   17 ar
    19    9   10 ar
    20   10   14 ar
    21   10   11 ar
    22   11   35 1
    23   11   45 ar
    24   12   13 ar
    25   12   18 1
    26   12   45 ar
    27   13   14 ar
    28   13   36 1
    29   14   15 ar
    30   15   16 ar
    31   16   17 ar
    32   16   37 1
    33   18   19 1
    34   18   38 1
    35   19   20 1
    36   19   39 1
    37   19   40 1
    38   20   21 1
    39   20   41 1
    40   20   42 1
    41   21   26 1
    42   21   22 2
    43   22   23 1
    44   22   43 1
    45   23   24 1
    46   23   25 1
    47   25   26 2
    48   25   44 1
    49   45   46 1
@<TRIPOS>MOLECULE
ZINC03815164
   46    49     0     0     0
SMALL
USER_CHARGES

@<TRIPOS>ATOM
      1 C1         -1.9873    0.9754   -1.4832 C.3       1 <0>        -0.1208
      2 C2         -0.9700    1.7492   -0.6848 C.ar      1 <0>        -0.0630
      3 C3         -0.0172    1.0758    0.0579 C.ar      1 <0>        -0.1136
      4 C4          0.9217    1.7819    0.7869 C.ar      1 <0>        -0.0952
      5 C5          0.9074    3.1631    0.7801 C.ar      1 <0>        -0.1042
      6 C6         -0.0515    3.8425    0.0400 C.ar      1 <0>         0.1169
      7 C7         -0.9935    3.1299   -0.6914 C.ar      1 <0>        -0.1321
      8 N1         -0.0691    5.2402    0.0313 N.pl3     1 <0>        -0.6068
      9 C8          1.1117    5.9450    0.1283 C.ar      1 <0>         0.5179
     10 C9          1.1105    7.3549    0.2380 C.ar      1 <0>        -0.2629
     11 C10        -0.0648    8.1096    0.2659 C.ar      1 <0>         0.2637
     12 C11         1.1494   10.0763    0.4673 C.ar      1 <0>         0.4368
     13 C12         2.3634    9.4142    0.4533 C.ar      1 <0>        -0.1925
     14 C13         2.3618    8.0193    0.3391 C.ar      1 <0>         0.3044
     15 N2          3.4849    7.2909    0.3167 N.ar      1 <0>        -0.5576
     16 C14         3.4244    5.9834    0.2078 C.ar      1 <0>         0.4252
     17 N3          2.2834    5.3200    0.1159 N.ar      1 <0>        -0.5806
     18 N4          1.1331   11.4605    0.5800 N.pl3     1 <0>        -0.7044
     19 C15         2.3925   12.2019    0.6822 C.3       1 <0>         0.1159
     20 C16         2.0955   13.6986    0.7948 C.3       1 <0>        -0.0392
     21 C17         3.3910   14.4612    0.9000 C.2       1 <0>        -0.0162
     22 C18         3.7821   15.4711    0.0995 C.2       1 <0>        -0.0366
     23 N5          5.0125   15.8746    0.5433 N.pl3     1 <0>        -0.5690
     24 H1          5.5714   16.6084    0.1570 H         1 <0>         0.4332
     25 C19         5.3307   15.0967    1.6003 C.2       1 <0>         0.1982
     26 N6          4.3541   14.2571    1.8110 N.2       1 <0>        -0.4920
     27 H2         -2.8656    0.7859   -0.8662 H         1 <0>         0.0768
     28 H3         -2.2773    1.5540   -2.3603 H         1 <0>         0.0690
     29 H4         -1.5546    0.0266   -1.8006 H         1 <0>         0.0740
     30 H5         -0.0039   -0.0041    0.0648 H         1 <0>         0.1312
     31 H6          1.6673    1.2530    1.3619 H         1 <0>         0.1340
     32 H7          1.6409    3.7141    1.3501 H         1 <0>         0.1376
     33 H8         -1.7402    3.6551   -1.2683 H         1 <0>         0.1277
     34 H9         -0.9121    5.7142   -0.0430 H         1 <0>         0.4223
     35 H10        -1.0238    7.6181    0.1933 H         1 <0>         0.1956
     36 H11         3.2916    9.9611    0.5290 H         1 <0>         0.1907
     37 H12         4.3482    5.4242    0.1929 H         1 <0>         0.2201
     38 H13         0.2879   11.9363    0.5910 H         1 <0>         0.4163
     39 H14         2.9375   11.8721    1.5667 H         1 <0>         0.0977
     40 H15         2.9961   12.0171   -0.2064 H         1 <0>         0.0875
     41 H16         1.5505   14.0284   -0.0896 H         1 <0>         0.0860
     42 H17         1.4919   13.8834    1.6835 H         1 <0>         0.0862
     43 H18         3.2310   15.8832   -0.7329 H         1 <0>         0.1777
     44 H19         6.2408   15.1614    2.1782 H         1 <0>         0.2124
     45 N7         -0.0768    9.4626    0.3761 N.ar      1 <0>        -0.5406
     46 H20        -0.9530    9.9975    0.3904 H         1 <0>         0.4723
@<TRIPOS>BOND
     1    1    2 1
     2    1   27 1
     3    1   28 1
     4    1   29 1
     5    2    7 ar
     6    2    3 ar
     7    3    4 ar
     8    3   30 1
     9    4    5 ar
    10    4   31 1
    11    5    6 ar
    12    5   32 1
    13    6    7 ar
    14    6    8 1
    15    7   33 1
    16    8    9 1
    17    8   34 1
    18    9   17 ar
    19    9   10 ar
    20   10   14 ar
    21   10   11 ar
    22   11   35 1
    23   11   45 ar
    24   12   13 ar
    25   12   18 1
    26   12   45 ar
    27   13   14 ar
    28   13   36 1
    29   14   15 ar
    30   15   16 ar
    31   16   17 ar
    32   16   37 1
    33   18   19 1
    34   18   38 1
    35   19   20 1
    36   19   39 1
    37   19   40 1
    38   20   21 1
    39   20   41 1
    40   20   42 1
    41   21   26 1
    42   21   22 2
    43   22   23 1
    44   22   43 1
    45   23   24 1
    46   23   25 1
    47   25   26 2
    48   25   44 1
    49   45   46 1
@<TRIPOS>MOLECULE
ZINC03815164
   47    50     0     0     0
SMALL
USER_CHARGES

@<TRIPOS>ATOM
      1 C1         -1.9873    0.9754   -1.4832 C.3       1 <0>        -0.1229
      2 C2         -0.9700    1.7492   -0.6848 C.ar      1 <0>        -0.0606
      3 C3         -0.0172    1.0758    0.0579 C.ar      1 <0>        -0.1072
      4 C4          0.9217    1.7819    0.7869 C.ar      1 <0>        -0.0951
      5 C5          0.9074    3.1631    0.7801 C.ar      1 <0>        -0.1023
      6 C6         -0.0515    3.8425    0.0400 C.ar      1 <0>         0.1060
      7 C7         -0.9935    3.1299   -0.6914 C.ar      1 <0>        -0.1280
      8 N1         -0.0691    5.2402    0.0313 N.pl3     1 <0>        -0.5958
      9 C8          1.1117    5.9450    0.1283 C.ar      1 <0>         0.5177
     10 C9          1.1105    7.3549    0.2380 C.ar      1 <0>        -0.2621
     11 C10        -0.0648    8.1096    0.2659 C.ar      1 <0>         0.2730
     12 C11         1.1494   10.0763    0.4673 C.ar      1 <0>         0.4328
     13 C12         2.3634    9.4142    0.4533 C.ar      1 <0>        -0.1967
     14 C13         2.3618    8.0193    0.3391 C.ar      1 <0>         0.3094
     15 N2          3.4849    7.2909    0.3167 N.ar      1 <0>        -0.5621
     16 C14         3.4244    5.9834    0.2078 C.ar      1 <0>         0.4335
     17 N3          2.2834    5.3200    0.1159 N.ar      1 <0>        -0.5747
     18 N4          1.1331   11.4605    0.5800 N.pl3     1 <0>        -0.7180
     19 C15         2.3925   12.2019    0.6822 C.3       1 <0>         0.1116
     20 C16         2.0955   13.6986    0.7948 C.3       1 <0>        -0.0725
     21 C17         3.3910   14.4612    0.9000 C.2       1 <0>         0.0177
     22 C18         3.7821   15.4711    0.0995 C.2       1 <0>         0.0522
     23 N5          5.0125   15.8746    0.5433 N.pl3     1 <0>        -0.5135
     24 H1          5.5714   16.6084    0.1570 H         1 <0>         0.4808
     25 C19         5.3307   15.0967    1.6003 C.cat     1 <0>         0.3214
     26 H2         -2.8656    0.7859   -0.8662 H         1 <0>         0.0790
     27 H3         -2.2773    1.5540   -2.3603 H         1 <0>         0.0701
     28 H4         -1.5546    0.0266   -1.8006 H         1 <0>         0.0762
     29 H5         -0.0039   -0.0041    0.0648 H         1 <0>         0.1343
     30 H6          1.6673    1.2530    1.3619 H         1 <0>         0.1361
     31 H7          1.6409    3.7141    1.3501 H         1 <0>         0.1365
     32 H8         -1.7402    3.6551   -1.2683 H         1 <0>         0.1290
     33 H9         -0.9121    5.7142   -0.0430 H         1 <0>         0.4236
     34 H10        -1.0238    7.6181    0.1933 H         1 <0>         0.1994
     35 H11         3.2916    9.9611    0.5290 H         1 <0>         0.1850
     36 H12         4.3482    5.4242    0.1929 H         1 <0>         0.2234
     37 H13         0.2879   11.9363    0.5910 H         1 <0>         0.4208
     38 H14         2.9375   11.8721    1.5667 H         1 <0>         0.0837
     39 H15         2.9961   12.0171   -0.2064 H         1 <0>         0.0965
     40 H16         1.5505   14.0284   -0.0896 H         1 <0>         0.1244
     41 H17         1.4919   13.8834    1.6835 H         1 <0>         0.1138
     42 H18         3.2310   15.8832   -0.7329 H         1 <0>         0.2277
     43 H19         6.2408   15.1614    2.1782 H         1 <0>         0.2693
     44 N6         -0.0768    9.4626    0.3761 N.ar      1 <0>        -0.5413
     45 H20        -0.9530    9.9975    0.3904 H         1 <0>         0.4745
     46 N7          4.3541   14.2580    1.8100 N.pl3     1 <0>        -0.4869
     47 H21         4.3272   13.5525    2.5555 H         1 <0>         0.4804
@<TRIPOS>BOND
     1    1    2 1
     2    1   26 1
     3    1   27 1
     4    1   28 1
     5    2    7 ar
     6    2    3 ar
     7    3    4 ar
     8    3   29 1
     9    4    5 ar
    10    4   30 1
    11    5    6 ar
    12    5   31 1
    13    6    7 ar
    14    6    8 1
    15    7   32 1
    16    8    9 1
    17    8   33 1
    18    9   17 ar
    19    9   10 ar
    20   10   14 ar
    21   10   11 ar
    22   11   34 1
    23   11   44 ar
    24   12   13 ar
    25   12   18 1
    26   12   44 ar
    27   13   14 ar
    28   13   35 1
    29   14   15 ar
    30   15   16 ar
    31   16   17 ar
    32   16   36 1
    33   18   19 1
    34   18   37 1
    35   19   20 1
    36   19   38 1
    37   19   39 1
    38   20   21 1
    39   20   40 1
    40   20   41 1
    41   21   22 2
    42   21   46 1
    43   22   23 1
    44   22   42 1
    45   23   24 1
    46   23   25 1
    47   25   43 1
    48   25   46 2
    49   44   45 1
    50   46   47 1
@<TRIPOS>MOLECULE
ZINC03815165
   51    53     0     0     0
SMALL
USER_CHARGES

@<TRIPOS>ATOM
      1 C1         -0.0526  -10.8259    1.3642 C.3       1 <0>        -0.0441
      2 C2         -1.2529   -9.0512    2.4922 C.3       1 <0>        -0.0483
      3 C3          0.8302   -8.5713    1.3551 C.3       1 <0>        -0.0060
      4 C4          0.4559   -7.1103    1.0976 C.3       1 <0>        -0.1493
      5 C5          1.7226   -6.2521    1.0953 C.3       1 <0>        -0.1328
      6 C6          1.3484   -4.7911    0.8377 C.3       1 <0>         0.1116
      7 N1          2.5612   -3.9694    0.8356 N.pl3     1 <0>        -0.7157
      8 C7          2.4720   -2.6003    0.6204 C.ar      1 <0>         0.4332
      9 C8          1.2299   -2.0292    0.4098 C.ar      1 <0>        -0.1946
     10 C9          1.1580   -0.6486    0.1946 C.ar      1 <0>         0.3079
     11 C10         2.3673    0.0969    0.2036 C.ar      1 <0>        -0.2620
     12 C11         3.5750   -0.5685    0.4254 C.ar      1 <0>         0.2712
     13 C12         2.2915    1.4922   -0.0143 C.ar      1 <0>         0.5204
     14 N2          1.0937    2.0291   -0.2162 N.ar      1 <0>        -0.5774
     15 C13        -0.0056    1.2930   -0.2154 C.ar      1 <0>         0.4331
     16 N3          0.0030   -0.0056   -0.0184 N.ar      1 <0>        -0.5589
     17 N4          3.4280    2.2722   -0.0180 N.pl3     1 <0>        -0.6017
     18 C14         3.3212    3.6627   -0.1146 C.ar      1 <0>         0.1141
     19 C15         2.2594    4.3230    0.4911 C.ar      1 <0>        -0.0816
     20 C16         2.1566    5.6966    0.3945 C.ar      1 <0>        -0.0913
     21 C17         3.1093    6.4157   -0.3040 C.ar      1 <0>        -0.0786
     22 C18         4.1680    5.7616   -0.9086 C.ar      1 <0>        -0.0759
     23 C19         4.2791    4.3874   -0.8114 C.ar      1 <0>        -0.0997
     24 Br1         5.4681    6.7494   -1.8625 Br        1 <0>        -0.0221
     25 H1          0.5291  -11.0591    2.2560 H         1 <0>         0.1245
     26 H2         -0.9710  -11.4129    1.3657 H         1 <0>         0.1265
     27 H3          0.5314  -11.0671    0.4761 H         1 <0>         0.1229
     28 H4         -1.5415   -8.0023    2.4241 H         1 <0>         0.1210
     29 H5         -2.1459   -9.6759    2.4697 H         1 <0>         0.1264
     30 H6         -0.7147   -9.2201    3.4249 H         1 <0>         0.1245
     31 H7          1.5025   -8.9179    0.5703 H         1 <0>         0.1311
     32 H8          1.3269   -8.6541    2.3219 H         1 <0>         0.1328
     33 H9         -0.2164   -6.7636    1.8823 H         1 <0>         0.0953
     34 H10        -0.0407   -7.0275    0.1308 H         1 <0>         0.0952
     35 H11         2.3949   -6.5988    0.3105 H         1 <0>         0.0883
     36 H12         2.2193   -6.3349    2.0620 H         1 <0>         0.0880
     37 H13         0.6760   -4.4445    1.6225 H         1 <0>         0.0902
     38 H14         0.8517   -4.7083   -0.1290 H         1 <0>         0.0905
     39 H15         3.4266   -4.3816    0.9845 H         1 <0>         0.4176
     40 H16         0.3360   -2.6352    0.4111 H         1 <0>         0.1879
     41 H17         4.5024   -0.0151    0.4350 H         1 <0>         0.1989
     42 H18        -0.9530    1.7815   -0.3890 H         1 <0>         0.2238
     43 H19         4.3019    1.8563    0.0464 H         1 <0>         0.4251
     44 H20         1.5149    3.7624    1.0368 H         1 <0>         0.1413
     45 H21         1.3313    6.2102    0.8653 H         1 <0>         0.1462
     46 H22         3.0268    7.4900   -0.3774 H         1 <0>         0.1450
     47 H23         5.1079    3.8775   -1.2799 H         1 <0>         0.1395
     48 N5         -0.4004   -9.3896    1.3331 N.4       1 <0>        -0.3986
     49 H24        -0.9180   -9.1905    0.4690 H         1 <0>         0.4323
     50 N6          3.6583   -1.9074    0.6355 N.ar      1 <0>        -0.5411
     51 H25         4.5576   -2.3758    0.7966 H         1 <0>         0.4737
@<TRIPOS>BOND
     1    1   25 1
     2    1   26 1
     3    1   27 1
     4    1   48 1
     5    2   28 1
     6    2   29 1
     7    2   30 1
     8    2   48 1
     9    3    4 1
    10    3   31 1
    11    3   32 1
    12    3   48 1
    13    4    5 1
    14    4   33 1
    15    4   34 1
    16    5    6 1
    17    5   35 1
    18    5   36 1
    19    6    7 1
    20    6   37 1
    21    6   38 1
    22    7    8 1
    23    7   39 1
    24    8    9 ar
    25    8   50 ar
    26    9   10 ar
    27    9   40 1
    28   10   16 ar
    29   10   11 ar
    30   11   12 ar
    31   11   13 ar
    32   12   41 1
    33   12   50 ar
    34   13   14 ar
    35   13   17 1
    36   14   15 ar
    37   15   16 ar
    38   15   42 1
    39   17   18 1
    40   17   43 1
    41   18   23 ar
    42   18   19 ar
    43   19   20 ar
    44   19   44 1
    45   20   21 ar
    46   20   45 1
    47   21   22 ar
    48   21   46 1
    49   22   23 ar
    50   22   24 1
    51   23   47 1
    52   48   49 1
    53   50   51 1
@<TRIPOS>MOLECULE
ZINC03815166
   56    59     0     0     0
SMALL
USER_CHARGES

@<TRIPOS>ATOM
      1 C1         -0.5553   -1.3598    4.6837 C.3       1 <0>        -0.0569
      2 C2         -0.1755   -3.4506    3.5230 C.3       1 <0>        -0.0465
      3 C3         -0.7231   -1.4524    2.2700 C.3       1 <0>        -0.0363
      4 C4         -0.3606    0.0242    2.0993 C.3       1 <0>        -0.0362
      5 C5         -0.5284   -0.0684   -0.3144 C.3       1 <0>        -0.0556
      6 C6         -0.9082    2.0224    0.8462 C.3       1 <0>         0.0901
      7 C7         -1.8109    2.5593   -0.2344 C.2       1 <0>        -0.2857
      8 C8         -1.4444    2.9214   -1.4720 C.2       1 <0>         0.1625
      9 N1         -2.5346    3.3593   -2.1777 N.pl3     1 <0>        -0.5868
     10 H1         -2.5153    3.6708   -3.0961 H         1 <0>         0.4365
     11 C9         -3.6621    3.2968   -1.3863 C.ar      1 <0>         0.1412
     12 C10        -3.2563    2.7907   -0.1286 C.ar      1 <0>        -0.0983
     13 C11        -4.1792    2.6118    0.8918 C.ar      1 <0>        -0.0480
     14 C12        -5.5167    2.9359    0.6685 C.ar      1 <0>        -0.1838
     15 C13        -5.9260    3.4441   -0.5931 C.ar      1 <0>         0.2036
     16 C14        -4.9873    3.6194   -1.6116 C.ar      1 <0>        -0.1021
     17 N2         -7.2235    3.7458   -0.7738 N.ar      1 <0>        -0.5423
     18 C15        -8.0886    3.5731    0.1958 C.ar      1 <0>         0.3668
     19 N3         -7.7534    3.1027    1.3873 N.ar      1 <0>        -0.5757
     20 C16        -6.5017    2.7727    1.6752 C.ar      1 <0>         0.4706
     21 N4         -6.1669    2.2843    2.9209 N.pl3     1 <0>        -0.6354
     22 C17        -7.1680    2.0171    3.8590 C.ar      1 <0>         0.1431
     23 C18        -8.3997    1.5274    3.4425 C.ar      1 <0>        -0.0911
     24 C19        -9.3867    1.2639    4.3715 C.ar      1 <0>        -0.0890
     25 C20        -9.1506    1.4864    5.7158 C.ar      1 <0>        -0.0942
     26 C21        -7.9253    1.9740    6.1345 C.ar      1 <0>        -0.0736
     27 C22        -6.9317    2.2352    5.2100 C.ar      1 <0>        -0.1187
     28 Br1        -7.6073    2.2760    7.9740 Br        1 <0>        -0.0341
     29 H2         -1.6242   -1.5533    4.7738 H         1 <0>         0.1321
     30 H3         -0.0368   -1.7751    5.5478 H         1 <0>         0.1383
     31 H4         -0.3832   -0.2844    4.6389 H         1 <0>         0.1221
     32 H5          0.2727   -3.8951    2.6344 H         1 <0>         0.1284
     33 H6          0.3350   -3.8215    4.4118 H         1 <0>         0.1365
     34 H7         -1.2307   -3.7197    3.5711 H         1 <0>         0.1305
     35 H8         -1.8018   -1.5500    2.3919 H         1 <0>         0.1513
     36 H9         -0.4053   -2.0088    1.3882 H         1 <0>         0.1508
     37 H10         0.7182    0.1217    1.9773 H         1 <0>         0.1542
     38 H11        -0.6783    0.5806    2.9810 H         1 <0>         0.1491
     39 H12        -0.7005   -1.1438   -0.2696 H         1 <0>         0.1188
     40 H13         0.5405    0.1251   -0.4046 H         1 <0>         0.1326
     41 H14        -1.0469    0.3469   -1.1786 H         1 <0>         0.1339
     42 H15        -1.1921    2.4555    1.8054 H         1 <0>         0.1364
     43 H16         0.1252    2.2855    0.6204 H         1 <0>         0.1433
     44 H17        -0.4367    2.8730   -1.8577 H         1 <0>         0.1872
     45 H18        -3.8646    2.2248    1.8498 H         1 <0>         0.1211
     46 H19        -5.2954    4.0052   -2.5721 H         1 <0>         0.1506
     47 H20        -9.1226    3.8267    0.0146 H         1 <0>         0.2064
     48 H21        -5.2367    2.1261    3.1459 H         1 <0>         0.4132
     49 H22        -8.5851    1.3532    2.3928 H         1 <0>         0.1405
     50 H23       -10.3442    0.8832    4.0479 H         1 <0>         0.1418
     51 H24        -9.9241    1.2788    6.4404 H         1 <0>         0.1402
     52 H25        -5.9738    2.6116    5.5375 H         1 <0>         0.1314
     53 N5         -0.0176   -1.9825    3.4557 N.4       1 <0>        -0.3919
     54 H26         0.9812   -1.7577    3.3777 H         1 <0>         0.4388
     55 N6         -1.0661    0.5543    0.9135 N.4       1 <0>        -0.3946
     56 H27        -2.0649    0.3295    0.9915 H         1 <0>         0.4328
@<TRIPOS>BOND
     1    1   29 1
     2    1   30 1
     3    1   31 1
     4    1   53 1
     5    2   32 1
     6    2   33 1
     7    2   34 1
     8    2   53 1
     9    3    4 1
    10    3   35 1
    11    3   36 1
    12    3   53 1
    13    4   37 1
    14    4   38 1
    15    4   55 1
    16    5   39 1
    17    5   40 1
    18    5   41 1
    19    5   55 1
    20    6    7 1
    21    6   42 1
    22    6   43 1
    23    6   55 1
    24    7   12 1
    25    7    8 2
    26    8    9 1
    27    8   44 1
    28    9   10 1
    29    9   11 1
    30   11   16 ar
    31   11   12 ar
    32   12   13 ar
    33   13   14 ar
    34   13   45 1
    35   14   20 ar
    36   14   15 ar
    37   15   16 ar
    38   15   17 ar
    39   16   46 1
    40   17   18 ar
    41   18   19 ar
    42   18   47 1
    43   19   20 ar
    44   20   21 1
    45   21   22 1
    46   21   48 1
    47   22   27 ar
    48   22   23 ar
    49   23   24 ar
    50   23   49 1
    51   24   25 ar
    52   24   50 1
    53   25   26 ar
    54   25   51 1
    55   26   27 ar
    56   26   28 1
    57   27   52 1
    58   53   54 1
    59   55   56 1
@<TRIPOS>MOLECULE
ZINC03815167
   39    42     0     0     0
SMALL
USER_CHARGES

@<TRIPOS>ATOM
      1 C1         -3.8242   -4.2273    0.0608 C.3       1 <0>        -0.1674
      2 C2         -2.9671   -2.9599    0.0508 C.3       1 <0>         0.1130
      3 N1         -1.5627   -3.3218   -0.1562 N.pl3     1 <0>        -0.7294
      4 C3         -0.5844   -2.3258   -0.2028 C.ar      1 <0>         0.2374
      5 C4         -0.9348   -0.9916   -0.0545 C.ar      1 <0>        -0.1500
      6 C5          0.0427   -0.0200   -0.1034 C.ar      1 <0>        -0.0353
      7 C6          1.3989   -0.3309   -0.3003 C.ar      1 <0>        -0.1269
      8 C7          1.7284   -1.6981   -0.4485 C.ar      1 <0>        -0.0285
      9 C8          0.7557   -2.6624   -0.3996 C.ar      1 <0>         0.0207
     10 F1          1.0999   -3.9607   -0.5449 F         1 <0>        -0.1356
     11 C9          2.3228    0.8193   -0.3280 C.ar      1 <0>         0.2367
     12 C10         1.7383    2.0804   -0.1551 C.ar      1 <0>        -0.2880
     13 S1          0.0088    1.7492    0.0391 S.3       1 <0>         0.0898
     14 C11         2.5123    3.2321   -0.1632 C.ar      1 <0>         0.4850
     15 N2          3.8278    3.1078   -0.3399 N.ar      1 <0>        -0.5497
     16 C12         4.3631    1.9117   -0.5015 C.ar      1 <0>         0.3450
     17 N3          3.6639    0.8044   -0.4994 N.ar      1 <0>        -0.5310
     18 N4          1.9321    4.4806    0.0085 N.pl3     1 <0>        -0.6440
     19 C13         2.7384    5.6173    0.1133 C.ar      1 <0>         0.1618
     20 C14         2.2888    6.8373   -0.3766 C.ar      1 <0>        -0.1334
     21 C15         3.0876    7.9588   -0.2717 C.ar      1 <0>        -0.0906
     22 C16         4.3341    7.8692    0.3206 C.ar      1 <0>        -0.1079
     23 C17         4.7851    6.6562    0.8100 C.ar      1 <0>        -0.0696
     24 C18         3.9884    5.5311    0.7124 C.ar      1 <0>        -0.0881
     25 Br1         6.4898    6.5394    1.6201 Br        1 <0>        -0.0439
     26 H1         -3.7190   -4.7446   -0.8928 H         1 <0>         0.0642
     27 H2         -3.4950   -4.8821    0.8676 H         1 <0>         0.0642
     28 H3         -4.8691   -3.9581    0.2148 H         1 <0>         0.0784
     29 H4         -3.0723   -2.4426    1.0044 H         1 <0>         0.0683
     30 H5         -3.2963   -2.3051   -0.7560 H         1 <0>         0.0682
     31 H6         -1.3121   -4.2530   -0.2608 H         1 <0>         0.4097
     32 H7         -1.9676   -0.7153    0.0988 H         1 <0>         0.1470
     33 H8          2.7580   -1.9855   -0.6023 H         1 <0>         0.1500
     34 H9          5.4316    1.8431   -0.6428 H         1 <0>         0.2049
     35 H10         0.9669    4.5646    0.0559 H         1 <0>         0.4235
     36 H11         1.3156    6.9084   -0.8393 H         1 <0>         0.1321
     37 H12         2.7383    8.9072   -0.6525 H         1 <0>         0.1374
     38 H13         4.9566    8.7480    0.4016 H         1 <0>         0.1347
     39 H14         4.3388    4.5853    1.0985 H         1 <0>         0.1471
@<TRIPOS>BOND
     1    1    2 1
     2    1   26 1
     3    1   27 1
     4    1   28 1
     5    2    3 1
     6    2   29 1
     7    2   30 1
     8    3    4 1
     9    3   31 1
    10    4    9 ar
    11    4    5 ar
    12    5    6 ar
    13    5   32 1
    14    6   13 1
    15    6    7 ar
    16    7    8 ar
    17    7   11 1
    18    8    9 ar
    19    8   33 1
    20    9   10 1
    21   11   17 ar
    22   11   12 ar
    23   12   13 1
    24   12   14 ar
    25   14   15 ar
    26   14   18 1
    27   15   16 ar
    28   16   17 ar
    29   16   34 1
    30   18   19 1
    31   18   35 1
    32   19   24 ar
    33   19   20 ar
    34   20   21 ar
    35   20   36 1
    36   21   22 ar
    37   21   37 1
    38   22   23 ar
    39   22   38 1
    40   23   24 ar
    41   23   25 1
    42   24   39 1
@<TRIPOS>MOLECULE
ZINC03815169
   41    44     0     0     0
SMALL
USER_CHARGES

@<TRIPOS>ATOM
      1 C1         -1.8558   -0.4590   -0.6163 C.3       1 <0>         0.0270
      2 O1         -1.9885    0.9098   -0.2281 O.3       1 <0>        -0.3164
      3 C2         -0.9541    1.7390   -0.5274 C.ar      1 <0>         0.1548
      4 C3          0.1658    1.2440   -1.1815 C.ar      1 <0>        -0.2281
      5 C4          1.2158    2.0869   -1.4921 C.ar      1 <0>        -0.0501
      6 C5          1.1575    3.4234   -1.1473 C.ar      1 <0>        -0.1717
      7 C6          0.0416    3.9234   -0.4873 C.ar      1 <0>         0.2021
      8 C7         -1.0146    3.0777   -0.1750 C.ar      1 <0>        -0.1894
      9 N1         -0.0175    5.2747   -0.1382 N.pl3     1 <0>        -0.6392
     10 C8          1.1572    5.9740    0.1482 C.2       1 <0>         0.3781
     11 C9          1.2675    7.4051    0.4136 C.ar      1 <0>        -0.3396
     12 C10         2.6325    7.6626    0.6499 C.ar      1 <0>         0.3992
     13 N2          3.2836    6.4722    0.5333 N.pl3     1 <0>        -0.4742
     14 H1          4.2684    6.3386    0.6447 H         1 <0>         0.4578
     15 N3          2.3597    5.4654    0.2334 N.2       1 <0>        -0.2804
     16 N4          3.0092    8.9118    0.9215 N.ar      1 <0>        -0.5688
     17 C11         2.1249    9.8842    0.9680 C.ar      1 <0>         0.3915
     18 N5          0.8362    9.6882    0.7536 N.ar      1 <0>        -0.5920
     19 C12         0.3624    8.4776    0.4739 C.ar      1 <0>         0.5120
     20 N6         -0.9871    8.2793    0.2498 N.pl3     1 <0>        -0.6414
     21 C13        -1.8562    9.3732    0.2043 C.ar      1 <0>         0.1634
     22 C14        -1.4131   10.5943   -0.2886 C.ar      1 <0>        -0.1049
     23 C15        -2.2738   11.6732   -0.3329 C.ar      1 <0>        -0.0854
     24 C16        -3.5761   11.5399    0.1127 C.ar      1 <0>        -0.1233
     25 C17        -4.0214   10.3252    0.6038 C.ar      1 <0>        -0.0144
     26 C18        -3.1659    9.2401    0.6462 C.ar      1 <0>        -0.1414
     27 Cl1        -5.6573   10.1622    1.1615 Cl        1 <0>        -0.0635
     28 H2         -1.7351   -0.5200   -1.6978 H         1 <0>         0.0575
     29 H3         -0.9827   -0.8921   -0.1282 H         1 <0>         0.0574
     30 H4         -2.7485   -1.0092   -0.3188 H         1 <0>         0.1017
     31 H5          0.2145    0.1996   -1.4521 H         1 <0>         0.1300
     32 H6          2.0839    1.7000   -2.0050 H         1 <0>         0.1301
     33 H7          1.9795    4.0801   -1.3912 H         1 <0>         0.1372
     34 H8         -1.8832    3.4635    0.3379 H         1 <0>         0.1335
     35 H9         -0.8743    5.7273   -0.0946 H         1 <0>         0.4136
     36 H10         2.4664   10.8842    1.1911 H         1 <0>         0.2099
     37 H11        -1.3310    7.3811    0.1240 H         1 <0>         0.4128
     38 H12        -0.3961   10.6997   -0.6365 H         1 <0>         0.1455
     39 H13        -1.9295   12.6224   -0.7163 H         1 <0>         0.1382
     40 H14        -4.2471   12.3854    0.0769 H         1 <0>         0.1358
     41 H15        -3.5146    8.2911    1.0258 H         1 <0>         0.1351
@<TRIPOS>BOND
     1    1    2 1
     2    1   28 1
     3    1   29 1
     4    1   30 1
     5    2    3 1
     6    3    8 ar
     7    3    4 ar
     8    4    5 ar
     9    4   31 1
    10    5    6 ar
    11    5   32 1
    12    6    7 ar
    13    6   33 1
    14    7    8 ar
    15    7    9 1
    16    8   34 1
    17    9   10 1
    18    9   35 1
    19   10   15 2
    20   10   11 1
    21   11   19 ar
    22   11   12 ar
    23   12   13 1
    24   12   16 ar
    25   13   14 1
    26   13   15 1
    27   16   17 ar
    28   17   18 ar
    29   17   36 1
    30   18   19 ar
    31   19   20 1
    32   20   21 1
    33   20   37 1
    34   21   26 ar
    35   21   22 ar
    36   22   23 ar
    37   22   38 1
    38   23   24 ar
    39   23   39 1
    40   24   25 ar
    41   24   40 1
    42   25   26 ar
    43   25   27 1
    44   26   41 1
@<TRIPOS>MOLECULE
ZINC03815171
   44    47     0     0     0
SMALL
USER_CHARGES

@<TRIPOS>ATOM
      1 C1         -1.0009    0.7554   -0.5880 C.3       1 <0>         0.0259
      2 O1         -1.6258    1.2601    0.5938 O.3       1 <0>        -0.3161
      3 C2         -2.8387    0.7410    0.9201 C.ar      1 <0>         0.1265
      4 C3         -3.4155   -0.2341    0.1192 C.ar      1 <0>        -0.1975
      5 C4         -4.6484   -0.7600    0.4530 C.ar      1 <0>        -0.0799
      6 C5         -5.3074   -0.3158    1.5846 C.ar      1 <0>        -0.1362
      7 C6         -4.7346    0.6553    2.3845 C.ar      1 <0>        -0.0758
      8 C7         -3.4994    1.1811    2.0576 C.ar      1 <0>        -0.1321
      9 C8         -5.4554    1.1368    3.6173 C.3       1 <0>         0.1743
     10 N1         -5.0675    0.3111    4.7636 N.pl3     1 <0>        -0.7026
     11 C9         -5.6093    0.5683    6.0246 C.2       1 <0>         0.3899
     12 C10        -5.3254   -0.1673    7.2530 C.ar      1 <0>        -0.3437
     13 C11        -6.0886    0.4430    8.2684 C.ar      1 <0>         0.3974
     14 N2         -6.7813    1.4589    7.6832 N.pl3     1 <0>        -0.4759
     15 H1         -7.4146    2.0731    8.1541 H         1 <0>         0.4555
     16 N3         -6.4688    1.5092    6.3205 N.2       1 <0>        -0.3043
     17 N4         -6.0075   -0.0417    9.5072 N.ar      1 <0>        -0.5715
     18 C12        -5.2390   -1.0751    9.7743 C.ar      1 <0>         0.3894
     19 N5         -4.5044   -1.6752    8.8549 N.ar      1 <0>        -0.5952
     20 C13        -4.5131   -1.2622    7.5909 C.ar      1 <0>         0.5109
     21 N6         -3.7418   -1.8942    6.6338 N.pl3     1 <0>        -0.6432
     22 C14        -3.0337   -3.0543    6.9609 C.ar      1 <0>         0.1658
     23 C15        -3.5734   -3.9701    7.8555 C.ar      1 <0>        -0.1028
     24 C16        -2.8722   -5.1155    8.1767 C.ar      1 <0>        -0.0860
     25 C17        -1.6335   -5.3521    7.6091 C.ar      1 <0>        -0.1235
     26 C18        -1.0926   -4.4423    6.7176 C.ar      1 <0>        -0.0148
     27 C19        -1.7922   -3.2964    6.3881 C.ar      1 <0>        -0.1403
     28 Cl1         0.4624   -4.7438    6.0070 Cl        1 <0>        -0.0648
     29 H2         -0.8420   -0.3180   -0.4849 H         1 <0>         0.0569
     30 H3         -0.0417    1.2525   -0.7324 H         1 <0>         0.1026
     31 H4         -1.6424    0.9467   -1.4483 H         1 <0>         0.0570
     32 H5         -2.9009   -0.5819   -0.7643 H         1 <0>         0.1306
     33 H6         -5.0978   -1.5191   -0.1702 H         1 <0>         0.1291
     34 H7         -6.2712   -0.7285    1.8441 H         1 <0>         0.1275
     35 H8         -3.0505    1.9369    2.6851 H         1 <0>         0.1336
     36 H9         -5.1892    2.1758    3.8113 H         1 <0>         0.0788
     37 H10        -6.5316    1.0603    3.4621 H         1 <0>         0.0800
     38 H11        -4.4342   -0.4143    4.6466 H         1 <0>         0.4035
     39 H12        -5.2015   -1.4437   10.7888 H         1 <0>         0.2077
     40 H13        -3.6918   -1.5327    5.7350 H         1 <0>         0.4139
     41 H14        -4.5405   -3.7862    8.2997 H         1 <0>         0.1417
     42 H15        -3.2917   -5.8277    8.8718 H         1 <0>         0.1378
     43 H16        -1.0874   -6.2490    7.8617 H         1 <0>         0.1354
     44 H17        -1.3719   -2.5886    5.6890 H         1 <0>         0.1343
@<TRIPOS>BOND
     1    1    2 1
     2    1   29 1
     3    1   30 1
     4    1   31 1
     5    2    3 1
     6    3    8 ar
     7    3    4 ar
     8    4    5 ar
     9    4   32 1
    10    5    6 ar
    11    5   33 1
    12    6    7 ar
    13    6   34 1
    14    7    8 ar
    15    7    9 1
    16    8   35 1
    17    9   10 1
    18    9   36 1
    19    9   37 1
    20   10   11 1
    21   10   38 1
    22   11   16 2
    23   11   12 1
    24   12   20 ar
    25   12   13 ar
    26   13   14 1
    27   13   17 ar
    28   14   15 1
    29   14   16 1
    30   17   18 ar
    31   18   19 ar
    32   18   39 1
    33   19   20 ar
    34   20   21 1
    35   21   22 1
    36   21   40 1
    37   22   27 ar
    38   22   23 ar
    39   23   24 ar
    40   23   41 1
    41   24   25 ar
    42   24   42 1
    43   25   26 ar
    44   25   43 1
    45   26   27 ar
    46   26   28 1
    47   27   44 1
@<TRIPOS>MOLECULE
ZINC03815172
   48    50     0     0     0
SMALL
USER_CHARGES

@<TRIPOS>ATOM
      1 C1         -6.1817    2.6630   -1.1252 C.3       1 <0>        -0.0575
      2 C2         -6.7851    1.4931   -3.1574 C.3       1 <0>        -0.0446
      3 C3         -5.1107    0.5626   -1.6764 C.3       1 <0>        -0.0374
      4 C4         -4.8227    0.2232   -0.2126 C.3       1 <0>         0.0791
      5 N1         -3.5888   -0.5619   -0.1270 N.pl3     1 <0>        -0.6055
      6 C5         -3.6443   -2.0240   -0.1999 C.3       1 <0>         0.0711
      7 C6         -2.3630    0.0818    0.0237 C.ar      1 <0>         0.3748
      8 C7         -1.1975   -0.6654   -0.0016 C.ar      1 <0>        -0.1138
      9 C8          0.0199    0.0007    0.1514 C.ar      1 <0>        -0.0727
     10 C9          0.0114    1.4088    0.3255 C.ar      1 <0>         0.1401
     11 C10        -1.2200    2.0755    0.3424 C.ar      1 <0>         0.2167
     12 N2          1.1832    2.0418    0.4722 N.ar      1 <0>        -0.5280
     13 C11         2.3130    1.3791    0.4558 C.ar      1 <0>         0.3996
     14 N3          2.3968    0.0675    0.2981 N.ar      1 <0>        -0.5421
     15 C12         1.3108   -0.6806    0.1421 C.ar      1 <0>         0.4719
     16 N4          1.3992   -2.0476   -0.0228 N.pl3     1 <0>        -0.6003
     17 C13         2.6510   -2.6575   -0.1435 C.ar      1 <0>         0.1167
     18 C14         2.8501   -3.9416    0.3485 C.ar      1 <0>        -0.1141
     19 C15         4.0878   -4.5418    0.2275 C.ar      1 <0>        -0.0885
     20 C16         5.1289   -3.8668   -0.3832 C.ar      1 <0>        -0.0816
     21 C17         4.9344   -2.5882   -0.8748 C.ar      1 <0>        -0.0751
     22 C18         3.6967   -1.9836   -0.7606 C.ar      1 <0>        -0.0766
     23 Br1         6.3609   -1.6700   -1.7100 Br        1 <0>        -0.0227
     24 H1         -5.3834    3.2111   -1.6255 H         1 <0>         0.1267
     25 H2         -7.1124    3.2251   -1.2030 H         1 <0>         0.1386
     26 H3         -5.9260    2.5273   -0.0743 H         1 <0>         0.1173
     27 H4         -6.9681    0.5068   -3.5839 H         1 <0>         0.1275
     28 H5         -7.7030    2.0800   -3.1921 H         1 <0>         0.1333
     29 H6         -6.0086    1.9988   -3.7313 H         1 <0>         0.1263
     30 H7         -4.2825    1.1418   -2.0848 H         1 <0>         0.1311
     31 H8         -5.2260   -0.3588   -2.2471 H         1 <0>         0.1476
     32 H9         -5.6509   -0.3559    0.1958 H         1 <0>         0.1345
     33 H10        -4.7074    1.1446    0.3582 H         1 <0>         0.0910
     34 H11        -3.7590   -2.4337    0.8036 H         1 <0>         0.0887
     35 H12        -4.4927   -2.3252   -0.8144 H         1 <0>         0.0986
     36 H13        -2.7226   -2.4010   -0.6432 H         1 <0>         0.0918
     37 H14        -1.2293   -1.7366   -0.1359 H         1 <0>         0.1852
     38 H15        -1.2516    3.1470    0.4735 H         1 <0>         0.2208
     39 H16         3.2304    1.9358    0.5779 H         1 <0>         0.2250
     40 H17         0.5925   -2.5854   -0.0548 H         1 <0>         0.4264
     41 H18         2.0377   -4.4696    0.8256 H         1 <0>         0.1365
     42 H19         4.2428   -5.5399    0.6098 H         1 <0>         0.1471
     43 H20         6.0958   -4.3388   -0.4768 H         1 <0>         0.1450
     44 H21         3.5441   -0.9870   -1.1477 H         1 <0>         0.1465
     45 N5         -6.3685    1.3356   -1.7480 N.4       1 <0>        -0.3959
     46 H22        -7.1013    0.8282   -1.2383 H         1 <0>         0.4386
     47 N6         -2.4116    1.4433    0.1898 N.ar      1 <0>        -0.5005
     48 H23        -3.3012    1.9560    0.1983 H         1 <0>         0.4628
@<TRIPOS>BOND
     1    1   24 1
     2    1   25 1
     3    1   26 1
     4    1   45 1
     5    2   27 1
     6    2   28 1
     7    2   29 1
     8    2   45 1
     9    3    4 1
    10    3   30 1
    11    3   31 1
    12    3   45 1
    13    4    5 1
    14    4   32 1
    15    4   33 1
    16    5    6 1
    17    5    7 1
    18    6   34 1
    19    6   35 1
    20    6   36 1
    21    7    8 ar
    22    7   47 ar
    23    8    9 ar
    24    8   37 1
    25    9   15 ar
    26    9   10 ar
    27   10   11 ar
    28   10   12 ar
    29   11   38 1
    30   11   47 ar
    31   12   13 ar
    32   13   14 ar
    33   13   39 1
    34   14   15 ar
    35   15   16 1
    36   16   17 1
    37   16   40 1
    38   17   22 ar
    39   17   18 ar
    40   18   19 ar
    41   18   41 1
    42   19   20 ar
    43   19   42 1
    44   20   21 ar
    45   20   43 1
    46   21   22 ar
    47   21   23 1
    48   22   44 1
    49   45   46 1
    50   47   48 1
@<TRIPOS>MOLECULE
ZINC03815173
   54    56     0     0     0
SMALL
USER_CHARGES

@<TRIPOS>ATOM
      1 C1          0.4650  -11.0058    2.9589 C.3       1 <0>        -0.0473
      2 C2         -1.2277  -11.7177    1.3807 C.3       1 <0>        -0.0440
      3 C3         -0.4365   -9.4294    1.3574 C.3       1 <0>        -0.0073
      4 C4          0.8302   -8.5713    1.3551 C.3       1 <0>        -0.1511
      5 C5          0.4559   -7.1103    1.0976 C.3       1 <0>        -0.1159
      6 C6          1.7226   -6.2521    1.0953 C.3       1 <0>        -0.1352
      7 C7          1.3484   -4.7911    0.8377 C.3       1 <0>         0.1095
      8 N1          2.5612   -3.9694    0.8356 N.pl3     1 <0>        -0.7133
      9 C8          2.4720   -2.6003    0.6204 C.ar      1 <0>         0.4335
     10 C9          1.2299   -2.0292    0.4098 C.ar      1 <0>        -0.1944
     11 C10         1.1580   -0.6486    0.1946 C.ar      1 <0>         0.3072
     12 C11         2.3673    0.0969    0.2036 C.ar      1 <0>        -0.2621
     13 C12         3.5750   -0.5685    0.4254 C.ar      1 <0>         0.2696
     14 C13         2.2915    1.4922   -0.0143 C.ar      1 <0>         0.5204
     15 N2          1.0937    2.0291   -0.2162 N.ar      1 <0>        -0.5783
     16 C14        -0.0056    1.2930   -0.2154 C.ar      1 <0>         0.4319
     17 N3          0.0030   -0.0056   -0.0184 N.ar      1 <0>        -0.5584
     18 N4          3.4280    2.2722   -0.0180 N.pl3     1 <0>        -0.6032
     19 C15         3.3212    3.6627   -0.1146 C.ar      1 <0>         0.1155
     20 C16         2.2594    4.3230    0.4911 C.ar      1 <0>        -0.0818
     21 C17         2.1566    5.6966    0.3945 C.ar      1 <0>        -0.0913
     22 C18         3.1093    6.4157   -0.3040 C.ar      1 <0>        -0.0794
     23 C19         4.1680    5.7616   -0.9086 C.ar      1 <0>        -0.0758
     24 C20         4.2791    4.3874   -0.8114 C.ar      1 <0>        -0.1003
     25 Br1         5.4681    6.7494   -1.8625 Br        1 <0>        -0.0229
     26 H1         -0.2829  -10.7023    3.6914 H         1 <0>         0.1243
     27 H2          0.7227  -12.0533    3.1155 H         1 <0>         0.1250
     28 H3          1.3575  -10.3908    3.0746 H         1 <0>         0.1199
     29 H4         -1.5658  -11.6202    0.3491 H         1 <0>         0.1227
     30 H5         -0.9340  -12.7500    1.5708 H         1 <0>         0.1251
     31 H6         -2.0369  -11.4399    2.0560 H         1 <0>         0.1244
     32 H7         -1.1088   -9.0828    2.1422 H         1 <0>         0.1324
     33 H8         -0.9332   -9.3466    0.3907 H         1 <0>         0.1306
     34 H9          1.5025   -8.9179    0.5703 H         1 <0>         0.0887
     35 H10         1.3269   -8.6541    2.3219 H         1 <0>         0.0892
     36 H11        -0.2164   -6.7636    1.8823 H         1 <0>         0.0827
     37 H12        -0.0407   -7.0275    0.1308 H         1 <0>         0.0829
     38 H13         2.3949   -6.5988    0.3105 H         1 <0>         0.0806
     39 H14         2.2193   -6.3349    2.0620 H         1 <0>         0.0803
     40 H15         0.6760   -4.4445    1.6225 H         1 <0>         0.0893
     41 H16         0.8517   -4.7083   -0.1290 H         1 <0>         0.0893
     42 H17         3.4266   -4.3816    0.9845 H         1 <0>         0.4167
     43 H18         0.3360   -2.6352    0.4111 H         1 <0>         0.1886
     44 H19         4.5024   -0.0151    0.4350 H         1 <0>         0.1983
     45 H20        -0.9530    1.7815   -0.3890 H         1 <0>         0.2233
     46 H21         4.3019    1.8563    0.0464 H         1 <0>         0.4248
     47 H22         1.5149    3.7624    1.0368 H         1 <0>         0.1414
     48 H23         1.3313    6.2102    0.8653 H         1 <0>         0.1459
     49 H24         3.0268    7.4900   -0.3774 H         1 <0>         0.1446
     50 H25         5.1079    3.8775   -1.2799 H         1 <0>         0.1393
     51 N5         -0.0567  -10.8395    1.5860 N.4       1 <0>        -0.3989
     52 H26         0.6770  -11.1000    0.9166 H         1 <0>         0.4312
     53 N6          3.6583   -1.9074    0.6355 N.ar      1 <0>        -0.5413
     54 H27         4.5576   -2.3758    0.7966 H         1 <0>         0.4732
@<TRIPOS>BOND
     1    1   26 1
     2    1   27 1
     3    1   28 1
     4    1   51 1
     5    2   29 1
     6    2   30 1
     7    2   31 1
     8    2   51 1
     9    3    4 1
    10    3   32 1
    11    3   33 1
    12    3   51 1
    13    4    5 1
    14    4   34 1
    15    4   35 1
    16    5    6 1
    17    5   36 1
    18    5   37 1
    19    6    7 1
    20    6   38 1
    21    6   39 1
    22    7    8 1
    23    7   40 1
    24    7   41 1
    25    8    9 1
    26    8   42 1
    27    9   10 ar
    28    9   53 ar
    29   10   11 ar
    30   10   43 1
    31   11   17 ar
    32   11   12 ar
    33   12   13 ar
    34   12   14 ar
    35   13   44 1
    36   13   53 ar
    37   14   15 ar
    38   14   18 1
    39   15   16 ar
    40   16   17 ar
    41   16   45 1
    42   18   19 1
    43   18   46 1
    44   19   24 ar
    45   19   20 ar
    46   20   21 ar
    47   20   47 1
    48   21   22 ar
    49   21   48 1
    50   22   23 ar
    51   22   49 1
    52   23   24 ar
    53   23   25 1
    54   24   50 1
    55   51   52 1
    56   53   54 1
@<TRIPOS>MOLECULE
ZINC03815174
   55    59     0     0     0
SMALL
USER_CHARGES

@<TRIPOS>ATOM
      1 C1         -6.1715    5.8881    0.4752 C.ar      1 <0>        -0.0926
      2 C2         -4.9417    5.2657    0.5656 C.ar      1 <0>        -0.0911
      3 C3         -3.8283    5.8400   -0.0342 C.ar      1 <0>         0.1512
      4 C4         -3.9542    7.0422   -0.7186 C.ar      1 <0>        -0.1163
      5 C5         -5.1881    7.6572   -0.8099 C.ar      1 <0>        -0.0723
      6 C6         -6.2953    7.0819   -0.2110 C.ar      1 <0>        -0.0993
      7 Br1        -5.3628    9.2902   -1.7473 Br        1 <0>        -0.0398
      8 N1         -2.5826    5.2123    0.0556 N.pl3     1 <0>        -0.6345
      9 C7         -2.5014    3.8356    0.0419 C.ar      1 <0>         0.4814
     10 C8         -1.2632    3.1770    0.2533 C.ar      1 <0>        -0.2044
     11 C9         -0.0852    3.8865    0.4824 C.ar      1 <0>        -0.0109
     12 C10         1.0991    3.1920    0.6832 C.ar      1 <0>        -0.1149
     13 C11         2.4819    3.6086    0.9440 C.2       1 <0>        -0.1837
     14 C12         3.2149    2.4916    1.0541 C.2       1 <0>         0.0559
     15 N2          2.4204    1.3876    0.8860 N.pl3     1 <0>        -0.5043
     16 C13         1.1176    1.7772    0.6568 C.ar      1 <0>         0.1572
     17 C14        -0.0484    1.0704    0.4295 C.ar      1 <0>        -0.1467
     18 C15        -1.2455    1.7574    0.2198 C.ar      1 <0>         0.2066
     19 N3         -2.4011    1.1053    0.0027 N.ar      1 <0>        -0.5586
     20 C16        -3.5151    1.7695   -0.1859 C.ar      1 <0>         0.3587
     21 N4         -3.5787    3.0923   -0.1697 N.ar      1 <0>        -0.5908
     22 C17         2.8860   -0.0003    0.9416 C.3       1 <0>         0.1208
     23 C18         3.1886   -0.4939   -0.4746 C.3       1 <0>        -0.1742
     24 C19         3.6749   -1.9434   -0.4165 C.3       1 <0>        -0.0010
     25 C20         2.7368   -2.4994   -2.5793 C.3       1 <0>        -0.0434
     26 C21         3.0920   -2.9387   -4.0023 C.3       1 <0>         0.0353
     27 O1          3.7895   -4.1861   -3.9506 O.3       1 <0>        -0.3556
     28 C22         4.9915   -4.1420   -3.1770 C.3       1 <0>         0.0341
     29 C23         4.6556   -3.7150   -1.7457 C.3       1 <0>        -0.0385
     30 H1         -7.0374    5.4417    0.9414 H         1 <0>         0.1386
     31 H2         -4.8461    4.3331    1.1018 H         1 <0>         0.1405
     32 H3         -3.0894    7.4937   -1.1819 H         1 <0>         0.1348
     33 H4         -7.2579    7.5667   -0.2795 H         1 <0>         0.1370
     34 H5         -1.7751    5.7451    0.1276 H         1 <0>         0.4222
     35 H6         -0.0943    4.9663    0.5032 H         1 <0>         0.1322
     36 H7          2.8411    4.6234    1.0308 H         1 <0>         0.1563
     37 H8          4.2772    2.4655    1.2471 H         1 <0>         0.1743
     38 H9         -0.0325   -0.0093    0.4097 H         1 <0>         0.1318
     39 H10        -4.4231    1.2124   -0.3632 H         1 <0>         0.1979
     40 H11         3.7908   -0.0560    1.5469 H         1 <0>         0.1029
     41 H12         2.1121   -0.6256    1.3867 H         1 <0>         0.0975
     42 H13         2.2838   -0.4382   -1.0798 H         1 <0>         0.0947
     43 H14         3.9626    0.1314   -0.9197 H         1 <0>         0.0950
     44 H15         4.5797   -1.9991    0.1888 H         1 <0>         0.1354
     45 H16         2.9010   -2.5687    0.0286 H         1 <0>         0.1365
     46 H17         2.0580   -3.2261   -2.1329 H         1 <0>         0.1425
     47 H18         2.2557   -1.5218   -2.6096 H         1 <0>         0.1403
     48 H19         3.7275   -2.1853   -4.4678 H         1 <0>         0.0808
     49 H20         2.1791   -3.0560   -4.5862 H         1 <0>         0.1426
     50 H21         5.6823   -3.4237   -3.6185 H         1 <0>         0.0810
     51 H22         5.4521   -5.1299   -3.1635 H         1 <0>         0.1427
     52 H23         5.5751   -3.6247   -1.1675 H         1 <0>         0.1417
     53 H24         4.0075   -4.4611   -1.2859 H         1 <0>         0.1414
     54 N5          3.9822   -2.4002   -1.7892 N.4       1 <0>        -0.3956
     55 H25         4.6076   -1.7191   -2.2354 H         1 <0>         0.4269
@<TRIPOS>BOND
     1    1    6 ar
     2    1    2 ar
     3    1   30 1
     4    2    3 ar
     5    2   31 1
     6    3    4 ar
     7    3    8 1
     8    4    5 ar
     9    4   32 1
    10    5    6 ar
    11    5    7 1
    12    6   33 1
    13    8    9 1
    14    8   34 1
    15    9   21 ar
    16    9   10 ar
    17   10   18 ar
    18   10   11 ar
    19   11   12 ar
    20   11   35 1
    21   12   16 ar
    22   12   13 1
    23   13   14 2
    24   13   36 1
    25   14   15 1
    26   14   37 1
    27   15   16 1
    28   15   22 1
    29   16   17 ar
    30   17   18 ar
    31   17   38 1
    32   18   19 ar
    33   19   20 ar
    34   20   21 ar
    35   20   39 1
    36   22   23 1
    37   22   40 1
    38   22   41 1
    39   23   24 1
    40   23   42 1
    41   23   43 1
    42   24   44 1
    43   24   45 1
    44   24   54 1
    45   25   26 1
    46   25   46 1
    47   25   47 1
    48   25   54 1
    49   26   27 1
    50   26   48 1
    51   26   49 1
    52   27   28 1
    53   28   29 1
    54   28   50 1
    55   28   51 1
    56   29   52 1
    57   29   53 1
    58   29   54 1
    59   54   55 1
@<TRIPOS>MOLECULE
ZINC03815175
   48    50     0     0     0
SMALL
USER_CHARGES

@<TRIPOS>ATOM
      1 C1         -0.3822   -9.3279    1.5895 C.3       1 <0>        -0.0445
      2 C2          1.6048   -9.0582    0.2325 C.3       1 <0>        -0.0490
      3 C3          0.4559   -7.1103    1.0976 C.3       1 <0>        -0.0027
      4 C4          1.7226   -6.2521    1.0953 C.3       1 <0>        -0.1681
      5 C5          1.3484   -4.7911    0.8377 C.3       1 <0>         0.1175
      6 N1          2.5612   -3.9694    0.8356 N.pl3     1 <0>        -0.7196
      7 C6          2.4720   -2.6003    0.6204 C.ar      1 <0>         0.4316
      8 C7          1.2299   -2.0292    0.4098 C.ar      1 <0>        -0.1924
      9 C8          1.1580   -0.6486    0.1946 C.ar      1 <0>         0.3086
     10 C9          2.3673    0.0969    0.2036 C.ar      1 <0>        -0.2611
     11 C10         3.5750   -0.5685    0.4254 C.ar      1 <0>         0.2726
     12 C11         2.2915    1.4922   -0.0143 C.ar      1 <0>         0.5201
     13 N2          1.0937    2.0291   -0.2162 N.ar      1 <0>        -0.5759
     14 C12        -0.0056    1.2930   -0.2154 C.ar      1 <0>         0.4350
     15 N3          0.0030   -0.0056   -0.0184 N.ar      1 <0>        -0.5579
     16 N4          3.4280    2.2722   -0.0180 N.pl3     1 <0>        -0.6000
     17 C13         3.3212    3.6627   -0.1146 C.ar      1 <0>         0.1123
     18 C14         2.2594    4.3230    0.4911 C.ar      1 <0>        -0.0812
     19 C15         2.1566    5.6966    0.3945 C.ar      1 <0>        -0.0911
     20 C16         3.1093    6.4157   -0.3040 C.ar      1 <0>        -0.0776
     21 C17         4.1680    5.7616   -0.9086 C.ar      1 <0>        -0.0760
     22 C18         4.2791    4.3874   -0.8114 C.ar      1 <0>        -0.0990
     23 Br1         5.4681    6.7494   -1.8625 Br        1 <0>        -0.0212
     24 H1         -1.0364   -9.2830    0.7188 H         1 <0>         0.1267
     25 H2         -0.0876  -10.3618    1.7697 H         1 <0>         0.1277
     26 H3         -0.9113   -8.9437    2.4617 H         1 <0>         0.1248
     27 H4          2.5203   -8.4779    0.1181 H         1 <0>         0.1188
     28 H5          1.8573  -10.0978    0.4414 H         1 <0>         0.1280
     29 H6          1.0226   -9.0035   -0.6874 H         1 <0>         0.1267
     30 H7         -0.2164   -6.7636    1.8823 H         1 <0>         0.1374
     31 H8         -0.0407   -7.0275    0.1308 H         1 <0>         0.1389
     32 H9          2.3949   -6.5988    0.3105 H         1 <0>         0.1004
     33 H10         2.2193   -6.3349    2.0620 H         1 <0>         0.1003
     34 H11         0.6760   -4.4445    1.6225 H         1 <0>         0.0969
     35 H12         0.8517   -4.7083   -0.1290 H         1 <0>         0.0966
     36 H13         3.4266   -4.3816    0.9845 H         1 <0>         0.4178
     37 H14         0.3360   -2.6352    0.4111 H         1 <0>         0.1886
     38 H15         4.5024   -0.0151    0.4350 H         1 <0>         0.1996
     39 H16        -0.9530    1.7815   -0.3890 H         1 <0>         0.2248
     40 H17         4.3019    1.8563    0.0464 H         1 <0>         0.4252
     41 H18         1.5149    3.7624    1.0368 H         1 <0>         0.1412
     42 H19         1.3313    6.2102    0.8653 H         1 <0>         0.1466
     43 H20         3.0268    7.4900   -0.3774 H         1 <0>         0.1454
     44 H21         5.1079    3.8775   -1.2799 H         1 <0>         0.1396
     45 N5          0.8315   -8.5139    1.3685 N.4       1 <0>        -0.3977
     46 H22         1.4133   -8.5462    2.2139 H         1 <0>         0.4325
     47 N6          3.6583   -1.9074    0.6355 N.ar      1 <0>        -0.5409
     48 H23         4.5576   -2.3758    0.7966 H         1 <0>         0.4738
@<TRIPOS>BOND
     1    1   24 1
     2    1   25 1
     3    1   26 1
     4    1   45 1
     5    2   27 1
     6    2   28 1
     7    2   29 1
     8    2   45 1
     9    3    4 1
    10    3   30 1
    11    3   31 1
    12    3   45 1
    13    4    5 1
    14    4   32 1
    15    4   33 1
    16    5    6 1
    17    5   34 1
    18    5   35 1
    19    6    7 1
    20    6   36 1
    21    7    8 ar
    22    7   47 ar
    23    8    9 ar
    24    8   37 1
    25    9   15 ar
    26    9   10 ar
    27   10   11 ar
    28   10   12 ar
    29   11   38 1
    30   11   47 ar
    31   12   13 ar
    32   12   16 1
    33   13   14 ar
    34   14   15 ar
    35   14   39 1
    36   16   17 1
    37   16   40 1
    38   17   22 ar
    39   17   18 ar
    40   18   19 ar
    41   18   41 1
    42   19   20 ar
    43   19   42 1
    44   20   21 ar
    45   20   43 1
    46   21   22 ar
    47   21   23 1
    48   22   44 1
    49   45   46 1
    50   47   48 1
@<TRIPOS>MOLECULE
ZINC03815176
   33    35     0     0     0
SMALL
USER_CHARGES

@<TRIPOS>ATOM
      1 C1          2.1259    9.7741   -0.2114 C.3       1 <0>         0.0721
      2 N1          0.7879   10.3641   -0.2994 N.pl3     1 <0>        -0.7127
      3 C2         -0.3375    9.5437   -0.2815 C.ar      1 <0>         0.3974
      4 C3         -0.1750    8.1724   -0.1797 C.ar      1 <0>        -0.1367
      5 C4         -1.3170    7.3694   -0.1637 C.ar      1 <0>        -0.0662
      6 C5         -2.5900    7.9897   -0.2515 C.ar      1 <0>         0.1212
      7 C6         -2.6511    9.3852   -0.3514 C.ar      1 <0>         0.2186
      8 N2         -3.6818    7.2133   -0.2346 N.ar      1 <0>        -0.5286
      9 C7         -3.5803    5.9107   -0.1393 C.ar      1 <0>         0.3826
     10 N3         -2.4278    5.2645   -0.0595 N.ar      1 <0>        -0.5485
     11 C8         -1.2696    5.9142   -0.0596 C.ar      1 <0>         0.4699
     12 N4         -0.0691    5.2401    0.0295 N.pl3     1 <0>        -0.6070
     13 C9         -0.0492    3.8426    0.0113 C.ar      1 <0>         0.1177
     14 C10        -0.9944    3.1426   -0.7277 C.ar      1 <0>        -0.1033
     15 C11        -0.9722    1.7618   -0.7432 C.ar      1 <0>        -0.0991
     16 C12        -0.0107    1.0761   -0.0237 C.ar      1 <0>        -0.1145
     17 C13         0.9283    1.7698    0.7176 C.ar      1 <0>        -0.0985
     18 C14         0.9156    3.1507    0.7325 C.ar      1 <0>        -0.1319
     19 H1          2.2183    9.2207    0.7231 H         1 <0>         0.0786
     20 H2          2.2804    9.0969   -1.0515 H         1 <0>         0.0788
     21 H3          2.8747   10.5657   -0.2404 H         1 <0>         0.1058
     22 H4          0.6857   11.3261   -0.3700 H         1 <0>         0.4208
     23 H5          0.8103    7.7349   -0.1145 H         1 <0>         0.1796
     24 H6         -3.6088    9.8798   -0.4194 H         1 <0>         0.2170
     25 H7         -4.4905    5.3295   -0.1299 H         1 <0>         0.2183
     26 H8          0.7612    5.7360    0.1047 H         1 <0>         0.4244
     27 H9         -1.7461    3.6775   -1.2893 H         1 <0>         0.1371
     28 H10        -1.7068    1.2169   -1.3175 H         1 <0>         0.1330
     29 H11         0.0043   -0.0037   -0.0372 H         1 <0>         0.1312
     30 H12         1.6751    1.2312    1.2819 H         1 <0>         0.1336
     31 H13         1.6517    3.6920    1.3083 H         1 <0>         0.1279
     32 N5         -1.5505   10.1798   -0.3683 N.ar      1 <0>        -0.4960
     33 H14        -1.6218   11.2014   -0.4422 H         1 <0>         0.4774
@<TRIPOS>BOND
     1    1    2 1
     2    1   19 1
     3    1   20 1
     4    1   21 1
     5    2    3 1
     6    2   22 1
     7    3    4 ar
     8    3   32 ar
     9    4    5 ar
    10    4   23 1
    11    5   11 ar
    12    5    6 ar
    13    6    7 ar
    14    6    8 ar
    15    7   24 1
    16    7   32 ar
    17    8    9 ar
    18    9   10 ar
    19    9   25 1
    20   10   11 ar
    21   11   12 1
    22   12   13 1
    23   12   26 1
    24   13   18 ar
    25   13   14 ar
    26   14   15 ar
    27   14   27 1
    28   15   16 ar
    29   15   28 1
    30   16   17 ar
    31   16   29 1
    32   17   18 ar
    33   17   30 1
    34   18   31 1
    35   32   33 1
@<TRIPOS>MOLECULE
ZINC03815177
   53    55     0     0     0
SMALL
USER_CHARGES

@<TRIPOS>ATOM
      1 C1         -0.7343    6.9530    2.6860 C.ar      1 <0>        -0.0911
      2 C2         -0.3361    5.6412    2.5170 C.ar      1 <0>        -0.0815
      3 C3          0.7594    5.3469    1.7154 C.ar      1 <0>         0.1101
      4 C4          1.4546    6.3741    1.0900 C.ar      1 <0>        -0.0987
      5 C5          1.0487    7.6840    1.2595 C.ar      1 <0>        -0.0760
      6 C6         -0.0437    7.9732    2.0587 C.ar      1 <0>        -0.0769
      7 Br1         1.9903    9.0831    0.4042 Br        1 <0>        -0.0202
      8 N1          1.1649    4.0203    1.5429 N.pl3     1 <0>        -0.5972
      9 C7          0.2266    3.0109    1.5150 C.ar      1 <0>         0.5198
     10 C8          0.6196    1.6538    1.4539 C.ar      1 <0>        -0.2605
     11 C9          1.9582    1.2556    1.4193 C.ar      1 <0>         0.2758
     12 C10         1.3384   -0.9786    1.3359 C.ar      1 <0>         0.4303
     13 C11        -0.0117   -0.6809    1.3671 C.ar      1 <0>        -0.1900
     14 C12        -0.3978    0.6630    1.4276 C.ar      1 <0>         0.3101
     15 N2         -1.6790    1.0500    1.4611 N.ar      1 <0>        -0.5563
     16 C13        -1.9842    2.3263    1.5173 C.ar      1 <0>         0.4368
     17 N3         -1.0726    3.2847    1.5436 N.ar      1 <0>        -0.5741
     18 N4          1.7386   -2.3072    1.2758 N.pl3     1 <0>        -0.7190
     19 C14         0.7349   -3.3740    1.2462 C.3       1 <0>         0.0912
     20 C15         1.4361   -4.7323    1.1806 C.3       1 <0>        -0.0225
     21 C16        -0.1446   -5.9026   -0.2316 C.3       1 <0>        -0.0061
     22 C17        -1.3517   -6.8423   -0.2020 C.3       1 <0>         0.0434
     23 O1         -2.3821   -6.2689    0.6052 O.3       1 <0>        -0.5799
     24 C18         0.9974   -7.0853    1.5459 C.3       1 <0>        -0.0081
     25 C19         1.1147   -7.1070    3.0713 C.3       1 <0>         0.0438
     26 O2         -0.1892   -7.0261    3.6504 O.3       1 <0>        -0.5774
     27 H1         -1.5861    7.1820    3.3092 H         1 <0>         0.1469
     28 H2         -0.8763    4.8449    3.0074 H         1 <0>         0.1428
     29 H3          2.3093    6.1490    0.4694 H         1 <0>         0.1398
     30 H4         -0.3570    8.9980    2.1928 H         1 <0>         0.1457
     31 H5          2.1066    3.8101    1.4429 H         1 <0>         0.4256
     32 H6          2.7428    1.9975    1.4390 H         1 <0>         0.2014
     33 H7         -0.7514   -1.4675    1.3449 H         1 <0>         0.1882
     34 H8         -3.0270    2.6063    1.5385 H         1 <0>         0.2261
     35 H9          2.6827   -2.5288    1.2535 H         1 <0>         0.4218
     36 H10         0.1243   -3.3234    2.1477 H         1 <0>         0.1076
     37 H11         0.0992   -3.2505    0.3694 H         1 <0>         0.1059
     38 H12         2.0663   -4.7733    0.2923 H         1 <0>         0.1447
     39 H13         2.0522   -4.8664    2.0697 H         1 <0>         0.1403
     40 H14        -0.4611   -4.9152   -0.5676 H         1 <0>         0.1360
     41 H15         0.6058   -6.2965   -0.9171 H         1 <0>         0.1480
     42 H16        -1.7235   -6.9883   -1.2162 H         1 <0>         0.0990
     43 H17        -1.0538   -7.8032    0.2176 H         1 <0>         0.0746
     44 H18        -3.1797   -6.8119    0.6690 H         1 <0>         0.4144
     45 H19         0.3471   -7.8970    1.2199 H         1 <0>         0.1445
     46 H20         1.9857   -7.2116    1.1037 H         1 <0>         0.1482
     47 H21         1.5950   -8.0336    3.3856 H         1 <0>         0.1003
     48 H22         1.7124   -6.2576    3.4019 H         1 <0>         0.0671
     49 H23        -0.1913   -7.0348    4.6173 H         1 <0>         0.4126
     50 N5          2.3456   -0.0441    1.3606 N.ar      1 <0>        -0.5390
     51 H24         3.3360   -0.3139    1.3359 H         1 <0>         0.4752
     52 N6          0.4083   -5.7935    1.1348 N.4       1 <0>        -0.3904
     53 H25        -0.3502   -5.5515    1.7832 H         1 <0>         0.4467
@<TRIPOS>BOND
     1    1    6 ar
     2    1    2 ar
     3    1   27 1
     4    2    3 ar
     5    2   28 1
     6    3    4 ar
     7    3    8 1
     8    4    5 ar
     9    4   29 1
    10    5    6 ar
    11    5    7 1
    12    6   30 1
    13    8    9 1
    14    8   31 1
    15    9   17 ar
    16    9   10 ar
    17   10   14 ar
    18   10   11 ar
    19   11   32 1
    20   11   50 ar
    21   12   13 ar
    22   12   18 1
    23   12   50 ar
    24   13   14 ar
    25   13   33 1
    26   14   15 ar
    27   15   16 ar
    28   16   17 ar
    29   16   34 1
    30   18   19 1
    31   18   35 1
    32   19   20 1
    33   19   36 1
    34   19   37 1
    35   20   38 1
    36   20   39 1
    37   20   52 1
    38   21   22 1
    39   21   40 1
    40   21   41 1
    41   21   52 1
    42   22   23 1
    43   22   42 1
    44   22   43 1
    45   23   44 1
    46   24   25 1
    47   24   45 1
    48   24   46 1
    49   24   52 1
    50   25   26 1
    51   25   47 1
    52   25   48 1
    53   26   49 1
    54   50   51 1
    55   52   53 1
@<TRIPOS>MOLECULE
ZINC03815178
   56    59     0     0     0
SMALL
USER_CHARGES

@<TRIPOS>ATOM
      1 C1         -1.9876    0.9754   -1.4828 C.3       1 <0>        -0.1228
      2 C2         -0.9700    1.7492   -0.6848 C.ar      1 <0>        -0.0607
      3 C3         -0.0172    1.0758    0.0579 C.ar      1 <0>        -0.1073
      4 C4          0.9217    1.7819    0.7869 C.ar      1 <0>        -0.0949
      5 C5          0.9074    3.1631    0.7801 C.ar      1 <0>        -0.1023
      6 C6         -0.0515    3.8425    0.0400 C.ar      1 <0>         0.1061
      7 C7         -0.9935    3.1299   -0.6914 C.ar      1 <0>        -0.1282
      8 N1         -0.0691    5.2402    0.0313 N.pl3     1 <0>        -0.5962
      9 C8          1.1117    5.9450    0.1283 C.ar      1 <0>         0.5172
     10 C9          1.1105    7.3549    0.2380 C.ar      1 <0>        -0.2611
     11 C10        -0.0649    8.1095    0.2667 C.ar      1 <0>         0.2715
     12 C11         1.1493   10.0761    0.4689 C.ar      1 <0>         0.4306
     13 C12         2.3633    9.4141    0.4546 C.ar      1 <0>        -0.1931
     14 C13         2.3618    8.0193    0.3396 C.ar      1 <0>         0.3089
     15 N2          3.4849    7.2909    0.3171 N.ar      1 <0>        -0.5599
     16 C14         3.4244    5.9834    0.2078 C.ar      1 <0>         0.4338
     17 N3          2.2834    5.3200    0.1159 N.ar      1 <0>        -0.5743
     18 N4          1.1330   11.4602    0.5829 N.pl3     1 <0>        -0.7208
     19 C15         2.3924   12.2016    0.6862 C.3       1 <0>         0.1185
     20 C16         2.0954   13.6981    0.8001 C.3       1 <0>        -0.1674
     21 C17         3.4106   14.4724    0.9079 C.3       1 <0>        -0.0010
     22 C18         2.5253   16.4232   -0.2225 C.3       1 <0>        -0.0430
     23 C19         2.1902   17.9063   -0.0442 C.3       1 <0>         0.0337
     24 O1          3.3767   18.6178    0.3184 O.3       1 <0>        -0.3528
     25 C20         3.9870   18.1438    1.5218 C.3       1 <0>         0.0330
     26 C21         4.3404   16.6630    1.3594 C.3       1 <0>        -0.0386
     27 H1         -2.8658    0.7862   -0.8656 H         1 <0>         0.0789
     28 H2         -2.2777    1.5538   -2.3600 H         1 <0>         0.0700
     29 H3         -1.5552    0.0264   -1.8001 H         1 <0>         0.0762
     30 H4         -0.0039   -0.0041    0.0648 H         1 <0>         0.1343
     31 H5          1.6673    1.2530    1.3619 H         1 <0>         0.1363
     32 H6          1.6409    3.7141    1.3501 H         1 <0>         0.1366
     33 H7         -1.7403    3.6551   -1.2683 H         1 <0>         0.1288
     34 H8         -0.9121    5.7142   -0.0430 H         1 <0>         0.4233
     35 H9         -1.0238    7.6180    0.1945 H         1 <0>         0.1989
     36 H10         3.2915    9.9610    0.5300 H         1 <0>         0.1879
     37 H11         4.3482    5.4242    0.1926 H         1 <0>         0.2240
     38 H12         0.2878   11.9360    0.5942 H         1 <0>         0.4173
     39 H13         2.9372   11.8709    1.5704 H         1 <0>         0.0970
     40 H14         2.9962   12.0176   -0.2025 H         1 <0>         0.0968
     41 H15         1.5505   14.0288   -0.0842 H         1 <0>         0.1000
     42 H16         1.4916   13.8821    1.6888 H         1 <0>         0.1007
     43 H17         3.9554   14.1417    1.7922 H         1 <0>         0.1394
     44 H18         4.0144   14.2884    0.0193 H         1 <0>         0.1401
     45 H19         3.2314   16.3058   -1.0445 H         1 <0>         0.1433
     46 H20         1.6136   15.8680   -0.4429 H         1 <0>         0.1374
     47 H21         1.4437   18.0189    0.7420 H         1 <0>         0.0816
     48 H22         1.7978   18.3058   -0.9794 H         1 <0>         0.1435
     49 H23         3.2928   18.2632    2.3536 H         1 <0>         0.0827
     50 H24         4.8942   18.7149    1.7192 H         1 <0>         0.1459
     51 H25         4.7536   16.2828    2.2937 H         1 <0>         0.1440
     52 H26         5.0755   16.5495    0.5627 H         1 <0>         0.1436
     53 N5         -0.0768    9.4624    0.3778 N.ar      1 <0>        -0.5419
     54 H27        -0.9531    9.9973    0.3930 H         1 <0>         0.4731
     55 N6          3.1077   15.9142    1.0373 N.4       1 <0>        -0.3964
     56 H28         2.4289   16.0458    1.7964 H         1 <0>         0.4277
@<TRIPOS>BOND
     1    1    2 1
     2    1   27 1
     3    1   28 1
     4    1   29 1
     5    2    7 ar
     6    2    3 ar
     7    3    4 ar
     8    3   30 1
     9    4    5 ar
    10    4   31 1
    11    5    6 ar
    12    5   32 1
    13    6    7 ar
    14    6    8 1
    15    7   33 1
    16    8    9 1
    17    8   34 1
    18    9   17 ar
    19    9   10 ar
    20   10   14 ar
    21   10   11 ar
    22   11   35 1
    23   11   53 ar
    24   12   13 ar
    25   12   18 1
    26   12   53 ar
    27   13   14 ar
    28   13   36 1
    29   14   15 ar
    30   15   16 ar
    31   16   17 ar
    32   16   37 1
    33   18   19 1
    34   18   38 1
    35   19   20 1
    36   19   39 1
    37   19   40 1
    38   20   21 1
    39   20   41 1
    40   20   42 1
    41   21   43 1
    42   21   44 1
    43   21   55 1
    44   22   23 1
    45   22   45 1
    46   22   46 1
    47   22   55 1
    48   23   24 1
    49   23   47 1
    50   23   48 1
    51   24   25 1
    52   25   26 1
    53   25   49 1
    54   25   50 1
    55   26   51 1
    56   26   52 1
    57   26   55 1
    58   53   54 1
    59   55   56 1
@<TRIPOS>MOLECULE
ZINC03815179
   33    36     0     0     0
SMALL
USER_CHARGES

@<TRIPOS>ATOM
      1 C1         -9.9562    1.1299   -0.2086 C.ar      1 <0>        -0.1358
      2 C2         -9.6976    2.3443    0.4002 C.ar      1 <0>        -0.0987
      3 C3         -8.4003    2.8080    0.4962 C.ar      1 <0>        -0.1482
      4 C4         -7.3545    2.0529   -0.0196 C.ar      1 <0>         0.1531
      5 C5         -7.6185    0.8359   -0.6353 C.ar      1 <0>        -0.1146
      6 C6         -8.9176    0.3760   -0.7236 C.ar      1 <0>        -0.0990
      7 N1         -6.0405    2.5194    0.0754 N.pl3     1 <0>        -0.6441
      8 C7         -4.9941    1.6202    0.2188 C.ar      1 <0>         0.4824
      9 C8         -3.6746    2.0536    0.2003 C.ar      1 <0>        -0.2730
     10 C9         -2.6176    1.1472    0.3454 C.ar      1 <0>         0.2149
     11 C10        -1.2599    1.7250    0.3037 C.ar      1 <0>        -0.0378
     12 C11        -0.0320    1.0379    0.4319 C.ar      1 <0>        -0.1301
     13 C12         1.1622    1.7209    0.3785 C.ar      1 <0>         0.2118
     14 C13         1.1931    3.1027    0.2032 C.ar      1 <0>        -0.1471
     15 C14         0.0068    3.7969    0.0811 C.ar      1 <0>        -0.0357
     16 C15        -1.1940    3.1174    0.1339 C.ar      1 <0>        -0.1327
     17 S1         -2.8894    3.6316    0.0210 S.3       1 <0>         0.0703
     18 N2          2.3651    1.0155    0.5020 N.pl3     1 <0>        -0.8759
     19 N3         -2.9650   -0.1503    0.5011 N.ar      1 <0>        -0.5274
     20 C16        -4.2198   -0.5233    0.5137 C.ar      1 <0>         0.3365
     21 N4         -5.2285    0.3183    0.3782 N.ar      1 <0>        -0.5448
     22 H1        -10.9717    0.7697   -0.2824 H         1 <0>         0.1234
     23 H2        -10.5110    2.9307    0.8014 H         1 <0>         0.1264
     24 H3         -8.1990    3.7566    0.9715 H         1 <0>         0.1241
     25 H4         -6.8082    0.2484   -1.0411 H         1 <0>         0.1352
     26 H5         -9.1232   -0.5717   -1.1991 H         1 <0>         0.1258
     27 H6         -5.8603    3.4718    0.0410 H         1 <0>         0.4213
     28 H7         -0.0300   -0.0334    0.5686 H         1 <0>         0.1339
     29 H8          2.1371    3.6259    0.1635 H         1 <0>         0.1390
     30 H9          0.0175    4.8683   -0.0548 H         1 <0>         0.1399
     31 H10         2.3527    0.0533    0.6240 H         1 <0>         0.4014
     32 H11         3.2109    1.4889    0.4655 H         1 <0>         0.4017
     33 H12        -4.4413   -1.5725    0.6417 H         1 <0>         0.2037
@<TRIPOS>BOND
     1    1    6 ar
     2    1    2 ar
     3    1   22 1
     4    2    3 ar
     5    2   23 1
     6    3    4 ar
     7    3   24 1
     8    4    5 ar
     9    4    7 1
    10    5    6 ar
    11    5   25 1
    12    6   26 1
    13    7    8 1
    14    7   27 1
    15    8   21 ar
    16    8    9 ar
    17    9   17 1
    18    9   10 ar
    19   10   11 1
    20   10   19 ar
    21   11   16 ar
    22   11   12 ar
    23   12   13 ar
    24   12   28 1
    25   13   14 ar
    26   13   18 1
    27   14   15 ar
    28   14   29 1
    29   15   16 ar
    30   15   30 1
    31   16   17 1
    32   18   31 1
    33   18   32 1
    34   19   20 ar
    35   20   21 ar
    36   20   33 1
@<TRIPOS>MOLECULE
ZINC03815180
   39    42     0     0     0
SMALL
USER_CHARGES

@<TRIPOS>ATOM
      1 C1          2.9488    3.9719   -1.6292 C.3       1 <0>        -0.0863
      2 C2          3.9509    3.2254   -0.7868 C.2       1 <0>        -0.1143
      3 C3          5.3540    3.5718   -0.5926 C.ar      1 <0>        -0.2488
      4 C4          5.8909    2.5939    0.2679 C.ar      1 <0>         0.3544
      5 N1          4.8827    1.7219    0.5765 N.pl3     1 <0>        -0.5605
      6 H1          4.9723    0.9502    1.1572 H         1 <0>         0.4237
      7 C5          3.7216    2.1009   -0.0625 C.2       1 <0>         0.1117
      8 C6          2.4257    1.3953    0.0318 C.ar      1 <0>        -0.0354
      9 C7          1.2478    2.1167    0.2320 C.ar      1 <0>        -0.0920
     10 C8          0.0418    1.4523    0.3182 C.ar      1 <0>        -0.1164
     11 C9         -0.0015    0.0738    0.2071 C.ar      1 <0>        -0.1089
     12 C10         1.1626   -0.6473    0.0095 C.ar      1 <0>        -0.1161
     13 C11         2.3751    0.0049   -0.0789 C.ar      1 <0>        -0.1050
     14 N2          7.1755    2.6822    0.6077 N.ar      1 <0>        -0.5620
     15 C12         7.9268    3.6608    0.1500 C.ar      1 <0>         0.3617
     16 N3          7.4653    4.5979   -0.6580 N.ar      1 <0>        -0.5838
     17 C13         6.1959    4.5970   -1.0548 C.ar      1 <0>         0.4813
     18 N4          5.7168    5.5807   -1.9019 N.pl3     1 <0>        -0.6440
     19 C14         6.5361    6.6553   -2.2590 C.ar      1 <0>         0.1693
     20 C15         6.4139    7.2366   -3.5150 C.ar      1 <0>        -0.1475
     21 C16         7.2246    8.2981   -3.8653 C.ar      1 <0>        -0.0848
     22 C17         8.1576    8.7836   -2.9675 C.ar      1 <0>        -0.1299
     23 C18         8.2825    8.2075   -1.7155 C.ar      1 <0>        -0.0138
     24 C19         7.4701    7.1479   -1.3570 C.ar      1 <0>        -0.1073
     25 Cl1         9.4551    8.8203   -0.5917 Cl        1 <0>        -0.0654
     26 H2          2.4524    4.7270   -1.0196 H         1 <0>         0.0743
     27 H3          3.4617    4.4558   -2.4604 H         1 <0>         0.0596
     28 H4          2.2076    3.2731   -2.0168 H         1 <0>         0.0770
     29 H5          1.2803    3.1927    0.3185 H         1 <0>         0.1293
     30 H6         -0.8709    2.0097    0.4683 H         1 <0>         0.1294
     31 H7         -0.9482   -0.4415    0.2753 H         1 <0>         0.1266
     32 H8          1.1220   -1.7232   -0.0760 H         1 <0>         0.1277
     33 H9          3.2830   -0.5592   -0.2332 H         1 <0>         0.1225
     34 H10         8.9642    3.6995    0.4479 H         1 <0>         0.2036
     35 H11         4.8124    5.5245   -2.2478 H         1 <0>         0.4213
     36 H12         5.6856    6.8582   -4.2170 H         1 <0>         0.1300
     37 H13         7.1297    8.7499   -4.8417 H         1 <0>         0.1364
     38 H14         8.7899    9.6144   -3.2439 H         1 <0>         0.1340
     39 H15         7.5643    6.7014   -0.3782 H         1 <0>         0.1484
@<TRIPOS>BOND
     1    1    2 1
     2    1   26 1
     3    1   27 1
     4    1   28 1
     5    2    7 2
     6    2    3 1
     7    3   17 ar
     8    3    4 ar
     9    4    5 1
    10    4   14 ar
    11    5    6 1
    12    5    7 1
    13    7    8 1
    14    8   13 ar
    15    8    9 ar
    16    9   10 ar
    17    9   29 1
    18   10   11 ar
    19   10   30 1
    20   11   12 ar
    21   11   31 1
    22   12   13 ar
    23   12   32 1
    24   13   33 1
    25   14   15 ar
    26   15   16 ar
    27   15   34 1
    28   16   17 ar
    29   17   18 1
    30   18   19 1
    31   18   35 1
    32   19   24 ar
    33   19   20 ar
    34   20   21 ar
    35   20   36 1
    36   21   22 ar
    37   21   37 1
    38   22   23 ar
    39   22   38 1
    40   23   24 ar
    41   23   25 1
    42   24   39 1
@<TRIPOS>MOLECULE
ZINC03815181
   35    37     0     0     0
SMALL
USER_CHARGES

@<TRIPOS>ATOM
      1 C1         -5.8142   -3.0901   -0.3493 C.3       1 <0>         0.0195
      2 O1         -5.3147   -4.4223   -0.4832 O.3       1 <0>        -0.2983
      3 C2         -3.9641   -4.5800   -0.4637 C.ar      1 <0>         0.1253
      4 C3         -3.1582   -3.4861   -0.3209 C.ar      1 <0>        -0.1541
      5 C4         -1.7682   -3.6479   -0.2948 C.ar      1 <0>        -0.1311
      6 C5         -1.2049   -4.9411   -0.4286 C.ar      1 <0>         0.1843
      7 C6         -2.0494   -6.0481   -0.5743 C.ar      1 <0>        -0.1794
      8 C7         -3.4143   -5.8630   -0.5908 C.ar      1 <0>         0.1615
      9 O2         -4.2363   -6.9354   -0.7321 O.3       1 <0>        -0.2956
     10 C8         -3.6156   -8.2164   -0.8575 C.3       1 <0>         0.0196
     11 N1          0.1315   -5.0680   -0.4064 N.ar      1 <0>        -0.5097
     12 C9          0.8978   -4.0121   -0.2685 C.ar      1 <0>         0.3117
     13 N2          0.4174   -2.7854   -0.1450 N.ar      1 <0>        -0.5226
     14 C10        -0.8885   -2.5477   -0.1540 C.ar      1 <0>         0.1808
     15 S1         -1.5106   -0.9076    0.0122 S.3       1 <0>         0.0811
     16 C11         0.0013   -0.0030   -0.0114 C.ar      1 <0>        -0.1255
     17 C12         0.6231    0.3452    1.1817 C.ar      1 <0>        -0.0490
     18 C13         1.8075    1.0545    1.1603 C.ar      1 <0>        -0.1139
     19 C14         2.3759    1.4188   -0.0467 C.ar      1 <0>        -0.0758
     20 C15         1.7599    1.0739   -1.2371 C.ar      1 <0>        -0.0437
     21 C16         0.5740    0.3639   -1.2225 C.ar      1 <0>        -0.0459
     22 Cl1         2.4771    1.5334   -2.7498 Cl        1 <0>        -0.0610
     23 H1         -5.4842   -2.6722    0.6018 H         1 <0>         0.0603
     24 H2         -5.4358   -2.4763   -1.1667 H         1 <0>         0.0607
     25 H3         -6.9037   -3.1058   -0.3808 H         1 <0>         0.1081
     26 H4         -3.5917   -2.5016   -0.2241 H         1 <0>         0.1499
     27 H5         -1.6338   -7.0400   -0.6736 H         1 <0>         0.1572
     28 H6         -2.9712   -8.2235   -1.7366 H         1 <0>         0.0623
     29 H7         -3.0191   -8.4198    0.0318 H         1 <0>         0.0623
     30 H8         -4.3831   -8.9832   -0.9634 H         1 <0>         0.1083
     31 H9          1.9688   -4.1504   -0.2548 H         1 <0>         0.1975
     32 H10         0.1799    0.0616    2.1249 H         1 <0>         0.1370
     33 H11         2.2910    1.3248    2.0875 H         1 <0>         0.1406
     34 H12         3.3026    1.9732   -0.0604 H         1 <0>         0.1396
     35 H13         0.0956    0.0910   -2.1515 H         1 <0>         0.1383
@<TRIPOS>BOND
     1    1    2 1
     2    1   23 1
     3    1   24 1
     4    1   25 1
     5    2    3 1
     6    3    8 ar
     7    3    4 ar
     8    4    5 ar
     9    4   26 1
    10    5   14 ar
    11    5    6 ar
    12    6    7 ar
    13    6   11 ar
    14    7    8 ar
    15    7   27 1
    16    8    9 1
    17    9   10 1
    18   10   28 1
    19   10   29 1
    20   10   30 1
    21   11   12 ar
    22   12   13 ar
    23   12   31 1
    24   13   14 ar
    25   14   15 1
    26   15   16 1
    27   16   21 ar
    28   16   17 ar
    29   17   18 ar
    30   17   32 1
    31   18   19 ar
    32   18   33 1
    33   19   20 ar
    34   19   34 1
    35   20   21 ar
    36   20   22 1
    37   21   35 1
@<TRIPOS>MOLECULE
ZINC03815183
   32    34     0     0     0
SMALL
USER_CHARGES

@<TRIPOS>ATOM
      1 C1         -2.6793    7.7005    0.2363 C.3       1 <0>         0.0234
      2 O1         -1.3782    7.1096    0.2313 O.3       1 <0>        -0.3135
      3 C2         -1.3128    5.7628    0.0601 C.ar      1 <0>         0.1206
      4 C3         -2.4898    5.0278   -0.1002 C.ar      1 <0>        -0.1493
      5 C4         -2.4550    3.6773   -0.2735 C.ar      1 <0>        -0.0630
      6 C5         -1.2232    3.0089   -0.2924 C.ar      1 <0>         0.1563
      7 C6         -0.0264    3.7488   -0.1304 C.ar      1 <0>        -0.1495
      8 C7         -0.0858    5.1354    0.0458 C.ar      1 <0>        -0.1224
      9 C8          1.2031    3.0464   -0.1539 C.ar      1 <0>         0.4589
     10 N1          1.1705    1.7317   -0.3263 N.ar      1 <0>        -0.5736
     11 C9          0.0267    1.0823   -0.4736 C.ar      1 <0>         0.3349
     12 N2         -1.1404    1.6808   -0.4653 N.ar      1 <0>        -0.5338
     13 N3          2.4027    3.7118   -0.0018 N.pl3     1 <0>        -0.6377
     14 C10         3.5960    2.9896    0.0885 C.ar      1 <0>         0.1589
     15 C11         4.7730    3.5233   -0.4215 C.ar      1 <0>        -0.1328
     16 C12         5.9505    2.8076   -0.3310 C.ar      1 <0>        -0.0918
     17 C13         5.9594    1.5605    0.2665 C.ar      1 <0>        -0.1071
     18 C14         4.7893    1.0256    0.7755 C.ar      1 <0>        -0.0707
     19 C15         3.6087    1.7395    0.6931 C.ar      1 <0>        -0.0852
     20 Br1         4.8071   -0.6799    1.5921 Br        1 <0>        -0.0440
     21 H1         -2.5889    8.7771    0.3810 H         1 <0>         0.1047
     22 H2         -3.1722    7.5020   -0.7154 H         1 <0>         0.0588
     23 H3         -3.2693    7.2732    1.0471 H         1 <0>         0.0588
     24 H4         -3.4416    5.5380   -0.0860 H         1 <0>         0.1424
     25 H5         -3.3739    3.1231   -0.3957 H         1 <0>         0.1476
     26 H6          0.8211    5.7086    0.1699 H         1 <0>         0.1350
     27 H7          0.0560    0.0116   -0.6114 H         1 <0>         0.1984
     28 H8          2.4176    4.6807    0.0424 H         1 <0>         0.4238
     29 H9          4.7670    4.4971   -0.8886 H         1 <0>         0.1319
     30 H10         6.8656    3.2225   -0.7270 H         1 <0>         0.1372
     31 H11         6.8818    1.0030    0.3363 H         1 <0>         0.1346
     32 H12         2.6963    1.3237    1.0944 H         1 <0>         0.1480
@<TRIPOS>BOND
     1    1    2 1
     2    1   21 1
     3    1   22 1
     4    1   23 1
     5    2    3 1
     6    3    8 ar
     7    3    4 ar
     8    4    5 ar
     9    4   24 1
    10    5    6 ar
    11    5   25 1
    12    6   12 ar
    13    6    7 ar
    14    7    8 ar
    15    7    9 ar
    16    8   26 1
    17    9   10 ar
    18    9   13 1
    19   10   11 ar
    20   11   12 ar
    21   11   27 1
    22   13   14 1
    23   13   28 1
    24   14   19 ar
    25   14   15 ar
    26   15   16 ar
    27   15   29 1
    28   16   17 ar
    29   16   30 1
    30   17   18 ar
    31   17   31 1
    32   18   19 ar
    33   18   20 1
    34   19   32 1
@<TRIPOS>MOLECULE
ZINC03815184
   43    46     0     0     0
SMALL
USER_CHARGES

@<TRIPOS>ATOM
      1 C1         -2.4475    2.7849    4.7574 C.3       1 <0>         0.0226
      2 O1         -1.8740    2.3824    3.5119 O.3       1 <0>        -0.3014
      3 C2         -0.7572    1.6085    3.5680 C.ar      1 <0>         0.1044
      4 C3         -0.2434    1.2510    4.7821 C.ar      1 <0>        -0.1435
      5 C4          0.9096    0.4591    4.8410 C.ar      1 <0>        -0.1908
      6 C5          1.5330    0.0290    3.6435 C.ar      1 <0>         0.2024
      7 C6          0.9861    0.4026    2.4100 C.ar      1 <0>        -0.1854
      8 C7         -0.1490    1.1823    2.3791 C.ar      1 <0>         0.1625
      9 O2         -0.6816    1.5467    1.1837 O.3       1 <0>        -0.2982
     10 C8         -0.0127    1.0858    0.0080 C.3       1 <0>         0.0205
     11 N1          2.6376   -0.7291    3.7278 N.ar      1 <0>        -0.5514
     12 C9          3.1272   -1.0630    4.8980 C.ar      1 <0>         0.3475
     13 N2          2.5794   -0.6844    6.0420 N.ar      1 <0>        -0.5935
     14 C10         1.4861    0.0661    6.0723 C.ar      1 <0>         0.4783
     15 N3          0.9262    0.4536    7.2721 N.pl3     1 <0>        -0.6706
     16 C11         1.5394    0.0361    8.5354 C.3       1 <0>         0.1052
     17 H1          2.5157   -0.4409    8.4490 H         1 <0>         0.1488
     18 C12         0.6074   -0.4568    9.6441 C.3       1 <0>        -0.1842
     19 C13         1.2860    0.9090    9.7661 C.3       1 <0>        -0.1234
     20 H2          0.6634    1.7941    9.6358 H         1 <0>         0.1149
     21 C14         2.4051    1.0431   10.7664 C.ar      1 <0>        -0.0531
     22 C15         2.8987   -0.0787   11.4058 C.ar      1 <0>        -0.1188
     23 C16         3.9279    0.0438   12.3205 C.ar      1 <0>        -0.1153
     24 C17         4.4580    1.2891   12.6019 C.ar      1 <0>        -0.1220
     25 C18         3.9608    2.4115   11.9664 C.ar      1 <0>        -0.1168
     26 C19         2.9343    2.2886   11.0488 C.ar      1 <0>        -0.1118
     27 H3         -1.7178    3.3642    5.3231 H         1 <0>         0.0563
     28 H4         -3.3304    3.3961    4.5702 H         1 <0>         0.1060
     29 H5         -2.7318    1.9013    5.3289 H         1 <0>         0.0563
     30 H6         -0.7219    1.5812    5.6923 H         1 <0>         0.1375
     31 H7          1.4510    0.0821    1.4894 H         1 <0>         0.1547
     32 H8          0.0021   -0.0041    0.0020 H         1 <0>         0.0618
     33 H9          1.0099    1.4631    0.0003 H         1 <0>         0.0617
     34 H10        -0.5399    1.4469   -0.8751 H         1 <0>         0.1066
     35 H11         4.0173   -1.6739    4.9295 H         1 <0>         0.1954
     36 H12         0.1265    1.0026    7.2792 H         1 <0>         0.4100
     37 H13        -0.4620   -0.4705    9.4336 H         1 <0>         0.1023
     38 H14         0.9704   -1.2584   10.2873 H         1 <0>         0.1106
     39 H15         2.4823   -1.0512   11.1885 H         1 <0>         0.1243
     40 H16         4.3161   -0.8331   12.8173 H         1 <0>         0.1236
     41 H17         5.2603    1.3851   13.3185 H         1 <0>         0.1225
     42 H18         4.3747    3.3845   12.1864 H         1 <0>         0.1230
     43 H19         2.5458    3.1655   10.5523 H         1 <0>         0.1205
@<TRIPOS>BOND
     1    1    2 1
     2    1   27 1
     3    1   28 1
     4    1   29 1
     5    2    3 1
     6    3    8 ar
     7    3    4 ar
     8    4    5 ar
     9    4   30 1
    10    5   14 ar
    11    5    6 ar
    12    6    7 ar
    13    6   11 ar
    14    7    8 ar
    15    7   31 1
    16    8    9 1
    17    9   10 1
    18   10   32 1
    19   10   33 1
    20   10   34 1
    21   11   12 ar
    22   12   13 ar
    23   12   35 1
    24   13   14 ar
    25   14   15 1
    26   15   16 1
    27   15   36 1
    28   16   17 1
    29   16   19 1
    30   16   18 1
    31   18   19 1
    32   18   37 1
    33   18   38 1
    34   19   20 1
    35   19   21 1
    36   21   26 ar
    37   21   22 ar
    38   22   23 ar
    39   22   39 1
    40   23   24 ar
    41   23   40 1
    42   24   25 ar
    43   24   41 1
    44   25   26 ar
    45   25   42 1
    46   26   43 1
@<TRIPOS>MOLECULE
ZINC03815185
   25    27     0     0     0
SMALL
USER_CHARGES

@<TRIPOS>ATOM
      1 C1         -2.2820    5.5827   -0.2466 C.ar      1 <0>        -0.0906
      2 C2         -2.2849    4.2061   -0.3597 C.ar      1 <0>        -0.1334
      3 C3         -1.2161    3.4678    0.1322 C.ar      1 <0>         0.1607
      4 C4         -0.1497    4.1165    0.7419 C.ar      1 <0>        -0.0876
      5 C5         -0.1506    5.4942    0.8476 C.ar      1 <0>        -0.0697
      6 C6         -1.2171    6.2264    0.3558 C.ar      1 <0>        -0.1075
      7 Br1         1.3033    6.3794    1.6714 Br        1 <0>        -0.0434
      8 N1         -1.2163    2.0747    0.0191 N.pl3     1 <0>        -0.6444
      9 C7         -0.0210    1.3927   -0.1484 C.ar      1 <0>         0.4880
     10 C8          0.0129    0.0090   -0.1483 C.ar      1 <0>        -0.2941
     11 C9          1.2258   -0.6913   -0.3240 C.ar      1 <0>         0.1971
     12 C10         1.1200   -2.0931   -0.3029 C.2       1 <0>        -0.1568
     13 C11        -0.0793   -2.6789   -0.1241 C.2       1 <0>        -0.0993
     14 S1         -1.1842   -1.2856    0.0330 S.3       1 <0>         0.0799
     15 N2          2.3288    0.0807   -0.4890 N.ar      1 <0>        -0.5269
     16 C12         2.2541    1.3861   -0.4828 C.ar      1 <0>         0.3413
     17 N3          1.1249    2.0529   -0.3193 N.ar      1 <0>        -0.5508
     18 H1         -3.1129    6.1570   -0.6291 H         1 <0>         0.1377
     19 H2         -3.1172    3.7042   -0.8305 H         1 <0>         0.1319
     20 H3          0.6808    3.5450    1.1294 H         1 <0>         0.1470
     21 H4         -1.2177    7.3028    0.4432 H         1 <0>         0.1350
     22 H5         -2.0527    1.5850    0.0579 H         1 <0>         0.4231
     23 H6          2.0031   -2.7018   -0.4301 H         1 <0>         0.1545
     24 H7         -0.3146   -3.7322   -0.0850 H         1 <0>         0.2051
     25 H8          3.1650    1.9502   -0.6187 H         1 <0>         0.2032
@<TRIPOS>BOND
     1    1    6 ar
     2    1    2 ar
     3    1   18 1
     4    2    3 ar
     5    2   19 1
     6    3    4 ar
     7    3    8 1
     8    4    5 ar
     9    4   20 1
    10    5    6 ar
    11    5    7 1
    12    6   21 1
    13    8    9 1
    14    8   22 1
    15    9   17 ar
    16    9   10 ar
    17   10   14 1
    18   10   11 ar
    19   11   12 1
    20   11   15 ar
    21   12   13 2
    22   12   23 1
    23   13   14 1
    24   13   24 1
    25   15   16 ar
    26   16   17 ar
    27   16   25 1
@<TRIPOS>MOLECULE
ZINC03815186
   36    39     0     0     0
SMALL
USER_CHARGES

@<TRIPOS>ATOM
      1 C1        -10.8314    3.1718    0.9560 C.3       1 <0>        -0.1163
      2 C2         -9.6970    2.3517    0.3980 C.ar      1 <0>        -0.0644
      3 C3         -9.9567    1.1367   -0.2098 C.ar      1 <0>        -0.1325
      4 C4         -8.9188    0.3815   -0.7239 C.ar      1 <0>        -0.0942
      5 C5         -7.6191    0.8404   -0.6358 C.ar      1 <0>        -0.1184
      6 C6         -7.3542    2.0576   -0.0213 C.ar      1 <0>         0.1514
      7 C7         -8.3995    2.8141    0.4938 C.ar      1 <0>        -0.1462
      8 N1         -6.0397    2.5229    0.0735 N.pl3     1 <0>        -0.6404
      9 C8         -4.9942    1.6230    0.2179 C.ar      1 <0>         0.4923
     10 C9         -3.6744    2.0552    0.1993 C.ar      1 <0>        -0.2866
     11 C10        -2.6183    1.1480    0.3454 C.ar      1 <0>         0.2231
     12 C11        -1.2601    1.7246    0.3038 C.ar      1 <0>        -0.0880
     13 C12        -0.0321    1.0382    0.4319 C.ar      1 <0>         0.0237
     14 C13         1.1573    1.7177    0.3787 C.ar      1 <0>        -0.0522
     15 C14         1.1929    3.0937    0.2032 C.ar      1 <0>        -0.0182
     16 C15         0.0093    3.7936    0.0800 C.ar      1 <0>        -0.0774
     17 C16        -1.1932    3.1173    0.1330 C.ar      1 <0>        -0.0504
     18 S1         -2.8880    3.6325    0.0191 S.3       1 <0>         0.1289
     19 N2          2.4276    0.9694    0.5105 N.pl3     1 <0>         0.0266
     20 O1          2.4096   -0.2387    0.6646 O.2       1 <0>        -0.1521
     21 O2          3.4909    1.5618    0.4648 O.3       1 <0>        -0.1490
     22 N3         -2.9668   -0.1489    0.5028 N.ar      1 <0>        -0.5270
     23 C17        -4.2219   -0.5209    0.5151 C.ar      1 <0>         0.3508
     24 N4         -5.2298    0.3214    0.3787 N.ar      1 <0>        -0.5400
     25 H1        -11.2073    3.8442    0.1848 H         1 <0>         0.0729
     26 H2        -11.6329    2.5090    1.2822 H         1 <0>         0.0697
     27 H3        -10.4747    3.7555    1.8046 H         1 <0>         0.0667
     28 H4        -10.9725    0.7773   -0.2834 H         1 <0>         0.1246
     29 H5         -9.1251   -0.5666   -1.1982 H         1 <0>         0.1277
     30 H6         -6.8092    0.2517   -1.0408 H         1 <0>         0.1348
     31 H7         -8.1974    3.7631    0.9682 H         1 <0>         0.1244
     32 H8         -5.8586    3.4752    0.0382 H         1 <0>         0.4216
     33 H9         -0.0301   -0.0331    0.5687 H         1 <0>         0.1675
     34 H10         2.1390    3.6131    0.1635 H         1 <0>         0.1717
     35 H11         0.0240    4.8648   -0.0566 H         1 <0>         0.1649
     36 H12        -4.4444   -1.5699    0.6438 H         1 <0>         0.2100
@<TRIPOS>BOND
     1    1    2 1
     2    1   25 1
     3    1   26 1
     4    1   27 1
     5    2    7 ar
     6    2    3 ar
     7    3    4 ar
     8    3   28 1
     9    4    5 ar
    10    4   29 1
    11    5    6 ar
    12    5   30 1
    13    6    7 ar
    14    6    8 1
    15    7   31 1
    16    8    9 1
    17    8   32 1
    18    9   24 ar
    19    9   10 ar
    20   10   18 1
    21   10   11 ar
    22   11   12 1
    23   11   22 ar
    24   12   17 ar
    25   12   13 ar
    26   13   14 ar
    27   13   33 1
    28   14   15 ar
    29   14   19 1
    30   15   16 ar
    31   15   34 1
    32   16   17 ar
    33   16   35 1
    34   17   18 1
    35   19   20 2
    36   19   21 1
    37   22   23 ar
    38   23   24 ar
    39   23   36 1
@<TRIPOS>MOLECULE
ZINC03815187
   36    38     0     0     0
SMALL
USER_CHARGES

@<TRIPOS>ATOM
      1 C1          3.5885    3.1981    0.0410 C.3       1 <0>         0.0862
      2 N1          2.3207    3.9123   -0.1283 N.pl3     1 <0>        -0.6265
      3 C2          2.3166    5.3675   -0.2970 C.3       1 <0>         0.0857
      4 C3          1.1189    3.2076   -0.1289 C.ar      1 <0>         0.2570
      5 C4          1.1314    1.8174    0.0328 C.ar      1 <0>        -0.1838
      6 C5         -0.0287    1.1050    0.0351 C.ar      1 <0>        -0.0296
      7 C6         -1.2514    1.7676   -0.1311 C.ar      1 <0>        -0.2355
      8 C7         -1.2760    3.1759   -0.2898 C.ar      1 <0>         0.2343
      9 C8         -0.0719    3.8881   -0.2895 C.ar      1 <0>        -0.2130
     10 N2         -2.4610    3.7872   -0.4420 N.ar      1 <0>        -0.5555
     11 C9         -3.5736    3.0914   -0.4380 C.ar      1 <0>         0.3527
     12 N3         -3.5996    1.7772   -0.2882 N.ar      1 <0>        -0.5952
     13 C10        -2.4846    1.0747   -0.1303 C.ar      1 <0>         0.4723
     14 N4         -2.5269   -0.2958    0.0249 N.pl3     1 <0>        -0.6411
     15 C11        -3.7577   -0.9486    0.1387 C.ar      1 <0>         0.1603
     16 C12        -3.9138   -2.2330   -0.3676 C.ar      1 <0>        -0.1345
     17 C13        -5.1307   -2.8758   -0.2534 C.ar      1 <0>        -0.0924
     18 C14        -6.1937   -2.2428    0.3644 C.ar      1 <0>        -0.1082
     19 C15        -6.0421   -0.9637    0.8698 C.ar      1 <0>        -0.0708
     20 C16        -4.8253   -0.3170    0.7629 C.ar      1 <0>        -0.0841
     21 Br1        -7.4986   -0.1028    1.7143 Br        1 <0>        -0.0447
     22 H1          3.9726    2.9031   -0.9356 H         1 <0>         0.0542
     23 H2          4.3100    3.8502    0.5332 H         1 <0>         0.0722
     24 H3          3.4264    2.3096    0.6512 H         1 <0>         0.0718
     25 H4          2.2460    5.8463    0.6796 H         1 <0>         0.0552
     26 H5          3.2383    5.6789   -0.7885 H         1 <0>         0.0714
     27 H6          1.4624    5.6601   -0.9077 H         1 <0>         0.0750
     28 H7          2.0731    1.3034    0.1570 H         1 <0>         0.1334
     29 H8         -0.0059    0.0325    0.1600 H         1 <0>         0.1266
     30 H9         -0.0735    4.9608   -0.4141 H         1 <0>         0.1399
     31 H10        -4.5099    3.6150   -0.5629 H         1 <0>         0.1949
     32 H11        -1.7026   -0.8062    0.0551 H         1 <0>         0.4216
     33 H12        -3.0842   -2.7282   -0.8503 H         1 <0>         0.1310
     34 H13        -5.2522   -3.8742   -0.6469 H         1 <0>         0.1365
     35 H14        -7.1441   -2.7480    0.4530 H         1 <0>         0.1340
     36 H15        -4.7059    0.6797    1.1614 H         1 <0>         0.1485
@<TRIPOS>BOND
     1    1    2 1
     2    1   22 1
     3    1   23 1
     4    1   24 1
     5    2    3 1
     6    2    4 1
     7    3   25 1
     8    3   26 1
     9    3   27 1
    10    4    9 ar
    11    4    5 ar
    12    5    6 ar
    13    5   28 1
    14    6    7 ar
    15    6   29 1
    16    7   13 ar
    17    7    8 ar
    18    8    9 ar
    19    8   10 ar
    20    9   30 1
    21   10   11 ar
    22   11   12 ar
    23   11   31 1
    24   12   13 ar
    25   13   14 1
    26   14   15 1
    27   14   32 1
    28   15   20 ar
    29   15   16 ar
    30   16   17 ar
    31   16   33 1
    32   17   18 ar
    33   17   34 1
    34   18   19 ar
    35   18   35 1
    36   19   20 ar
    37   19   21 1
    38   20   36 1
@<TRIPOS>MOLECULE
ZINC03815188
   42    45     0     0     0
SMALL
USER_CHARGES

@<TRIPOS>ATOM
      1 C1          1.3862    8.8607    9.9799 C.ar      1 <0>        -0.0932
      2 C2          1.0196    7.9468    9.0112 C.ar      1 <0>        -0.0909
      3 C3          0.2719    6.8293    9.3598 C.ar      1 <0>         0.1561
      4 C4         -0.1095    6.6372   10.6816 C.ar      1 <0>        -0.1173
      5 C5          0.2640    7.5527   11.6467 C.ar      1 <0>        -0.0723
      6 C6          1.0095    8.6647   11.2956 C.ar      1 <0>        -0.1022
      7 Br1        -0.2498    7.2900   13.4474 Br        1 <0>        -0.0437
      8 N1         -0.1009    5.9031    8.3815 N.pl3     1 <0>        -0.6364
      9 C7          0.7531    5.6233    7.3361 C.ar      1 <0>         0.4856
     10 C8          0.3470    4.7800    6.2692 C.ar      1 <0>        -0.2171
     11 C9         -0.9205    4.2053    6.2333 C.ar      1 <0>         0.0220
     12 C10        -1.2685    3.3867    5.1645 C.ar      1 <0>        -0.1790
     13 C11        -2.4808    2.6441    4.8200 C.2       1 <0>         0.0937
     14 N2         -2.2687    2.0385    3.6886 N.2       1 <0>        -0.2393
     15 N3         -0.9761    2.3068    3.2288 N.pl3     1 <0>        -0.4370
     16 C12        -0.3443    3.1384    4.1212 C.ar      1 <0>         0.1791
     17 C13         0.9163    3.7085    4.1546 C.ar      1 <0>        -0.1498
     18 C14         1.2750    4.5310    5.2224 C.ar      1 <0>         0.2234
     19 N4          2.4901    5.1033    5.2911 N.ar      1 <0>        -0.5531
     20 C15         2.8069    5.8738    6.3028 C.ar      1 <0>         0.3609
     21 N5          1.9758    6.1344    7.3005 N.ar      1 <0>        -0.5948
     22 C16        -0.3908    1.7888    1.9898 C.3       1 <0>         0.3619
     23 H1          0.6890    1.9364    2.0085 H         1 <0>         0.1332
     24 C17        -0.9866    2.5341    0.7938 C.3       1 <0>        -0.1635
     25 C18        -0.2867    2.0816   -0.4893 C.3       1 <0>         0.0817
     26 O1         -0.8432    2.7777   -1.6064 O.3       1 <0>        -0.5738
     27 O2         -0.6789    0.3940    1.8736 O.3       1 <0>        -0.5466
     28 H2          1.9676    9.7296    9.7091 H         1 <0>         0.1375
     29 H3          1.3144    8.1008    7.9837 H         1 <0>         0.1416
     30 H4         -0.6944    5.7714   10.9552 H         1 <0>         0.1352
     31 H5          1.2972    9.3810   12.0509 H         1 <0>         0.1352
     32 H6         -0.9605    5.4572    8.4383 H         1 <0>         0.4223
     33 H7         -1.6268    4.3932    7.0284 H         1 <0>         0.1369
     34 H8         -3.3917    2.6095    5.3991 H         1 <0>         0.2049
     35 H9          1.6195    3.5169    3.3576 H         1 <0>         0.1419
     36 H10         3.7917    6.3167    6.3240 H         1 <0>         0.1985
     37 H11        -0.8445    3.6066    0.9264 H         1 <0>         0.0863
     38 H12        -2.0520    2.3148    0.7231 H         1 <0>         0.0858
     39 H13        -0.4289    1.0091   -0.6220 H         1 <0>         0.0579
     40 H14         0.7787    2.3009   -0.4187 H         1 <0>         0.0504
     41 H15        -0.4461    2.5401   -2.4554 H         1 <0>         0.3858
     42 H16        -1.6235    0.1881    1.8508 H         1 <0>         0.3922
@<TRIPOS>BOND
     1    1    6 ar
     2    1    2 ar
     3    1   28 1
     4    2    3 ar
     5    2   29 1
     6    3    4 ar
     7    3    8 1
     8    4    5 ar
     9    4   30 1
    10    5    6 ar
    11    5    7 1
    12    6   31 1
    13    8    9 1
    14    8   32 1
    15    9   21 ar
    16    9   10 ar
    17   10   18 ar
    18   10   11 ar
    19   11   12 ar
    20   11   33 1
    21   12   16 ar
    22   12   13 1
    23   13   14 2
    24   13   34 1
    25   14   15 1
    26   15   16 1
    27   15   22 1
    28   16   17 ar
    29   17   18 ar
    30   17   35 1
    31   18   19 ar
    32   19   20 ar
    33   20   21 ar
    34   20   36 1
    35   22   23 1
    36   22   24 1
    37   22   27 1
    38   24   25 1
    39   24   37 1
    40   24   38 1
    41   25   26 1
    42   25   39 1
    43   25   40 1
    44   26   41 1
    45   27   42 1
@<TRIPOS>MOLECULE
ZINC03815189
   36    38     0     0     0
SMALL
USER_CHARGES

@<TRIPOS>ATOM
      1 C1         -7.4905   -1.8876    2.4733 C.3       1 <0>         0.0548
      2 O1         -6.6019   -1.0612    1.6759 O.3       1 <0>        -0.3659
      3 C2         -5.4155   -1.5961    1.3303 C.2       1 <0>         0.6494
      4 O2         -5.1305   -2.7226    1.6855 O.2       1 <0>        -0.5495
      5 N1         -4.5441   -0.8819    0.5906 N.am      1 <0>        -0.6515
      6 C3         -3.2729   -1.3989    0.3136 C.ar      1 <0>         0.1571
      7 C4         -3.1164   -2.7700    0.0893 C.ar      1 <0>        -0.0724
      8 C5         -1.8920   -3.3003   -0.1822 C.ar      1 <0>        -0.0848
      9 C6         -0.7675   -2.4651   -0.2392 C.ar      1 <0>         0.1805
     10 C7         -0.9183   -1.0759   -0.0076 C.ar      1 <0>        -0.1687
     11 C8         -2.1859   -0.5506    0.2640 C.ar      1 <0>        -0.1028
     12 C9          0.2353   -0.2569   -0.0763 C.ar      1 <0>         0.4631
     13 N2          1.3986   -0.8344   -0.3445 N.ar      1 <0>        -0.5771
     14 C10         1.4917   -2.1387   -0.5493 C.ar      1 <0>         0.3428
     15 N3          0.4576   -2.9444   -0.5028 N.ar      1 <0>        -0.5369
     16 N4          0.1518    1.1043    0.1359 N.pl3     1 <0>        -0.6379
     17 C11         1.3152    1.8781    0.1748 C.ar      1 <0>         0.1576
     18 C12         1.2944    3.1898   -0.2830 C.ar      1 <0>        -0.1329
     19 C13         2.4452    3.9520   -0.2433 C.ar      1 <0>        -0.0920
     20 C14         3.6180    3.4114    0.2514 C.ar      1 <0>        -0.1065
     21 C15         3.6426    2.1056    0.7082 C.ar      1 <0>        -0.0707
     22 C16         2.4927    1.3394    0.6765 C.ar      1 <0>        -0.0846
     23 Br1         5.2487    1.3714    1.3844 Br        1 <0>        -0.0431
     24 H1         -8.4086   -1.3382    2.6812 H         1 <0>         0.1082
     25 H2         -7.7287   -2.7990    1.9249 H         1 <0>         0.0679
     26 H3         -7.0011   -2.1460    3.4123 H         1 <0>         0.0675
     27 H4         -4.7978   -0.0097    0.2502 H         1 <0>         0.4201
     28 H5         -3.9793   -3.4181    0.1324 H         1 <0>         0.1527
     29 H6         -1.7874   -4.3616   -0.3528 H         1 <0>         0.1491
     30 H7         -2.3118    0.5078    0.4379 H         1 <0>         0.1328
     31 H8          2.4631   -2.5587   -0.7642 H         1 <0>         0.1992
     32 H9         -0.7144    1.5246    0.2539 H         1 <0>         0.4222
     33 H10         0.3791    3.6128   -0.6699 H         1 <0>         0.1316
     34 H11         2.4293    4.9717   -0.5988 H         1 <0>         0.1373
     35 H12         4.5166    4.0098    0.2816 H         1 <0>         0.1348
     36 H13         2.5110    0.3216    1.0373 H         1 <0>         0.1489
@<TRIPOS>BOND
     1    1    2 1
     2    1   24 1
     3    1   25 1
     4    1   26 1
     5    2    3 1
     6    3    4 2
     7    3    5 am
     8    5    6 1
     9    5   27 1
    10    6   11 ar
    11    6    7 ar
    12    7    8 ar
    13    7   28 1
    14    8    9 ar
    15    8   29 1
    16    9   15 ar
    17    9   10 ar
    18   10   11 ar
    19   10   12 ar
    20   11   30 1
    21   12   13 ar
    22   12   16 1
    23   13   14 ar
    24   14   15 ar
    25   14   31 1
    26   16   17 1
    27   16   32 1
    28   17   22 ar
    29   17   18 ar
    30   18   19 ar
    31   18   33 1
    32   19   20 ar
    33   19   34 1
    34   20   21 ar
    35   20   35 1
    36   21   22 ar
    37   21   23 1
    38   22   36 1
@<TRIPOS>MOLECULE
ZINC03815190
   36    38     0     0     0
SMALL
USER_CHARGES

@<TRIPOS>ATOM
      1 C1          0.0286    1.5401    0.0873 C.3       1 <0>        -0.1670
      2 C2          0.0714    0.0112    0.0497 C.3       1 <0>         0.1140
      3 N1          0.6167   -0.4933    1.3124 N.pl3     1 <0>        -0.7374
      4 C3          0.7530   -1.8651    1.5138 C.ar      1 <0>         0.2596
      5 C4          0.3611   -2.7549    0.5069 C.ar      1 <0>        -0.1831
      6 C5          0.4892   -4.0996    0.6760 C.ar      1 <0>        -0.0296
      7 C6          1.0074   -4.6030    1.8759 C.ar      1 <0>        -0.2351
      8 C7          1.4023   -3.7109    2.9043 C.ar      1 <0>         0.2336
      9 C8          1.2678   -2.3325    2.7067 C.ar      1 <0>        -0.2104
     10 N2          1.8961   -4.2187    4.0442 N.ar      1 <0>        -0.5553
     11 C9          2.0095   -5.5167    4.1997 C.ar      1 <0>         0.3526
     12 N3          1.6539   -6.3866    3.2685 N.ar      1 <0>        -0.5952
     13 C10         1.1541   -5.9912    2.1042 C.ar      1 <0>         0.4724
     14 N4          0.7870   -6.9099    1.1423 N.pl3     1 <0>        -0.6409
     15 C11         1.0464   -8.2693    1.3391 C.ar      1 <0>         0.1601
     16 C12         0.1772   -9.2250    0.8277 C.ar      1 <0>        -0.1344
     17 C13         0.4359  -10.5672    1.0236 C.ar      1 <0>        -0.0924
     18 C14         1.5590  -10.9611    1.7280 C.ar      1 <0>        -0.1082
     19 C15         2.4271  -10.0123    2.2384 C.ar      1 <0>        -0.0708
     20 C16         2.1765   -8.6675    2.0411 C.ar      1 <0>        -0.0842
     21 Br1         3.9616  -10.5562    3.2003 Br        1 <0>        -0.0447
     22 H1          1.0373    1.9284    0.2283 H         1 <0>         0.0633
     23 H2         -0.3771    1.9154   -0.8522 H         1 <0>         0.0759
     24 H3         -0.6047    1.8657    0.9124 H         1 <0>         0.0633
     25 H4         -0.9373   -0.3772   -0.0913 H         1 <0>         0.0637
     26 H5          0.7047   -0.3145   -0.7754 H         1 <0>         0.0638
     27 H6          0.8829    0.1279    2.0083 H         1 <0>         0.4049
     28 H7         -0.0435   -2.3698   -0.4174 H         1 <0>         0.1313
     29 H8          0.1869   -4.7760   -0.1098 H         1 <0>         0.1263
     30 H9          1.5639   -1.6399    3.4807 H         1 <0>         0.1370
     31 H10         2.4109   -5.8917    5.1296 H         1 <0>         0.1949
     32 H11         0.3489   -6.6124    0.3296 H         1 <0>         0.4216
     33 H12        -0.7003   -8.9184    0.2778 H         1 <0>         0.1310
     34 H13        -0.2394  -11.3103    0.6259 H         1 <0>         0.1365
     35 H14         1.7589  -12.0115    1.8798 H         1 <0>         0.1340
     36 H15         2.8564   -7.9272    2.4360 H         1 <0>         0.1488
@<TRIPOS>BOND
     1    1    2 1
     2    1   22 1
     3    1   23 1
     4    1   24 1
     5    2    3 1
     6    2   25 1
     7    2   26 1
     8    3    4 1
     9    3   27 1
    10    4    9 ar
    11    4    5 ar
    12    5    6 ar
    13    5   28 1
    14    6    7 ar
    15    6   29 1
    16    7   13 ar
    17    7    8 ar
    18    8    9 ar
    19    8   10 ar
    20    9   30 1
    21   10   11 ar
    22   11   12 ar
    23   11   31 1
    24   12   13 ar
    25   13   14 1
    26   14   15 1
    27   14   32 1
    28   15   20 ar
    29   15   16 ar
    30   16   17 ar
    31   16   33 1
    32   17   18 ar
    33   17   34 1
    34   18   19 ar
    35   18   35 1
    36   19   20 ar
    37   19   21 1
    38   20   36 1
@<TRIPOS>MOLECULE
ZINC03815191
   44    46     0     0     0
SMALL
USER_CHARGES

@<TRIPOS>ATOM
      1 C1          2.1577    5.6966    0.3942 C.ar      1 <0>        -0.0915
      2 C2          2.2603    4.3225    0.4909 C.ar      1 <0>        -0.0828
      3 C3          3.3215    3.6622   -0.1150 C.ar      1 <0>         0.1226
      4 C4          4.2797    4.3869   -0.8123 C.ar      1 <0>        -0.1029
      5 C5          4.1688    5.7608   -0.9094 C.ar      1 <0>        -0.0754
      6 C6          3.1100    6.4152   -0.3043 C.ar      1 <0>        -0.0834
      7 Br1         5.4687    6.7483   -1.8638 Br        1 <0>        -0.0272
      8 N1          3.4281    2.2717   -0.0184 N.pl3     1 <0>        -0.6098
      9 C7          2.2914    1.4919   -0.0144 C.ar      1 <0>         0.5206
     10 C8          2.3671    0.0967    0.2035 C.ar      1 <0>        -0.2629
     11 C9          3.5751   -0.5691    0.4250 C.ar      1 <0>         0.2627
     12 C10         2.4717   -2.6006    0.6204 C.ar      1 <0>         0.4352
     13 C11         1.2299   -2.0296    0.4098 C.ar      1 <0>        -0.2000
     14 C12         1.1580   -0.6486    0.1945 C.ar      1 <0>         0.3041
     15 N2          0.0031   -0.0057   -0.0186 N.ar      1 <0>        -0.5572
     16 C13        -0.0056    1.2929   -0.2155 C.ar      1 <0>         0.4261
     17 N3          1.0937    2.0290   -0.2163 N.ar      1 <0>        -0.5825
     18 N4          2.5608   -3.9699    0.8351 N.pl3     1 <0>        -0.5703
     19 C14         1.3637   -4.8075    0.7283 C.3       1 <0>         0.1098
     20 C15         1.2139   -5.3018   -0.7119 C.3       1 <0>         0.0528
     21 O1          2.3076   -6.1623   -1.0364 O.3       1 <0>        -0.5737
     22 C16         3.8520   -4.5765    1.1684 C.3       1 <0>         0.0969
     23 C17         4.0345   -4.5851    2.6874 C.3       1 <0>         0.0534
     24 O2          3.0523   -5.4369    3.2804 O.3       1 <0>        -0.5647
     25 H1          1.3327    6.2103    0.8653 H         1 <0>         0.1446
     26 H2          1.5159    3.7620    1.0368 H         1 <0>         0.1421
     27 H3          5.1084    3.8769   -1.2807 H         1 <0>         0.1387
     28 H4          3.0277    7.4896   -0.3778 H         1 <0>         0.1428
     29 H5          4.3020    1.8556    0.0458 H         1 <0>         0.4240
     30 H6          4.5026   -0.0158    0.4344 H         1 <0>         0.1956
     31 H7          0.3359   -2.6355    0.4117 H         1 <0>         0.1902
     32 H8         -0.9530    1.7814   -0.3892 H         1 <0>         0.2208
     33 H9          1.4575   -5.6625    1.3979 H         1 <0>         0.1216
     34 H10         0.4859   -4.2238    1.0052 H         1 <0>         0.1094
     35 H11         0.2775   -5.8507   -0.8122 H         1 <0>         0.0749
     36 H12         1.2093   -4.4486   -1.3902 H         1 <0>         0.0511
     37 H13         2.2779   -6.5138   -1.9368 H         1 <0>         0.3915
     38 H14         3.8804   -5.5996    0.7932 H         1 <0>         0.1312
     39 H15         4.6542   -3.9988    0.7093 H         1 <0>         0.0857
     40 H16         5.0306   -4.9542    2.9316 H         1 <0>         0.0744
     41 H17         3.9177   -3.5724    3.0731 H         1 <0>         0.0441
     42 H18         3.1084   -5.4905    4.2443 H         1 <0>         0.3940
     43 N5          3.6583   -1.9077    0.6351 N.ar      1 <0>        -0.5443
     44 H19         4.5576   -2.3762    0.7959 H         1 <0>         0.4675
@<TRIPOS>BOND
     1    1    6 ar
     2    1    2 ar
     3    1   25 1
     4    2    3 ar
     5    2   26 1
     6    3    4 ar
     7    3    8 1
     8    4    5 ar
     9    4   27 1
    10    5    6 ar
    11    5    7 1
    12    6   28 1
    13    8    9 1
    14    8   29 1
    15    9   17 ar
    16    9   10 ar
    17   10   14 ar
    18   10   11 ar
    19   11   30 1
    20   11   43 ar
    21   12   13 ar
    22   12   18 1
    23   12   43 ar
    24   13   14 ar
    25   13   31 1
    26   14   15 ar
    27   15   16 ar
    28   16   17 ar
    29   16   32 1
    30   18   19 1
    31   18   22 1
    32   19   20 1
    33   19   33 1
    34   19   34 1
    35   20   21 1
    36   20   35 1
    37   20   36 1
    38   21   37 1
    39   22   23 1
    40   22   38 1
    41   22   39 1
    42   23   24 1
    43   23   40 1
    44   23   41 1
    45   24   42 1
    46   43   44 1
@<TRIPOS>MOLECULE
ZINC03815192
   33    36     0     0     0
SMALL
USER_CHARGES

@<TRIPOS>ATOM
      1 C1         -9.6974    2.3519    0.3976 C.ar      1 <0>        -0.0901
      2 C2         -8.3992    2.8141    0.4934 C.ar      1 <0>        -0.1303
      3 C3         -7.3542    2.0575   -0.0212 C.ar      1 <0>         0.1559
      4 C4         -7.6188    0.8401   -0.6357 C.ar      1 <0>        -0.0870
      5 C5         -8.9191    0.3813   -0.7245 C.ar      1 <0>        -0.0702
      6 C6         -9.9577    1.1378   -0.2101 C.ar      1 <0>        -0.1042
      7 Br1        -9.2805   -1.2785   -1.5554 Br        1 <0>        -0.0408
      8 N1         -6.0397    2.5229    0.0738 N.pl3     1 <0>        -0.6404
      9 C7         -4.9942    1.6230    0.2189 C.ar      1 <0>         0.4902
     10 C8         -3.6744    2.0552    0.2006 C.ar      1 <0>        -0.2849
     11 C9         -2.6183    1.1479    0.3465 C.ar      1 <0>         0.2240
     12 C10        -1.2601    1.7244    0.3043 C.ar      1 <0>        -0.0884
     13 C11        -0.0321    1.0380    0.4326 C.ar      1 <0>         0.0240
     14 C12         1.1572    1.7174    0.3793 C.ar      1 <0>        -0.0518
     15 C13         1.1929    3.0935    0.2040 C.ar      1 <0>        -0.0176
     16 C14         0.0094    3.7934    0.0812 C.ar      1 <0>        -0.0773
     17 C15        -1.1932    3.1172    0.1341 C.ar      1 <0>        -0.0501
     18 S1         -2.8880    3.6325    0.0205 S.3       1 <0>         0.1301
     19 N2          2.4276    0.9690    0.5109 N.pl3     1 <0>         0.0263
     20 O1          2.4095   -0.2391    0.6648 O.2       1 <0>        -0.1516
     21 O2          3.4909    1.5613    0.4652 O.3       1 <0>        -0.1484
     22 N3         -2.9669   -0.1491    0.5033 N.ar      1 <0>        -0.5241
     23 C16        -4.2220   -0.5210    0.5153 C.ar      1 <0>         0.3525
     24 N4         -5.2299    0.3214    0.3791 N.ar      1 <0>        -0.5411
     25 H1        -10.5101    2.9400    0.7977 H         1 <0>         0.1390
     26 H2         -8.1969    3.7627    0.9683 H         1 <0>         0.1330
     27 H3         -6.8089    0.2514   -1.0405 H         1 <0>         0.1466
     28 H4        -10.9736    0.7790   -0.2840 H         1 <0>         0.1363
     29 H5         -5.8586    3.4752    0.0383 H         1 <0>         0.4244
     30 H6         -0.0302   -0.0333    0.5696 H         1 <0>         0.1677
     31 H7          2.1390    3.6128    0.1644 H         1 <0>         0.1720
     32 H8          0.0241    4.8647   -0.0553 H         1 <0>         0.1651
     33 H9         -4.4445   -1.5700    0.6435 H         1 <0>         0.2110
@<TRIPOS>BOND
     1    1    6 ar
     2    1    2 ar
     3    1   25 1
     4    2    3 ar
     5    2   26 1
     6    3    4 ar
     7    3    8 1
     8    4    5 ar
     9    4   27 1
    10    5    6 ar
    11    5    7 1
    12    6   28 1
    13    8    9 1
    14    8   29 1
    15    9   24 ar
    16    9   10 ar
    17   10   18 1
    18   10   11 ar
    19   11   12 1
    20   11   22 ar
    21   12   17 ar
    22   12   13 ar
    23   13   14 ar
    24   13   30 1
    25   14   15 ar
    26   14   19 1
    27   15   16 ar
    28   15   31 1
    29   16   17 ar
    30   16   32 1
    31   17   18 1
    32   19   20 2
    33   19   21 1
    34   22   23 ar
    35   23   24 ar
    36   23   33 1
@<TRIPOS>MOLECULE
ZINC03815193
   35    38     0     0     0
SMALL
USER_CHARGES

@<TRIPOS>ATOM
      1 C1          9.5785    7.3698   -0.6261 C.3       1 <0>         0.0250
      2 O1          8.2709    6.8038   -0.5177 O.3       1 <0>        -0.3108
      3 C2          7.2215    7.6684   -0.5244 C.ar      1 <0>         0.1650
      4 C3          7.4423    9.0316   -0.6331 C.ar      1 <0>        -0.1669
      5 C4          6.3596    9.8986   -0.6386 C.ar      1 <0>        -0.0862
      6 C5          5.0742    9.4331   -0.5385 C.ar      1 <0>        -0.0795
      7 C6          4.8136    8.0481   -0.4262 C.ar      1 <0>        -0.0503
      8 C7          5.9255    7.1919   -0.4230 C.ar      1 <0>        -0.1167
      9 S1          5.2333    5.5646   -0.2703 S.3       1 <0>         0.1060
     10 C8          3.5155    5.9941   -0.2114 C.ar      1 <0>        -0.2792
     11 C9          3.4971    7.3909   -0.3104 C.ar      1 <0>         0.2170
     12 N1          2.2766    7.9718   -0.2878 N.ar      1 <0>        -0.5233
     13 C10         1.1839    7.2585   -0.1793 C.ar      1 <0>         0.3409
     14 N2          1.1832    5.9410   -0.0910 N.ar      1 <0>        -0.5441
     15 C11         2.3353    5.2713   -0.0980 C.ar      1 <0>         0.4831
     16 N3          2.3548    3.8878   -0.0005 N.pl3     1 <0>        -0.6438
     17 C12         1.1686    3.1870    0.2342 C.ar      1 <0>         0.1611
     18 C13         0.9771    1.9330   -0.3325 C.ar      1 <0>        -0.1315
     19 C14        -0.1961    1.2431   -0.0993 C.ar      1 <0>        -0.0908
     20 C15        -1.1826    1.8010    0.6932 C.ar      1 <0>        -0.1066
     21 C16        -0.9934    3.0473    1.2636 C.ar      1 <0>        -0.0700
     22 C17         0.1786    3.7429    1.0340 C.ar      1 <0>        -0.0865
     23 Br1        -2.3428    3.8029    2.3518 Br        1 <0>        -0.0436
     24 H1          9.7518    8.0470    0.2103 H         1 <0>         0.0605
     25 H2         10.3220    6.5729   -0.6083 H         1 <0>         0.1061
     26 H3          9.6593    7.9212   -1.5628 H         1 <0>         0.0605
     27 H4          8.4485    9.4159   -0.7124 H         1 <0>         0.1457
     28 H5          6.5328   10.9613   -0.7230 H         1 <0>         0.1393
     29 H6          4.2512   10.1323   -0.5459 H         1 <0>         0.1394
     30 H7          0.2347    7.7736   -0.1663 H         1 <0>         0.2061
     31 H8          3.1917    3.4066   -0.0951 H         1 <0>         0.4241
     32 H9          1.7453    1.4980   -0.9546 H         1 <0>         0.1325
     33 H10        -0.3454    0.2684   -0.5400 H         1 <0>         0.1378
     34 H11        -2.1010    1.2610    0.8706 H         1 <0>         0.1351
     35 H12         0.3242    4.7176    1.4757 H         1 <0>         0.1445
@<TRIPOS>BOND
     1    1    2 1
     2    1   24 1
     3    1   25 1
     4    1   26 1
     5    2    3 1
     6    3    8 ar
     7    3    4 ar
     8    4    5 ar
     9    4   27 1
    10    5    6 ar
    11    5   28 1
    12    6    7 ar
    13    6   29 1
    14    7   11 1
    15    7    8 ar
    16    8    9 1
    17    9   10 1
    18   10   15 ar
    19   10   11 ar
    20   11   12 ar
    21   12   13 ar
    22   13   14 ar
    23   13   30 1
    24   14   15 ar
    25   15   16 1
    26   16   17 1
    27   16   31 1
    28   17   22 ar
    29   17   18 ar
    30   18   19 ar
    31   18   32 1
    32   19   20 ar
    33   19   33 1
    34   20   21 ar
    35   20   34 1
    36   21   22 ar
    37   21   23 1
    38   22   35 1
@<TRIPOS>MOLECULE
ZINC03815194
   40    43     0     0     0
SMALL
USER_CHARGES

@<TRIPOS>ATOM
      1 C1         -2.2008   -2.7571    1.2890 C.3       1 <0>        -0.1148
      2 C2         -1.0921   -2.0455    0.5573 C.ar      1 <0>        -0.0658
      3 C3         -0.0401   -2.7688    0.0252 C.ar      1 <0>        -0.1337
      4 C4          0.9791   -2.1198   -0.6469 C.ar      1 <0>        -0.0949
      5 C5          0.9470   -0.7467   -0.7936 C.ar      1 <0>        -0.1537
      6 C6         -0.1054   -0.0169   -0.2563 C.ar      1 <0>         0.1503
      7 C7         -1.1279   -0.6722    0.4184 C.ar      1 <0>        -0.1098
      8 N1         -0.1388    1.3733   -0.3991 N.pl3     1 <0>        -0.6416
      9 C8         -1.3514    2.0284   -0.5036 C.ar      1 <0>         0.5121
     10 C9         -1.4131    3.4320   -0.5139 C.ar      1 <0>        -0.3411
     11 C10        -2.6745    4.0491   -0.6270 C.ar      1 <0>         0.3998
     12 N2         -2.4573    5.3934   -0.6195 N.pl3     1 <0>        -0.4739
     13 H1         -3.1671    6.0941   -0.6924 H         1 <0>         0.4581
     14 N3         -1.0861    5.6412   -0.4939 N.2       1 <0>        -0.2829
     15 C11        -0.4317    4.5098   -0.4351 C.2       1 <0>         0.3743
     16 N4          0.9521    4.3605   -0.3189 N.pl3     1 <0>        -0.6367
     17 C12         1.7826    5.4825   -0.3721 C.ar      1 <0>         0.1794
     18 C13         3.0439    5.4434    0.2098 C.ar      1 <0>        -0.1553
     19 C14         3.8629    6.5538    0.1552 C.ar      1 <0>        -0.0749
     20 C15         3.4296    7.7045   -0.4776 C.ar      1 <0>        -0.1365
     21 C16         2.1744    7.7474   -1.0588 C.ar      1 <0>        -0.0029
     22 C17         1.3516    6.6376   -1.0118 C.ar      1 <0>        -0.1399
     23 Cl1         1.6348    9.1942   -1.8521 Cl        1 <0>        -0.0625
     24 N5         -3.7582    3.2772   -0.7096 N.ar      1 <0>        -0.5700
     25 C18        -3.6515    1.9668   -0.6910 C.ar      1 <0>         0.3914
     26 N6         -2.4892    1.3462   -0.5913 N.ar      1 <0>        -0.5902
     27 H2         -2.9846   -3.0314    0.5830 H         1 <0>         0.0738
     28 H3         -1.8058   -3.6568    1.7609 H         1 <0>         0.0672
     29 H4         -2.6140   -2.0979    2.0525 H         1 <0>         0.0663
     30 H5         -0.0149   -3.8429    0.1346 H         1 <0>         0.1236
     31 H6          1.7992   -2.6875   -1.0612 H         1 <0>         0.1270
     32 H7          1.7414   -0.2408   -1.3222 H         1 <0>         0.1229
     33 H8         -1.9500   -0.1081    0.8335 H         1 <0>         0.1391
     34 H9          0.6892    1.8778   -0.4289 H         1 <0>         0.4106
     35 H10         1.3365    3.4777   -0.2012 H         1 <0>         0.4159
     36 H11         3.3832    4.5454    0.7046 H         1 <0>         0.1323
     37 H12         4.8434    6.5234    0.6071 H         1 <0>         0.1385
     38 H13         4.0723    8.5715   -0.5188 H         1 <0>         0.1357
     39 H14         0.3735    6.6699   -1.4686 H         1 <0>         0.1539
     40 H15        -4.5511    1.3731   -0.7595 H         1 <0>         0.2091
@<TRIPOS>BOND
     1    1    2 1
     2    1   27 1
     3    1   28 1
     4    1   29 1
     5    2    7 ar
     6    2    3 ar
     7    3    4 ar
     8    3   30 1
     9    4    5 ar
    10    4   31 1
    11    5    6 ar
    12    5   32 1
    13    6    7 ar
    14    6    8 1
    15    7   33 1
    16    8    9 1
    17    8   34 1
    18    9   26 ar
    19    9   10 ar
    20   10   15 1
    21   10   11 ar
    22   11   12 1
    23   11   24 ar
    24   12   13 1
    25   12   14 1
    26   14   15 2
    27   15   16 1
    28   16   17 1
    29   16   35 1
    30   17   22 ar
    31   17   18 ar
    32   18   19 ar
    33   18   36 1
    34   19   20 ar
    35   19   37 1
    36   20   21 ar
    37   20   38 1
    38   21   22 ar
    39   21   23 1
    40   22   39 1
    41   24   25 ar
    42   25   26 ar
    43   25   40 1
@<TRIPOS>MOLECULE
ZINC03815194
   40    43     0     0     0
SMALL
USER_CHARGES

@<TRIPOS>ATOM
      1 C1         -2.2008   -2.7571    1.2890 C.3       1 <0>        -0.1148
      2 C2         -1.0921   -2.0455    0.5573 C.ar      1 <0>        -0.0658
      3 C3         -0.0401   -2.7688    0.0252 C.ar      1 <0>        -0.1337
      4 C4          0.9791   -2.1198   -0.6469 C.ar      1 <0>        -0.0949
      5 C5          0.9470   -0.7467   -0.7936 C.ar      1 <0>        -0.1537
      6 C6         -0.1054   -0.0169   -0.2563 C.ar      1 <0>         0.1503
      7 C7         -1.1279   -0.6722    0.4184 C.ar      1 <0>        -0.1098
      8 N1         -0.1388    1.3733   -0.3991 N.pl3     1 <0>        -0.6416
      9 C8         -1.3514    2.0284   -0.5036 C.ar      1 <0>         0.5121
     10 C9         -1.4131    3.4320   -0.5139 C.ar      1 <0>        -0.3411
     11 C10        -2.6745    4.0491   -0.6270 C.ar      1 <0>         0.3998
     12 N2         -2.4573    5.3934   -0.6195 N.pl3     1 <0>        -0.4739
     13 H1         -3.1671    6.0941   -0.6924 H         1 <0>         0.4581
     14 N3         -1.0861    5.6412   -0.4939 N.2       1 <0>        -0.2829
     15 C11        -0.4317    4.5098   -0.4351 C.2       1 <0>         0.3743
     16 N4          0.9521    4.3605   -0.3189 N.pl3     1 <0>        -0.6367
     17 C12         1.7826    5.4825   -0.3721 C.ar      1 <0>         0.1794
     18 C13         3.0439    5.4434    0.2098 C.ar      1 <0>        -0.1553
     19 C14         3.8629    6.5538    0.1552 C.ar      1 <0>        -0.0749
     20 C15         3.4296    7.7045   -0.4776 C.ar      1 <0>        -0.1365
     21 C16         2.1744    7.7474   -1.0588 C.ar      1 <0>        -0.0029
     22 C17         1.3516    6.6376   -1.0118 C.ar      1 <0>        -0.1399
     23 Cl1         1.6348    9.1942   -1.8521 Cl        1 <0>        -0.0625
     24 N5         -3.7582    3.2772   -0.7096 N.ar      1 <0>        -0.5700
     25 C18        -3.6515    1.9668   -0.6910 C.ar      1 <0>         0.3914
     26 N6         -2.4892    1.3462   -0.5913 N.ar      1 <0>        -0.5902
     27 H2         -2.9846   -3.0314    0.5830 H         1 <0>         0.0738
     28 H3         -1.8058   -3.6568    1.7609 H         1 <0>         0.0672
     29 H4         -2.6140   -2.0979    2.0525 H         1 <0>         0.0663
     30 H5         -0.0149   -3.8429    0.1346 H         1 <0>         0.1236
     31 H6          1.7992   -2.6875   -1.0612 H         1 <0>         0.1270
     32 H7          1.7414   -0.2408   -1.3222 H         1 <0>         0.1229
     33 H8         -1.9500   -0.1081    0.8335 H         1 <0>         0.1391
     34 H9          0.6892    1.8778   -0.4289 H         1 <0>         0.4106
     35 H10         1.3365    3.4777   -0.2012 H         1 <0>         0.4159
     36 H11         3.3832    4.5454    0.7046 H         1 <0>         0.1323
     37 H12         4.8434    6.5234    0.6071 H         1 <0>         0.1385
     38 H13         4.0723    8.5715   -0.5188 H         1 <0>         0.1357
     39 H14         0.3735    6.6699   -1.4686 H         1 <0>         0.1539
     40 H15        -4.5511    1.3731   -0.7595 H         1 <0>         0.2091
@<TRIPOS>BOND
     1    1    2 1
     2    1   27 1
     3    1   28 1
     4    1   29 1
     5    2    7 ar
     6    2    3 ar
     7    3    4 ar
     8    3   30 1
     9    4    5 ar
    10    4   31 1
    11    5    6 ar
    12    5   32 1
    13    6    7 ar
    14    6    8 1
    15    7   33 1
    16    8    9 1
    17    8   34 1
    18    9   26 ar
    19    9   10 ar
    20   10   15 1
    21   10   11 ar
    22   11   12 1
    23   11   24 ar
    24   12   13 1
    25   12   14 1
    26   14   15 2
    27   15   16 1
    28   16   17 1
    29   16   35 1
    30   17   22 ar
    31   17   18 ar
    32   18   19 ar
    33   18   36 1
    34   19   20 ar
    35   19   37 1
    36   20   21 ar
    37   20   38 1
    38   21   22 ar
    39   21   23 1
    40   22   39 1
    41   24   25 ar
    42   25   26 ar
    43   25   40 1
@<TRIPOS>MOLECULE
ZINC03815195
   37    40     0     0     0
SMALL
USER_CHARGES

@<TRIPOS>ATOM
      1 C1          2.1743    1.4249   -0.3564 C.ar      1 <0>        -0.0755
      2 C2          2.1853    0.0484   -0.4694 C.ar      1 <0>        -0.1338
      3 C3          1.2766   -0.7141    0.2537 C.ar      1 <0>         0.1774
      4 C4          0.3591   -0.0890    1.0889 C.ar      1 <0>        -0.1489
      5 C5          0.3532    1.2886    1.1976 C.ar      1 <0>        -0.0066
      6 C6          1.2604    2.0448    0.4754 C.ar      1 <0>        -0.1317
      7 Cl1        -0.7925    2.0715    2.2407 Cl        1 <0>        -0.0621
      8 N1          1.2852   -2.1065    0.1409 N.pl3     1 <0>        -0.6391
      9 C7          2.4738   -2.7755   -0.1599 C.2       1 <0>         0.3773
     10 C8          2.6185   -4.2045   -0.4202 C.ar      1 <0>        -0.3398
     11 C9          3.9863   -4.4266   -0.6754 C.ar      1 <0>         0.4003
     12 N2          4.6069   -3.2186   -0.5738 N.pl3     1 <0>        -0.4735
     13 H1          5.5861   -3.0593   -0.6999 H         1 <0>         0.4584
     14 N3          3.6608   -2.2353   -0.2655 N.2       1 <0>        -0.2827
     15 N4          4.3924   -5.6667   -0.9465 N.ar      1 <0>        -0.5684
     16 C10         3.5340   -6.6626   -0.9752 C.ar      1 <0>         0.3926
     17 N5          2.2438   -6.5001   -0.7428 N.ar      1 <0>        -0.5922
     18 C11         1.7417   -5.3011   -0.4623 C.ar      1 <0>         0.5122
     19 N6          0.3908   -5.1378   -0.2193 N.pl3     1 <0>        -0.6414
     20 C12        -0.4481   -6.2543   -0.1571 C.ar      1 <0>         0.1561
     21 C13         0.0361   -7.4626    0.3284 C.ar      1 <0>        -0.0942
     22 C14        -0.7950   -8.5637    0.3892 C.ar      1 <0>        -0.0918
     23 C15        -2.1083   -8.4651   -0.0325 C.ar      1 <0>        -0.1033
     24 C16        -2.5941   -7.2635   -0.5166 C.ar      1 <0>        -0.0705
     25 C17        -1.7688   -6.1564   -0.5750 C.ar      1 <0>        -0.1211
     26 Br1        -4.3910   -7.1337   -1.0914 Br        1 <0>        -0.0431
     27 H2          2.8836    2.0176   -0.9150 H         1 <0>         0.1378
     28 H3          2.8999   -0.4348   -1.1192 H         1 <0>         0.1434
     29 H4         -0.3484   -0.6789    1.6526 H         1 <0>         0.1364
     30 H5          1.2541    3.1213    0.5618 H         1 <0>         0.1362
     31 H6          0.4656   -2.6087    0.2715 H         1 <0>         0.4146
     32 H7          3.8989   -7.6543   -1.1984 H         1 <0>         0.2103
     33 H8          0.0249   -4.2485   -0.0919 H         1 <0>         0.4126
     34 H9          1.0617   -7.5408    0.6577 H         1 <0>         0.1462
     35 H10        -0.4189   -9.5031    0.7669 H         1 <0>         0.1382
     36 H11        -2.7563   -9.3278    0.0165 H         1 <0>         0.1354
     37 H12        -2.1493   -5.2174   -0.9491 H         1 <0>         0.1343
@<TRIPOS>BOND
     1    1    6 ar
     2    1    2 ar
     3    1   27 1
     4    2    3 ar
     5    2   28 1
     6    3    4 ar
     7    3    8 1
     8    4    5 ar
     9    4   29 1
    10    5    6 ar
    11    5    7 1
    12    6   30 1
    13    8    9 1
    14    8   31 1
    15    9   14 2
    16    9   10 1
    17   10   18 ar
    18   10   11 ar
    19   11   12 1
    20   11   15 ar
    21   12   13 1
    22   12   14 1
    23   15   16 ar
    24   16   17 ar
    25   16   32 1
    26   17   18 ar
    27   18   19 1
    28   19   20 1
    29   19   33 1
    30   20   25 ar
    31   20   21 ar
    32   21   22 ar
    33   21   34 1
    34   22   23 ar
    35   22   35 1
    36   23   24 ar
    37   23   36 1
    38   24   25 ar
    39   24   26 1
    40   25   37 1
@<TRIPOS>MOLECULE
ZINC03815196
   31    33     0     0     0
SMALL
USER_CHARGES

@<TRIPOS>ATOM
      1 C1         -2.6124    7.7349    0.2462 C.3       1 <0>         0.1025
      2 N1         -1.3224    7.0408    0.2265 N.pl3     1 <0>        -0.6978
      3 C2         -1.2774    5.6683    0.0507 C.ar      1 <0>         0.5571
      4 N2         -2.4216    5.0046   -0.0978 N.ar      1 <0>        -0.5243
      5 C3         -2.4446    3.6992   -0.2681 C.ar      1 <0>         0.2511
      6 C4         -1.2204    3.0058   -0.2908 C.ar      1 <0>         0.0306
      7 C5         -0.0264    3.7485   -0.1293 C.ar      1 <0>         0.0828
      8 N3         -0.1014    5.0686    0.0371 N.ar      1 <0>        -0.5480
      9 C6          1.2046    3.0459   -0.1528 C.ar      1 <0>         0.4657
     10 N4          1.1703    1.7321   -0.3248 N.ar      1 <0>        -0.5538
     11 C7          0.0264    1.0823   -0.4716 C.ar      1 <0>         0.3247
     12 N5         -1.1413    1.6816   -0.4634 N.ar      1 <0>        -0.5092
     13 N6          2.4048    3.7111   -0.0014 N.pl3     1 <0>        -0.6223
     14 C8          3.5977    2.9885    0.0883 C.ar      1 <0>         0.1473
     15 C9          3.6103    1.7378    0.6928 C.ar      1 <0>        -0.1121
     16 C10         4.7899    1.0246    0.7759 C.ar      1 <0>        -0.0997
     17 C11         5.9598    1.5583    0.2669 C.ar      1 <0>        -0.1339
     18 C12         5.9519    2.8054   -0.3308 C.ar      1 <0>        -0.0997
     19 C13         4.7748    3.5219   -0.4216 C.ar      1 <0>        -0.1454
     20 H1         -3.1261    7.5738   -0.7016 H         1 <0>         0.0621
     21 H2         -3.2223    7.3450    1.0610 H         1 <0>         0.0621
     22 H3         -2.4484    8.8024    0.3937 H         1 <0>         0.0794
     23 H4         -0.4997    7.5429    0.3365 H         1 <0>         0.4173
     24 H5         -3.3804    3.1733   -0.3871 H         1 <0>         0.1936
     25 H6          0.0555    0.0114   -0.6086 H         1 <0>         0.2039
     26 H7          2.4202    4.6800    0.0427 H         1 <0>         0.4296
     27 H8          2.6978    1.3221    1.0939 H         1 <0>         0.1359
     28 H9          4.7997    0.0508    1.2427 H         1 <0>         0.1264
     29 H10         6.8817    1.0001    0.3366 H         1 <0>         0.1237
     30 H11         6.8672    3.2193   -0.7273 H         1 <0>         0.1265
     31 H12         4.7693    4.4959   -0.8881 H         1 <0>         0.1241
@<TRIPOS>BOND
     1    1    2 1
     2    1   20 1
     3    1   21 1
     4    1   22 1
     5    2    3 1
     6    2   23 1
     7    3    8 ar
     8    3    4 ar
     9    4    5 ar
    10    5    6 ar
    11    5   24 1
    12    6   12 ar
    13    6    7 ar
    14    7    8 ar
    15    7    9 ar
    16    9   10 ar
    17    9   13 1
    18   10   11 ar
    19   11   12 ar
    20   11   25 1
    21   13   14 1
    22   13   26 1
    23   14   19 ar
    24   14   15 ar
    25   15   16 ar
    26   15   27 1
    27   16   17 ar
    28   16   28 1
    29   17   18 ar
    30   17   29 1
    31   18   19 ar
    32   18   30 1
    33   19   31 1
@<TRIPOS>MOLECULE
ZINC03815197
   27    29     0     0     0
SMALL
USER_CHARGES

@<TRIPOS>ATOM
      1 C1          2.1589    5.6967    0.3937 C.ar      1 <0>        -0.0927
      2 C2          2.2611    4.3226    0.4908 C.ar      1 <0>        -0.0906
      3 C3          3.3220    3.6618   -0.1148 C.ar      1 <0>         0.1503
      4 C4          4.2807    4.3860   -0.8119 C.ar      1 <0>        -0.1138
      5 C5          4.1703    5.7599   -0.9095 C.ar      1 <0>        -0.0725
      6 C6          3.1115    6.4148   -0.3050 C.ar      1 <0>        -0.0990
      7 Br1         5.4713    6.7468   -1.8631 Br        1 <0>        -0.0408
      8 N1          3.4279    2.2713   -0.0182 N.pl3     1 <0>        -0.6311
      9 C7          2.2909    1.4922   -0.0132 C.ar      1 <0>         0.4959
     10 C8          2.3655    0.0964    0.2047 C.ar      1 <0>        -0.2719
     11 C9          3.5715   -0.5732    0.4257 C.ar      1 <0>         0.2250
     12 N2          3.5705   -1.8739    0.6218 N.ar      1 <0>        -0.5234
     13 C10         2.4576   -2.5968    0.6200 C.ar      1 <0>         0.3373
     14 C11         1.2307   -2.0312    0.4131 C.ar      1 <0>        -0.1867
     15 C12         1.1571   -0.6481    0.1972 C.ar      1 <0>         0.2457
     16 N3          0.0029   -0.0053   -0.0145 N.ar      1 <0>        -0.5476
     17 C13        -0.0059    1.2933   -0.2116 C.ar      1 <0>         0.3765
     18 N4          1.0933    2.0295   -0.2138 N.ar      1 <0>        -0.5844
     19 F1          2.5397   -3.9290    0.8290 F         1 <0>        -0.1014
     20 H1          1.3340    6.2108    0.8646 H         1 <0>         0.1388
     21 H2          1.5164    3.7626    1.0369 H         1 <0>         0.1413
     22 H3          5.1093    3.8755   -1.2802 H         1 <0>         0.1370
     23 H4          3.0294    7.4891   -0.3791 H         1 <0>         0.1365
     24 H5          4.3016    1.8546    0.0453 H         1 <0>         0.4249
     25 H6          4.5017   -0.0247    0.4356 H         1 <0>         0.1736
     26 H7          0.3367   -2.6372    0.4155 H         1 <0>         0.1666
     27 H8         -0.9535    1.7818   -0.3843 H         1 <0>         0.2067
@<TRIPOS>BOND
     1    1    6 ar
     2    1    2 ar
     3    1   20 1
     4    2    3 ar
     5    2   21 1
     6    3    4 ar
     7    3    8 1
     8    4    5 ar
     9    4   22 1
    10    5    6 ar
    11    5    7 1
    12    6   23 1
    13    8    9 1
    14    8   24 1
    15    9   18 ar
    16    9   10 ar
    17   10   15 ar
    18   10   11 ar
    19   11   12 ar
    20   11   25 1
    21   12   13 ar
    22   13   14 ar
    23   13   19 1
    24   14   15 ar
    25   14   26 1
    26   15   16 ar
    27   16   17 ar
    28   17   18 ar
    29   17   27 1
@<TRIPOS>MOLECULE
ZINC03815198
   41    43     0     0     0
SMALL
USER_CHARGES

@<TRIPOS>ATOM
      1 C1          2.1577    5.6966    0.3942 C.ar      1 <0>        -0.0916
      2 C2          2.2603    4.3225    0.4909 C.ar      1 <0>        -0.0826
      3 C3          3.3215    3.6622   -0.1150 C.ar      1 <0>         0.1218
      4 C4          4.2797    4.3869   -0.8123 C.ar      1 <0>        -0.1024
      5 C5          4.1688    5.7608   -0.9094 C.ar      1 <0>        -0.0754
      6 C6          3.1100    6.4152   -0.3043 C.ar      1 <0>        -0.0830
      7 Br1         5.4687    6.7483   -1.8638 Br        1 <0>        -0.0269
      8 N1          3.4281    2.2717   -0.0184 N.pl3     1 <0>        -0.6089
      9 C7          2.2914    1.4919   -0.0144 C.ar      1 <0>         0.5211
     10 C8          2.3671    0.0967    0.2035 C.ar      1 <0>        -0.2646
     11 C9          3.5751   -0.5691    0.4250 C.ar      1 <0>         0.2679
     12 C10         2.4717   -2.6006    0.6204 C.ar      1 <0>         0.4402
     13 C11         1.2299   -2.0296    0.4098 C.ar      1 <0>        -0.2047
     14 C12         1.1580   -0.6486    0.1945 C.ar      1 <0>         0.3065
     15 N2          0.0031   -0.0057   -0.0186 N.ar      1 <0>        -0.5577
     16 C13        -0.0056    1.2929   -0.2155 C.ar      1 <0>         0.4273
     17 N3          1.0937    2.0290   -0.2163 N.ar      1 <0>        -0.5820
     18 N4          2.5608   -3.9699    0.8351 N.pl3     1 <0>        -0.6855
     19 C14         1.3480   -4.7916    0.8367 C.3       1 <0>         0.1429
     20 C15         0.9984   -5.1877   -0.5993 C.3       1 <0>         0.0582
     21 O1          2.0257   -6.0310   -1.1242 O.3       1 <0>        -0.5432
     22 C16         1.5872   -6.0524    1.6697 C.3       1 <0>         0.0674
     23 O2          2.5875   -6.8561    1.0408 O.3       1 <0>        -0.5472
     24 H1          1.3327    6.2103    0.8653 H         1 <0>         0.1447
     25 H2          1.5159    3.7620    1.0368 H         1 <0>         0.1421
     26 H3          5.1084    3.8769   -1.2807 H         1 <0>         0.1389
     27 H4          3.0277    7.4896   -0.3778 H         1 <0>         0.1429
     28 H5          4.3020    1.8556    0.0458 H         1 <0>         0.4245
     29 H6          4.5026   -0.0158    0.4344 H         1 <0>         0.1969
     30 H7          0.3360   -2.6356    0.4110 H         1 <0>         0.1884
     31 H8         -0.9530    1.7814   -0.3892 H         1 <0>         0.2212
     32 H9          3.4261   -4.3821    0.9840 H         1 <0>         0.4247
     33 H10         0.5241   -4.2225    1.2673 H         1 <0>         0.1246
     34 H11         0.0491   -5.7233   -0.6076 H         1 <0>         0.0694
     35 H12         0.9152   -4.2911   -1.2135 H         1 <0>         0.0503
     36 H13         1.8699   -6.3214   -2.0333 H         1 <0>         0.3818
     37 H14         1.9224   -5.7703    2.6678 H         1 <0>         0.0568
     38 H15         0.6595   -6.6198    1.7447 H         1 <0>         0.0753
     39 H16         2.7907   -7.6738    1.5153 H         1 <0>         0.3856
     40 N5          3.6583   -1.9077    0.6351 N.ar      1 <0>        -0.5394
     41 H17         4.5576   -2.3762    0.7959 H         1 <0>         0.4741
@<TRIPOS>BOND
     1    1    6 ar
     2    1    2 ar
     3    1   24 1
     4    2    3 ar
     5    2   25 1
     6    3    4 ar
     7    3    8 1
     8    4    5 ar
     9    4   26 1
    10    5    6 ar
    11    5    7 1
    12    6   27 1
    13    8    9 1
    14    8   28 1
    15    9   17 ar
    16    9   10 ar
    17   10   14 ar
    18   10   11 ar
    19   11   29 1
    20   11   40 ar
    21   12   13 ar
    22   12   18 1
    23   12   40 ar
    24   13   14 ar
    25   13   30 1
    26   14   15 ar
    27   15   16 ar
    28   16   17 ar
    29   16   31 1
    30   18   19 1
    31   18   32 1
    32   19   20 1
    33   19   22 1
    34   19   33 1
    35   20   21 1
    36   20   34 1
    37   20   35 1
    38   21   36 1
    39   22   23 1
    40   22   37 1
    41   22   38 1
    42   23   39 1
    43   40   41 1
@<TRIPOS>MOLECULE
ZINC03815199
   34    36     0     0     0
SMALL
USER_CHARGES

@<TRIPOS>ATOM
      1 C1          4.6758    5.0177    0.8432 C.3       1 <0>         0.0155
      2 O1          3.4641    5.7742    0.8807 O.3       1 <0>        -0.2759
      3 C2          2.3067    5.0952    0.6725 C.ar      1 <0>         0.2202
      4 C3          2.3459    3.7365    0.4394 C.ar      1 <0>        -0.2119
      5 C4          1.1511    3.0406    0.2249 C.ar      1 <0>         0.2626
      6 C5         -0.0782    3.7453    0.2516 C.ar      1 <0>        -0.2360
      7 C6         -0.0862    5.1243    0.4910 C.ar      1 <0>         0.0471
      8 C7          1.0895    5.7809    0.6972 C.ar      1 <0>        -0.0786
      9 N1          1.0774    7.2393    0.9502 N.pl3     1 <0>         0.0323
     10 O2          0.0207    7.8447    0.9730 O.2       1 <0>        -0.1759
     11 O3          2.1241    7.8340    1.1355 O.3       1 <0>        -0.1209
     12 C8         -1.2709    3.0156    0.0318 C.ar      1 <0>         0.4969
     13 N2         -1.1761    1.7114   -0.1929 N.ar      1 <0>        -0.5866
     14 C9         -0.0053    1.0947   -0.2033 C.ar      1 <0>         0.3816
     15 N3          1.1318    1.7187   -0.0063 N.ar      1 <0>        -0.5546
     16 N4         -2.4988    3.6448    0.0450 N.pl3     1 <0>        -0.6305
     17 C10        -3.6716    2.8906   -0.0533 C.ar      1 <0>         0.1481
     18 C11        -3.7416    1.6327    0.5326 C.ar      1 <0>        -0.0900
     19 C12        -4.9016    0.8901    0.4342 C.ar      1 <0>        -0.0928
     20 C13        -5.9935    1.3968   -0.2466 C.ar      1 <0>        -0.0976
     21 C14        -5.9276    2.6490   -0.8314 C.ar      1 <0>        -0.0724
     22 C15        -4.7712    3.3994   -0.7319 C.ar      1 <0>        -0.1127
     23 Br1        -7.4235    3.3372   -1.7612 Br        1 <0>        -0.0394
     24 H1          4.6465    4.2462    1.6126 H         1 <0>         0.0674
     25 H2          4.7824    4.5506   -0.1359 H         1 <0>         0.0674
     26 H3          5.5230    5.6793    1.0242 H         1 <0>         0.1168
     27 H4          3.2910    3.2140    0.4223 H         1 <0>         0.1685
     28 H5         -1.0205    5.6657    0.5119 H         1 <0>         0.1631
     29 H6          0.0154    0.0305   -0.3866 H         1 <0>         0.2078
     30 H7         -2.5482    4.6104    0.1226 H         1 <0>         0.4252
     31 H8         -2.8893    1.2360    1.0642 H         1 <0>         0.1413
     32 H9         -4.9563   -0.0876    0.8899 H         1 <0>         0.1393
     33 H10        -6.8996    0.8139   -0.3217 H         1 <0>         0.1372
     34 H11        -4.7215    4.3787   -1.1846 H         1 <0>         0.1374
@<TRIPOS>BOND
     1    1    2 1
     2    1   24 1
     3    1   25 1
     4    1   26 1
     5    2    3 1
     6    3    8 ar
     7    3    4 ar
     8    4    5 ar
     9    4   27 1
    10    5   15 ar
    11    5    6 ar
    12    6    7 ar
    13    6   12 ar
    14    7    8 ar
    15    7   28 1
    16    8    9 1
    17    9   10 2
    18    9   11 1
    19   12   13 ar
    20   12   16 1
    21   13   14 ar
    22   14   15 ar
    23   14   29 1
    24   16   17 1
    25   16   30 1
    26   17   22 ar
    27   17   18 ar
    28   18   19 ar
    29   18   31 1
    30   19   20 ar
    31   19   32 1
    32   20   21 ar
    33   20   33 1
    34   21   22 ar
    35   21   23 1
    36   22   34 1
@<TRIPOS>MOLECULE
ZINC03815200
   31    34     0     0     0
SMALL
USER_CHARGES

@<TRIPOS>ATOM
      1 C1          5.9504    2.8063   -0.3331 C.ar      1 <0>        -0.0918
      2 C2          4.7729    3.5229   -0.4222 C.ar      1 <0>        -0.1316
      3 C3          3.5963    2.9894    0.0879 C.ar      1 <0>         0.1566
      4 C4          3.6088    1.7383    0.6916 C.ar      1 <0>        -0.0840
      5 C5          4.7889    1.0242    0.7729 C.ar      1 <0>        -0.0711
      6 C6          5.9593    1.5592    0.2634 C.ar      1 <0>        -0.1056
      7 Br1         4.8065   -0.6820    1.5879 Br        1 <0>        -0.0429
      8 N1          2.4033    3.7122   -0.0009 N.pl3     1 <0>        -0.6373
      9 C7          1.2029    3.0473   -0.1526 C.ar      1 <0>         0.4709
     10 C8         -0.0251    3.7501   -0.1277 C.ar      1 <0>        -0.1827
     11 C9         -0.0815    5.1373    0.0525 C.ar      1 <0>        -0.0650
     12 C10        -1.2915    5.7712    0.0693 C.ar      1 <0>         0.0325
     13 C11        -2.4823    5.0447   -0.0939 C.ar      1 <0>         0.0909
     14 C12        -2.4520    3.6793   -0.2728 C.ar      1 <0>        -0.1012
     15 C13        -1.2222    3.0104   -0.2911 C.ar      1 <0>         0.2080
     16 N2         -1.1405    1.6819   -0.4652 N.ar      1 <0>        -0.5377
     17 C14         0.0264    1.0828   -0.4736 C.ar      1 <0>         0.3516
     18 N3          1.1700    1.7325   -0.3262 N.ar      1 <0>        -0.5775
     19 O1         -3.5308    5.9167   -0.0381 O.3       1 <0>        -0.2986
     20 C15        -3.0070    7.1115    0.5701 C.3       1 <0>         0.2100
     21 O2         -1.6093    7.0906    0.2266 O.3       1 <0>        -0.3023
     22 H1          6.8654    3.2210   -0.7297 H         1 <0>         0.1376
     23 H2          4.7670    4.4971   -0.8884 H         1 <0>         0.1322
     24 H3          2.6966    1.3228    1.0935 H         1 <0>         0.1485
     25 H4          6.8815    1.0014    0.3324 H         1 <0>         0.1350
     26 H5          2.4187    4.6811    0.0442 H         1 <0>         0.4237
     27 H6          0.8289    5.7046    0.1775 H         1 <0>         0.1398
     28 H7         -3.3720    3.1276   -0.3981 H         1 <0>         0.1570
     29 H8          0.0555    0.0120   -0.6113 H         1 <0>         0.2025
     30 H9         -3.1354    7.0778    1.6520 H         1 <0>         0.0930
     31 H10        -3.4899    7.9956    0.1540 H         1 <0>         0.1398
@<TRIPOS>BOND
     1    1    6 ar
     2    1    2 ar
     3    1   22 1
     4    2    3 ar
     5    2   23 1
     6    3    4 ar
     7    3    8 1
     8    4    5 ar
     9    4   24 1
    10    5    6 ar
    11    5    7 1
    12    6   25 1
    13    8    9 1
    14    8   26 1
    15    9   18 ar
    16    9   10 ar
    17   10   15 ar
    18   10   11 ar
    19   11   12 ar
    20   11   27 1
    21   12   21 1
    22   12   13 ar
    23   13   14 ar
    24   13   19 1
    25   14   15 ar
    26   14   28 1
    27   15   16 ar
    28   16   17 ar
    29   17   18 ar
    30   17   29 1
    31   19   20 1
    32   20   21 1
    33   20   30 1
    34   20   31 1
@<TRIPOS>MOLECULE
ZINC03815201
   38    40     0     0     0
SMALL
USER_CHARGES

@<TRIPOS>ATOM
      1 C1          1.3641   -4.8071    0.7293 C.3       1 <0>         0.0763
      2 N1          2.5612   -3.9694    0.8356 N.pl3     1 <0>        -0.5475
      3 C2          3.8525   -4.5760    1.1688 C.3       1 <0>         0.0419
      4 C3          4.0326   -4.5839    2.6650 C.2       1 <0>         0.4381
      5 O1          3.1708   -4.1295    3.3796 O.co2     1 <0>        -0.6119
      6 C4          2.4720   -2.6003    0.6204 C.ar      1 <0>         0.4509
      7 C5          1.2299   -2.0292    0.4098 C.ar      1 <0>        -0.2018
      8 C6          1.1580   -0.6486    0.1946 C.ar      1 <0>         0.2945
      9 C7          2.3673    0.0969    0.2036 C.ar      1 <0>        -0.2695
     10 C8          3.5750   -0.5685    0.4254 C.ar      1 <0>         0.2610
     11 C9          2.2915    1.4922   -0.0143 C.ar      1 <0>         0.5223
     12 N2          1.0937    2.0291   -0.2162 N.ar      1 <0>        -0.5909
     13 C10        -0.0056    1.2930   -0.2154 C.ar      1 <0>         0.4119
     14 N3          0.0030   -0.0056   -0.0184 N.ar      1 <0>        -0.5572
     15 N4          3.4280    2.2722   -0.0180 N.pl3     1 <0>        -0.6199
     16 C11         3.3212    3.6627   -0.1146 C.ar      1 <0>         0.1358
     17 C12         2.2594    4.3230    0.4911 C.ar      1 <0>        -0.0843
     18 C13         2.1566    5.6966    0.3945 C.ar      1 <0>        -0.0924
     19 C14         3.1093    6.4157   -0.3040 C.ar      1 <0>        -0.0905
     20 C15         4.1680    5.7616   -0.9086 C.ar      1 <0>        -0.0747
     21 C16         4.2791    4.3874   -0.8114 C.ar      1 <0>        -0.1073
     22 Br1         5.4681    6.7494   -1.8625 Br        1 <0>        -0.0353
     23 H1          1.2571   -5.1596   -0.2965 H         1 <0>         0.0790
     24 H2          1.4581   -5.6618    1.3992 H         1 <0>         0.0969
     25 H3          0.4863   -4.2233    1.0063 H         1 <0>         0.0887
     26 H4          3.8808   -5.5991    0.7940 H         1 <0>         0.1193
     27 H5          4.6546   -3.9984    0.7093 H         1 <0>         0.0797
     28 H6          0.3360   -2.6352    0.4111 H         1 <0>         0.1888
     29 H7          4.5024   -0.0151    0.4350 H         1 <0>         0.1918
     30 H8         -0.9530    1.7815   -0.3890 H         1 <0>         0.2146
     31 H9          4.3019    1.8563    0.0464 H         1 <0>         0.4241
     32 H10         1.5149    3.7624    1.0368 H         1 <0>         0.1434
     33 H11         1.3313    6.2102    0.8653 H         1 <0>         0.1420
     34 H12         3.0268    7.4900   -0.3774 H         1 <0>         0.1393
     35 H13         5.1079    3.8775   -1.2799 H         1 <0>         0.1380
     36 O2          5.1504   -5.0957    3.2037 O.co2     1 <0>        -0.7317
     37 N5          3.6583   -1.9074    0.6355 N.ar      1 <0>        -0.5351
     38 H14         4.5576   -2.3758    0.7966 H         1 <0>         0.4717
@<TRIPOS>BOND
     1    1    2 1
     2    1   23 1
     3    1   24 1
     4    1   25 1
     5    2    3 1
     6    2    6 1
     7    3    4 1
     8    3   26 1
     9    3   27 1
    10    4    5 2
    11    4   36 1
    12    6    7 ar
    13    6   37 ar
    14    7    8 ar
    15    7   28 1
    16    8   14 ar
    17    8    9 ar
    18    9   10 ar
    19    9   11 ar
    20   10   29 1
    21   10   37 ar
    22   11   12 ar
    23   11   15 1
    24   12   13 ar
    25   13   14 ar
    26   13   30 1
    27   15   16 1
    28   15   31 1
    29   16   21 ar
    30   16   17 ar
    31   17   18 ar
    32   17   32 1
    33   18   19 ar
    34   18   33 1
    35   19   20 ar
    36   19   34 1
    37   20   21 ar
    38   20   22 1
    39   21   35 1
    40   37   38 1
@<TRIPOS>MOLECULE
ZINC03815202
   31    33     0     0     0
SMALL
USER_CHARGES

@<TRIPOS>ATOM
      1 C1         -1.9932    0.9752   -1.4767 C.3       1 <0>        -0.1157
      2 C2         -0.9727    1.7492   -0.6826 C.ar      1 <0>        -0.0660
      3 C3         -0.0171    1.0758    0.0566 C.ar      1 <0>        -0.1334
      4 C4          0.9243    1.7820    0.7824 C.ar      1 <0>        -0.0952
      5 C5          0.9100    3.1631    0.7757 C.ar      1 <0>        -0.1171
      6 C6         -0.0515    3.8425    0.0386 C.ar      1 <0>         0.1500
      7 C7         -0.9959    3.1298   -0.6895 C.ar      1 <0>        -0.1452
      8 N1         -0.0691    5.2400    0.0299 N.pl3     1 <0>        -0.6192
      9 C8          1.1134    5.9458    0.1271 C.ar      1 <0>         0.4686
     10 C9          1.1201    7.4028    0.2403 C.ar      1 <0>         0.0880
     11 C10         2.3761    8.0491    0.3409 C.ar      1 <0>         0.0275
     12 C11         2.3947    9.4507    0.4562 C.ar      1 <0>         0.2507
     13 N2          1.2446   10.0925    0.4707 N.ar      1 <0>        -0.5307
     14 C12         0.0841    9.4479    0.3795 C.ar      1 <0>         0.5602
     15 N3          0.0081    8.1338    0.2690 N.ar      1 <0>        -0.5465
     16 N4         -1.0890   10.1829    0.4008 N.pl3     1 <0>        -0.8148
     17 N5          3.4876    7.3057    0.3172 N.ar      1 <0>        -0.5131
     18 C13         3.4229    6.0012    0.2088 C.ar      1 <0>         0.3276
     19 N6          2.2876    5.3277    0.1158 N.ar      1 <0>        -0.5551
     20 H1         -2.8692    0.7861   -0.8562 H         1 <0>         0.0722
     21 H2         -2.2866    1.5535   -2.3528 H         1 <0>         0.0662
     22 H3         -1.5620    0.0263   -1.7955 H         1 <0>         0.0691
     23 H4         -0.0035   -0.0041    0.0633 H         1 <0>         0.1237
     24 H5          1.6718    1.2531    1.3550 H         1 <0>         0.1272
     25 H6          1.6454    3.7142    1.3431 H         1 <0>         0.1363
     26 H7         -1.7449    3.6550   -1.2637 H         1 <0>         0.1242
     27 H8         -0.9121    5.7139   -0.0444 H         1 <0>         0.4296
     28 H9          3.3289    9.9874    0.5307 H         1 <0>         0.1938
     29 H10        -1.0546   11.1490    0.4810 H         1 <0>         0.4182
     30 H11        -1.9453    9.7318    0.3355 H         1 <0>         0.4169
     31 H12         4.3483    5.4446    0.1941 H         1 <0>         0.2022
@<TRIPOS>BOND
     1    1    2 1
     2    1   20 1
     3    1   21 1
     4    1   22 1
     5    2    7 ar
     6    2    3 ar
     7    3    4 ar
     8    3   23 1
     9    4    5 ar
    10    4   24 1
    11    5    6 ar
    12    5   25 1
    13    6    7 ar
    14    6    8 1
    15    7   26 1
    16    8    9 1
    17    8   27 1
    18    9   19 ar
    19    9   10 ar
    20   10   15 ar
    21   10   11 ar
    22   11   12 ar
    23   11   17 ar
    24   12   13 ar
    25   12   28 1
    26   13   14 ar
    27   14   15 ar
    28   14   16 1
    29   16   29 1
    30   16   30 1
    31   17   18 ar
    32   18   19 ar
    33   18   31 1
@<TRIPOS>MOLECULE
ZINC03815203
   27    29     0     0     0
SMALL
USER_CHARGES

@<TRIPOS>ATOM
      1 C1         -2.4966    4.2013    0.4289 C.ar      1 <0>        -0.0926
      2 C2         -1.2881    3.5386    0.5193 C.ar      1 <0>        -0.0931
      3 C3         -0.1561    4.0760   -0.0801 C.ar      1 <0>         0.1524
      4 C4         -0.2422    5.2818   -0.7645 C.ar      1 <0>        -0.1142
      5 C5         -1.4551    5.9374   -0.8554 C.ar      1 <0>        -0.0716
      6 C6         -2.5807    5.3988   -0.2569 C.ar      1 <0>        -0.1011
      7 Br1        -1.5754    7.5759   -1.7917 Br        1 <0>        -0.0423
      8 N1          1.0682    3.4078    0.0102 N.pl3     1 <0>        -0.6201
      9 C7          1.1041    2.0283   -0.0034 C.ar      1 <0>         0.4888
     10 C8          2.3210    1.3294    0.2086 C.ar      1 <0>         0.0063
     11 C9          2.2851   -0.0846    0.1815 C.ar      1 <0>         0.1459
     12 C10         3.4773   -0.7995    0.3891 C.ar      1 <0>        -0.0441
     13 C11         4.6234   -0.0889    0.6101 C.ar      1 <0>        -0.1131
     14 C12         4.5866    1.3052    0.6236 C.ar      1 <0>         0.1867
     15 N2          3.4687    1.9664    0.4283 N.ar      1 <0>        -0.4406
     16 Cl1         6.0545    2.1882    0.9050 Cl        1 <0>        -0.0128
     17 N3          1.1161   -0.7003   -0.0408 N.ar      1 <0>        -0.5366
     18 C13         0.0219   -0.0017   -0.2304 C.ar      1 <0>         0.3556
     19 N4          0.0032    1.3216   -0.2145 N.ar      1 <0>        -0.5720
     20 H1         -3.3769    3.7836    0.8949 H         1 <0>         0.1384
     21 H2         -1.2234    2.6032    1.0552 H         1 <0>         0.1402
     22 H3          0.6369    5.7043   -1.2282 H         1 <0>         0.1364
     23 H4         -3.5268    5.9152   -0.3254 H         1 <0>         0.1361
     24 H5          1.8926    3.9138    0.0823 H         1 <0>         0.4334
     25 H6          3.4872   -1.8793    0.3749 H         1 <0>         0.1660
     26 H7          5.5571   -0.6064    0.7738 H         1 <0>         0.1611
     27 H8         -0.9037   -0.5293   -0.4074 H         1 <0>         0.2068
@<TRIPOS>BOND
     1    1    6 ar
     2    1    2 ar
     3    1   20 1
     4    2    3 ar
     5    2   21 1
     6    3    4 ar
     7    3    8 1
     8    4    5 ar
     9    4   22 1
    10    5    6 ar
    11    5    7 1
    12    6   23 1
    13    8    9 1
    14    8   24 1
    15    9   19 ar
    16    9   10 ar
    17   10   15 ar
    18   10   11 ar
    19   11   12 ar
    20   11   17 ar
    21   12   13 ar
    22   12   25 1
    23   13   14 ar
    24   13   26 1
    25   14   15 ar
    26   14   16 1
    27   17   18 ar
    28   18   19 ar
    29   18   27 1
@<TRIPOS>MOLECULE
ZINC03815204
   35    38     0     0     0
SMALL
USER_CHARGES

@<TRIPOS>ATOM
      1 C1          6.6079    1.7441   -0.0691 C.ar      1 <0>        -0.1023
      2 C2          5.5152    1.9902   -0.8809 C.ar      1 <0>        -0.1142
      3 C3          4.9734    3.2576   -0.9477 C.ar      1 <0>        -0.1106
      4 C4          5.5291    4.2908   -0.1947 C.ar      1 <0>        -0.0323
      5 C5          6.6335    4.0380    0.6176 C.ar      1 <0>        -0.0830
      6 C6          7.1635    2.7654    0.6804 C.ar      1 <0>        -0.1130
      7 C7          4.9516    5.6546   -0.2621 C.2       1 <0>         0.1723
      8 C8          3.5471    6.0113   -0.0633 C.ar      1 <0>        -0.3160
      9 C9          3.4648    7.4078   -0.2197 C.ar      1 <0>         0.3818
     10 N1          4.7251    7.8507   -0.4913 N.pl3     1 <0>        -0.4796
     11 H1          4.9802    8.8042   -0.6518 H         1 <0>         0.4575
     12 N2          5.6061    6.7642   -0.5106 N.2       1 <0>        -0.2241
     13 N3          2.2766    7.9965   -0.0866 N.ar      1 <0>        -0.5662
     14 C10         1.2030    7.2875    0.1853 C.ar      1 <0>         0.3872
     15 N4          1.2335    5.9754    0.3355 N.ar      1 <0>        -0.5907
     16 C11         2.3725    5.2981    0.2270 C.ar      1 <0>         0.5093
     17 N5          2.3990    3.9254    0.3902 N.pl3     1 <0>        -0.6362
     18 C12         1.2021    3.2097    0.4854 C.ar      1 <0>         0.1593
     19 C13         1.1515    1.8812    0.0817 C.ar      1 <0>        -0.1470
     20 C14        -0.0322    1.1765    0.1763 C.ar      1 <0>        -0.0855
     21 C15        -1.1686    1.7928    0.6674 C.ar      1 <0>        -0.1295
     22 C16        -1.1209    3.1143    1.0755 C.ar      1 <0>        -0.0152
     23 C17         0.0612    3.8251    0.9832 C.ar      1 <0>        -0.1243
     24 Cl1        -2.5483    3.8821    1.6975 Cl        1 <0>        -0.0648
     25 H2          7.0286    0.7506   -0.0200 H         1 <0>         0.1306
     26 H3          5.0854    1.1889   -1.4638 H         1 <0>         0.1330
     27 H4          4.1202    3.4486   -1.5818 H         1 <0>         0.1281
     28 H5          7.0709    4.8357    1.1997 H         1 <0>         0.1303
     29 H6          8.0166    2.5674    1.3124 H         1 <0>         0.1324
     30 H7          0.2568    7.7984    0.2862 H         1 <0>         0.2104
     31 H8          3.2482    3.4591    0.4387 H         1 <0>         0.4244
     32 H9          2.0373    1.4001   -0.3062 H         1 <0>         0.1300
     33 H10        -0.0717    0.1439   -0.1378 H         1 <0>         0.1367
     34 H11        -2.0942    1.2406    0.7362 H         1 <0>         0.1338
     35 H12         0.0972    4.8577    1.2974 H         1 <0>         0.1774
@<TRIPOS>BOND
     1    1    6 ar
     2    1    2 ar
     3    1   25 1
     4    2    3 ar
     5    2   26 1
     6    3    4 ar
     7    3   27 1
     8    4    5 ar
     9    4    7 1
    10    5    6 ar
    11    5   28 1
    12    6   29 1
    13    7   12 2
    14    7    8 1
    15    8   16 ar
    16    8    9 ar
    17    9   10 1
    18    9   13 ar
    19   10   11 1
    20   10   12 1
    21   13   14 ar
    22   14   15 ar
    23   14   30 1
    24   15   16 ar
    25   16   17 1
    26   17   18 1
    27   17   31 1
    28   18   23 ar
    29   18   19 ar
    30   19   20 ar
    31   19   32 1
    32   20   21 ar
    33   20   33 1
    34   21   22 ar
    35   21   34 1
    36   22   23 ar
    37   22   24 1
    38   23   35 1
@<TRIPOS>MOLECULE
ZINC03815205
   39    42     0     0     0
SMALL
USER_CHARGES

@<TRIPOS>ATOM
      1 C1          8.9673   10.9756   -0.7257 C.3       1 <0>         0.0866
      2 N1          8.7355    9.5291   -0.7376 N.pl3     1 <0>        -0.6250
      3 C2          9.8687    8.6065   -0.8426 C.3       1 <0>         0.0824
      4 C3          7.4353    9.0300   -0.6488 C.ar      1 <0>         0.2638
      5 C4          6.3444    9.8980   -0.6723 C.ar      1 <0>        -0.2011
      6 C5          5.0701    9.4332   -0.5867 C.ar      1 <0>         0.0099
      7 C6          4.8090    8.0489   -0.4703 C.ar      1 <0>        -0.1557
      8 C7          5.9220    7.1908   -0.4485 C.ar      1 <0>        -0.0231
      9 C8          7.2145    7.6643   -0.5359 C.ar      1 <0>        -0.1772
     10 S1          5.2269    5.5647   -0.2970 S.3       1 <0>         0.0743
     11 C9          3.5087    5.9953   -0.2624 C.ar      1 <0>        -0.2906
     12 C10         3.4916    7.3919   -0.3683 C.ar      1 <0>         0.2394
     13 N2          2.2708    7.9729   -0.3651 N.ar      1 <0>        -0.5338
     14 C11         1.1767    7.2598   -0.2681 C.ar      1 <0>         0.3432
     15 N3          1.1753    5.9430   -0.1726 N.ar      1 <0>        -0.5525
     16 C12         2.3280    5.2735   -0.1612 C.ar      1 <0>         0.4839
     17 N4          2.3464    3.8901   -0.0568 N.pl3     1 <0>        -0.6460
     18 C13         1.1571    3.1901    0.1637 C.ar      1 <0>         0.1629
     19 C14         0.9719    1.9357   -0.4045 C.ar      1 <0>        -0.1328
     20 C15        -0.2044    1.2465   -0.1853 C.ar      1 <0>        -0.0911
     21 C16        -1.2005    1.8057    0.5943 C.ar      1 <0>        -0.1077
     22 C17        -1.0175    3.0520    1.1665 C.ar      1 <0>        -0.0699
     23 C18         0.1576    3.7469    0.9509 C.ar      1 <0>        -0.0862
     24 Br1        -2.3795    3.8087    2.2381 Br        1 <0>        -0.0444
     25 H1          9.1027   11.3134    0.3017 H         1 <0>         0.0558
     26 H2          9.8620   11.2049   -1.3045 H         1 <0>         0.0726
     27 H3          8.1097   11.4846   -1.1655 H         1 <0>         0.0739
     28 H4          9.5140    7.5815   -0.7340 H         1 <0>         0.0803
     29 H5         10.3447    8.7250   -1.8160 H         1 <0>         0.0599
     30 H6         10.5904    8.8265   -0.0560 H         1 <0>         0.0633
     31 H7          6.5154   10.9607   -0.7605 H         1 <0>         0.1349
     32 H8          4.2460   10.1309   -0.6076 H         1 <0>         0.1362
     33 H9          8.0482    6.9780   -0.5159 H         1 <0>         0.1395
     34 H10         0.2273    7.7746   -0.2708 H         1 <0>         0.2030
     35 H11         3.1848    3.4088   -0.1369 H         1 <0>         0.4231
     36 H12         1.7475    1.5000   -1.0168 H         1 <0>         0.1318
     37 H13        -0.3485    0.2715   -0.6268 H         1 <0>         0.1372
     38 H14        -2.1213    1.2663    0.7605 H         1 <0>         0.1346
     39 H15         0.2983    4.7219    1.3937 H         1 <0>         0.1445
@<TRIPOS>BOND
     1    1    2 1
     2    1   25 1
     3    1   26 1
     4    1   27 1
     5    2    3 1
     6    2    4 1
     7    3   28 1
     8    3   29 1
     9    3   30 1
    10    4    9 ar
    11    4    5 ar
    12    5    6 ar
    13    5   31 1
    14    6    7 ar
    15    6   32 1
    16    7   12 1
    17    7    8 ar
    18    8    9 ar
    19    8   10 1
    20    9   33 1
    21   10   11 1
    22   11   16 ar
    23   11   12 ar
    24   12   13 ar
    25   13   14 ar
    26   14   15 ar
    27   14   34 1
    28   15   16 ar
    29   16   17 1
    30   17   18 1
    31   17   35 1
    32   18   23 ar
    33   18   19 ar
    34   19   20 ar
    35   19   36 1
    36   20   21 ar
    37   20   37 1
    38   21   22 ar
    39   21   38 1
    40   22   23 ar
    41   22   24 1
    42   23   39 1
@<TRIPOS>MOLECULE
ZINC03815206
   35    37     0     0     0
SMALL
USER_CHARGES

@<TRIPOS>ATOM
      1 C1         -5.9565   -1.0449   -0.1745 C.3       1 <0>         0.0214
      2 O1         -5.8953   -2.4677   -0.2922 O.3       1 <0>        -0.2997
      3 C2         -4.6591   -3.0340   -0.2997 C.ar      1 <0>         0.1111
      4 C3         -3.5524   -2.2404   -0.1976 C.ar      1 <0>        -0.1371
      5 C4         -2.2786   -2.8231   -0.2003 C.ar      1 <0>        -0.1532
      6 C5         -2.1454   -4.2293   -0.3197 C.ar      1 <0>         0.1973
      7 C6         -3.2942   -5.0233   -0.4232 C.ar      1 <0>        -0.1864
      8 C7         -4.5350   -4.4261   -0.4128 C.ar      1 <0>         0.1693
      9 O2         -5.6511   -5.1940   -0.5135 O.3       1 <0>        -0.2952
     10 C8         -5.4593   -6.6056   -0.6264 C.3       1 <0>         0.0192
     11 N1         -0.9139   -4.7617   -0.3245 N.ar      1 <0>        -0.5232
     12 C9          0.1430   -3.9913   -0.2256 C.ar      1 <0>         0.3382
     13 N2          0.0655   -2.6741   -0.1170 N.ar      1 <0>        -0.5751
     14 C10        -1.1014   -2.0476   -0.1021 C.ar      1 <0>         0.3980
     15 O3         -1.1648   -0.7005    0.0099 O.3       1 <0>        -0.2350
     16 C11         0.0029   -0.0055    0.0196 C.ar      1 <0>         0.0995
     17 C12         0.6976    0.2026   -1.1637 C.ar      1 <0>        -0.1067
     18 C13         1.8846    0.9089   -1.1518 C.ar      1 <0>        -0.0911
     19 C14         2.3814    1.4089    0.0378 C.ar      1 <0>        -0.1013
     20 C15         1.6911    1.2031    1.2192 C.ar      1 <0>        -0.0229
     21 C16         0.5025    0.4967    1.2121 C.ar      1 <0>        -0.1037
     22 Cl1         2.3177    1.8322    2.7110 Cl        1 <0>        -0.0563
     23 H1         -5.4302   -0.5881   -1.0127 H         1 <0>         0.0594
     24 H2         -6.9982   -0.7242   -0.1813 H         1 <0>         0.1070
     25 H3         -5.4876   -0.7371    0.7601 H         1 <0>         0.0596
     26 H4         -3.6589   -1.1692   -0.1111 H         1 <0>         0.1536
     27 H5         -3.2078   -6.0963   -0.5110 H         1 <0>         0.1590
     28 H6         -4.8730   -6.8223   -1.5194 H         1 <0>         0.0629
     29 H7         -4.9301   -6.9719    0.2533 H         1 <0>         0.0629
     30 H8         -6.4283   -7.0993   -0.6993 H         1 <0>         0.1083
     31 H9          1.1198   -4.4519   -0.2326 H         1 <0>         0.2018
     32 H10         0.3106   -0.1879   -2.0933 H         1 <0>         0.1335
     33 H11         2.4250    1.0711   -2.0727 H         1 <0>         0.1426
     34 H12         3.3095    1.9611    0.0447 H         1 <0>         0.1413
     35 H13        -0.0386    0.3398    2.1336 H         1 <0>         0.1411
@<TRIPOS>BOND
     1    1    2 1
     2    1   23 1
     3    1   24 1
     4    1   25 1
     5    2    3 1
     6    3    8 ar
     7    3    4 ar
     8    4    5 ar
     9    4   26 1
    10    5   14 ar
    11    5    6 ar
    12    6    7 ar
    13    6   11 ar
    14    7    8 ar
    15    7   27 1
    16    8    9 1
    17    9   10 1
    18   10   28 1
    19   10   29 1
    20   10   30 1
    21   11   12 ar
    22   12   13 ar
    23   12   31 1
    24   13   14 ar
    25   14   15 1
    26   15   16 1
    27   16   21 ar
    28   16   17 ar
    29   17   18 ar
    30   17   32 1
    31   18   19 ar
    32   18   33 1
    33   19   20 ar
    34   19   34 1
    35   20   21 ar
    36   20   22 1
    37   21   35 1
@<TRIPOS>MOLECULE
ZINC03815207
   35    38     0     0     0
SMALL
USER_CHARGES

@<TRIPOS>ATOM
      1 C1         -4.2489    1.0312    0.7845 C.3       1 <0>         0.0202
      2 O1         -2.8558    0.7491    0.6376 O.3       1 <0>        -0.2869
      3 C2         -2.5064   -0.5493    0.4470 C.ar      1 <0>         0.2060
      4 C3         -3.4823   -1.5202    0.4041 C.ar      1 <0>        -0.2284
      5 C4         -3.1593   -2.8540    0.2117 C.ar      1 <0>        -0.0271
      6 C5         -1.8356   -3.2192    0.0600 C.ar      1 <0>        -0.1264
      7 C6         -0.8488   -2.2546    0.1012 C.ar      1 <0>        -0.0426
      8 C7         -1.1407   -0.8945    0.2944 C.ar      1 <0>        -0.1277
      9 C8          0.0208    0.0147    0.3143 C.ar      1 <0>         0.2377
     10 C9          1.2736   -0.5865    0.1383 C.ar      1 <0>        -0.2880
     11 S1          0.9191   -2.3123   -0.0484 S.3       1 <0>         0.0884
     12 C10         2.4352    0.1727    0.1391 C.ar      1 <0>         0.4829
     13 N1          2.3286    1.4902    0.3116 N.ar      1 <0>        -0.5485
     14 C11         1.1402    2.0412    0.4761 C.ar      1 <0>         0.3410
     15 N2          0.0240    1.3564    0.4810 N.ar      1 <0>        -0.5141
     16 N3          3.6754   -0.4240   -0.0357 N.pl3     1 <0>        -0.6446
     17 C12         4.8220    0.3672   -0.1479 C.ar      1 <0>         0.1624
     18 C13         6.0381   -0.0963    0.3388 C.ar      1 <0>        -0.1336
     19 C14         7.1693    0.6876    0.2267 C.ar      1 <0>        -0.0905
     20 C15         7.0932    1.9332   -0.3693 C.ar      1 <0>        -0.1082
     21 C16         5.8842    2.3981   -0.8556 C.ar      1 <0>        -0.0695
     22 C17         4.7494    1.6160   -0.7512 C.ar      1 <0>        -0.0882
     23 Br1         5.7858    4.1017   -1.6703 Br        1 <0>        -0.0441
     24 H1         -4.7806    0.7134   -0.1124 H         1 <0>         0.0592
     25 H2         -4.6395    0.4930    1.6482 H         1 <0>         0.0591
     26 H3         -4.3894    2.1022    0.9299 H         1 <0>         0.1059
     27 H4         -4.5178   -1.2370    0.5222 H         1 <0>         0.1409
     28 H5         -3.9369   -3.6028    0.1810 H         1 <0>         0.1446
     29 H6         -1.5735   -4.2562   -0.0901 H         1 <0>         0.1418
     30 H7          1.0858    3.1111    0.6132 H         1 <0>         0.2042
     31 H8          3.7468   -1.3904   -0.0801 H         1 <0>         0.4232
     32 H9          6.0984   -1.0687    0.8048 H         1 <0>         0.1320
     33 H10         8.1147    0.3274    0.6046 H         1 <0>         0.1374
     34 H11         7.9796    2.5443   -0.4557 H         1 <0>         0.1347
     35 H12         3.8066    1.9772   -1.1348 H         1 <0>         0.1469
@<TRIPOS>BOND
     1    1    2 1
     2    1   24 1
     3    1   25 1
     4    1   26 1
     5    2    3 1
     6    3    8 ar
     7    3    4 ar
     8    4    5 ar
     9    4   27 1
    10    5    6 ar
    11    5   28 1
    12    6    7 ar
    13    6   29 1
    14    7   11 1
    15    7    8 ar
    16    8    9 1
    17    9   15 ar
    18    9   10 ar
    19   10   11 1
    20   10   12 ar
    21   12   13 ar
    22   12   16 1
    23   13   14 ar
    24   14   15 ar
    25   14   30 1
    26   16   17 1
    27   16   31 1
    28   17   22 ar
    29   17   18 ar
    30   18   19 ar
    31   18   32 1
    32   19   20 ar
    33   19   33 1
    34   20   21 ar
    35   20   34 1
    36   21   22 ar
    37   21   23 1
    38   22   35 1
@<TRIPOS>MOLECULE
ZINC03815208
   50    53     0     0     0
SMALL
USER_CHARGES

@<TRIPOS>ATOM
      1 C1          5.1019   -1.6924   -2.3538 C.3       1 <0>        -0.0474
      2 C2          4.2047   -3.8683   -1.7854 C.3       1 <0>        -0.0429
      3 C3          3.6743   -1.9443   -0.4144 C.3       1 <0>        -0.0027
      4 C4          3.1883   -0.4948   -0.4732 C.3       1 <0>        -0.1748
      5 C5          2.8861   -0.0003    0.9428 C.3       1 <0>         0.1203
      6 N1          2.4206    1.3876    0.8864 N.pl3     1 <0>        -0.5044
      7 C6          3.2152    2.4916    1.0540 C.2       1 <0>         0.0559
      8 C7          2.4823    3.6087    0.9438 C.2       1 <0>        -0.1841
      9 C8          1.0994    3.1921    0.6833 C.ar      1 <0>        -0.1149
     10 C9          1.1179    1.7773    0.6573 C.ar      1 <0>         0.1573
     11 C10        -0.0482    1.0704    0.4302 C.ar      1 <0>        -0.1461
     12 C11        -1.2453    1.7575    0.2205 C.ar      1 <0>         0.2065
     13 C12        -1.2630    3.1773    0.2542 C.ar      1 <0>        -0.2043
     14 C13        -0.0848    3.8867    0.4827 C.ar      1 <0>        -0.0113
     15 C14        -2.5010    3.8358    0.0436 C.ar      1 <0>         0.4811
     16 N2         -3.5788    3.0924   -0.1671 N.ar      1 <0>        -0.5907
     17 C15        -3.5153    1.7699   -0.1830 C.ar      1 <0>         0.3583
     18 N3         -2.4010    1.1055    0.0050 N.ar      1 <0>        -0.5585
     19 N4         -2.5821    5.2126    0.0570 N.pl3     1 <0>        -0.6346
     20 C16        -3.8278    5.8402   -0.0320 C.ar      1 <0>         0.1515
     21 C17        -4.9412    5.2659    0.5686 C.ar      1 <0>        -0.0912
     22 C18        -6.1707    5.8881    0.4790 C.ar      1 <0>        -0.0927
     23 C19        -6.2949    7.0823   -0.2073 C.ar      1 <0>        -0.0994
     24 C20        -5.1884    7.6574   -0.8068 C.ar      1 <0>        -0.0724
     25 C21        -3.9540    7.0421   -0.7162 C.ar      1 <0>        -0.1166
     26 Br1        -5.3635    9.2904   -1.7441 Br        1 <0>        -0.0400
     27 H1          5.9853   -1.8459   -1.7340 H         1 <0>         0.1245
     28 H2          5.2952   -2.0635   -3.3603 H         1 <0>         0.1242
     29 H3          4.8691   -0.6284   -2.3974 H         1 <0>         0.1208
     30 H4          3.3196   -4.3862   -1.4159 H         1 <0>         0.1229
     31 H5          4.4170   -4.1933   -2.8040 H         1 <0>         0.1240
     32 H6          5.0556   -4.1007   -1.1451 H         1 <0>         0.1240
     33 H7          4.5793   -1.9998    0.1907 H         1 <0>         0.1350
     34 H8          2.9004   -2.5693    0.0312 H         1 <0>         0.1336
     35 H9          2.2833   -0.4393   -1.0783 H         1 <0>         0.0945
     36 H10         3.9622    0.1301   -0.9189 H         1 <0>         0.0950
     37 H11         3.7910   -0.0558    1.5478 H         1 <0>         0.1022
     38 H12         2.1121   -0.6253    1.3884 H         1 <0>         0.0972
     39 H13         4.2775    2.4654    1.2469 H         1 <0>         0.1741
     40 H14         2.8417    4.6235    1.0303 H         1 <0>         0.1562
     41 H15        -0.0323   -0.0093    0.4107 H         1 <0>         0.1322
     42 H16        -0.0937    4.9665    0.5032 H         1 <0>         0.1321
     43 H17        -4.4235    1.2128   -0.3595 H         1 <0>         0.1979
     44 H18        -1.7746    5.7452    0.1282 H         1 <0>         0.4222
     45 H19        -4.8453    4.3333    1.1048 H         1 <0>         0.1405
     46 H20        -7.0363    5.4418    0.9458 H         1 <0>         0.1386
     47 H21        -7.2575    7.5672   -0.2753 H         1 <0>         0.1369
     48 H22        -3.0895    7.4936   -1.1801 H         1 <0>         0.1348
     49 N5          3.9415   -2.4139   -1.7902 N.4       1 <0>        -0.3981
     50 H23         3.1170   -2.2261   -2.3727 H         1 <0>         0.4325
@<TRIPOS>BOND
     1    1   27 1
     2    1   28 1
     3    1   29 1
     4    1   49 1
     5    2   30 1
     6    2   31 1
     7    2   32 1
     8    2   49 1
     9    3    4 1
    10    3   33 1
    11    3   34 1
    12    3   49 1
    13    4    5 1
    14    4   35 1
    15    4   36 1
    16    5    6 1
    17    5   37 1
    18    5   38 1
    19    6   10 1
    20    6    7 1
    21    7    8 2
    22    7   39 1
    23    8    9 1
    24    8   40 1
    25    9   14 ar
    26    9   10 ar
    27   10   11 ar
    28   11   12 ar
    29   11   41 1
    30   12   18 ar
    31   12   13 ar
    32   13   14 ar
    33   13   15 ar
    34   14   42 1
    35   15   16 ar
    36   15   19 1
    37   16   17 ar
    38   17   18 ar
    39   17   43 1
    40   19   20 1
    41   19   44 1
    42   20   25 ar
    43   20   21 ar
    44   21   22 ar
    45   21   45 1
    46   22   23 ar
    47   22   46 1
    48   23   24 ar
    49   23   47 1
    50   24   25 ar
    51   24   26 1
    52   25   48 1
    53   49   50 1
@<TRIPOS>MOLECULE
ZINC03815209
   46    49     0     0     0
SMALL
USER_CHARGES

@<TRIPOS>ATOM
      1 C1         -0.9110    1.6081   -1.8504 C.3       1 <0>        -0.0422
      2 C2         -2.9276    1.6379   -0.5107 C.3       1 <0>        -0.0502
      3 C3         -0.7622    1.5007    0.5639 C.3       1 <0>        -0.0293
      4 C4         -1.2609    2.1580    1.8524 C.3       1 <0>         0.0955
      5 N1         -0.5108    1.6273    2.9934 N.pl3     1 <0>        -0.5179
      6 C5         -0.8925    0.6004    3.8026 C.2       1 <0>         0.2830
      7 N2          0.0089    0.3853    4.7141 N.2       1 <0>        -0.4714
      8 C6          1.0336    1.2676    4.5626 C.ar      1 <0>         0.0290
      9 C7          0.7126    2.0803    3.4513 C.ar      1 <0>         0.1046
     10 C8          1.5675    3.0823    3.0411 C.ar      1 <0>        -0.1249
     11 C9          2.7626    3.2965    3.7319 C.ar      1 <0>         0.2090
     12 C10         3.0879    2.4820    4.8486 C.ar      1 <0>        -0.1915
     13 C11         2.2187    1.4711    5.2566 C.ar      1 <0>         0.0068
     14 C12         4.3105    2.7306    5.5227 C.ar      1 <0>         0.4855
     15 N3          5.0853    3.7096    5.0760 N.ar      1 <0>        -0.5862
     16 C13         4.7401    4.4432    4.0293 C.ar      1 <0>         0.3668
     17 N4          3.6238    4.2611    3.3662 N.ar      1 <0>        -0.5577
     18 N5          4.6835    1.9746    6.6145 N.pl3     1 <0>        -0.6304
     19 C14         5.8311    2.3107    7.3382 C.ar      1 <0>         0.1470
     20 C15         6.1805    3.6445    7.5092 C.ar      1 <0>        -0.0901
     21 C16         7.3148    3.9737    8.2245 C.ar      1 <0>        -0.0927
     22 C17         8.1032    2.9776    8.7709 C.ar      1 <0>        -0.0969
     23 C18         7.7585    1.6482    8.6028 C.ar      1 <0>        -0.0727
     24 C19         6.6213    1.3124    7.8927 C.ar      1 <0>        -0.1138
     25 Br1         8.8397    0.2898    9.3525 Br        1 <0>        -0.0379
     26 H1         -0.9121    0.5196   -1.9072 H         1 <0>         0.1249
     27 H2         -1.4874    2.0159   -2.6808 H         1 <0>         0.1275
     28 H3          0.1144    1.9738   -1.9057 H         1 <0>         0.1236
     29 H4         -3.3684    2.0252    0.4079 H         1 <0>         0.1220
     30 H5         -3.4613    2.0451   -1.3695 H         1 <0>         0.1282
     31 H6         -3.0018    0.5505   -0.5190 H         1 <0>         0.1268
     32 H7         -0.9094    0.4224    0.6256 H         1 <0>         0.1400
     33 H8          0.2983    1.7158    0.4332 H         1 <0>         0.1362
     34 H9         -1.1138    3.2363    1.7907 H         1 <0>         0.1111
     35 H10        -2.3215    1.9429    1.9831 H         1 <0>         0.1188
     36 H11        -1.8115    0.0426    3.6998 H         1 <0>         0.2227
     37 H12         1.3140    3.6980    2.1908 H         1 <0>         0.1370
     38 H13         2.4653    0.8514    6.1061 H         1 <0>         0.1410
     39 H14         5.4085    5.2279    3.7072 H         1 <0>         0.2021
     40 H15         4.1493    1.2097    6.8801 H         1 <0>         0.4238
     41 H16         5.5656    4.4232    7.0826 H         1 <0>         0.1405
     42 H17         7.5864    5.0105    8.3578 H         1 <0>         0.1394
     43 H18         8.9897    3.2378    9.3303 H         1 <0>         0.1378
     44 H19         6.3500    0.2748    7.7654 H         1 <0>         0.1359
     45 N6         -1.5132    2.0615   -0.5790 N.4       1 <0>        -0.3947
     46 H20        -1.4695    3.0864   -0.5361 H         1 <0>         0.4338
@<TRIPOS>BOND
     1    1   26 1
     2    1   27 1
     3    1   28 1
     4    1   45 1
     5    2   29 1
     6    2   30 1
     7    2   31 1
     8    2   45 1
     9    3    4 1
    10    3   32 1
    11    3   33 1
    12    3   45 1
    13    4    5 1
    14    4   34 1
    15    4   35 1
    16    5    9 1
    17    5    6 1
    18    6    7 2
    19    6   36 1
    20    7    8 1
    21    8   13 ar
    22    8    9 ar
    23    9   10 ar
    24   10   11 ar
    25   10   37 1
    26   11   17 ar
    27   11   12 ar
    28   12   13 ar
    29   12   14 ar
    30   13   38 1
    31   14   15 ar
    32   14   18 1
    33   15   16 ar
    34   16   17 ar
    35   16   39 1
    36   18   19 1
    37   18   40 1
    38   19   24 ar
    39   19   20 ar
    40   20   21 ar
    41   20   41 1
    42   21   22 ar
    43   21   42 1
    44   22   23 ar
    45   22   43 1
    46   23   24 ar
    47   23   25 1
    48   24   44 1
    49   45   46 1
@<TRIPOS>MOLECULE
ZINC03815212
   30    32     0     0     0
SMALL
USER_CHARGES

@<TRIPOS>ATOM
      1 C1         -6.0202    2.6407    0.3615 C.ar      1 <0>        -0.0914
      2 C2         -4.8623    3.3873    0.4605 C.ar      1 <0>        -0.1240
      3 C3         -3.6714    2.8913   -0.0542 C.ar      1 <0>         0.1444
      4 C4         -3.6498    1.6473   -0.6720 C.ar      1 <0>        -0.0806
      5 C5         -4.8106    0.9034   -0.7640 C.ar      1 <0>        -0.0728
      6 C6         -5.9952    1.4008   -0.2496 C.ar      1 <0>        -0.0983
      7 Br1        -4.7819   -0.7928   -1.5994 Br        1 <0>        -0.0385
      8 N1         -2.4982    3.6449    0.0442 N.pl3     1 <0>        -0.6273
      9 C7         -1.2817    3.0112    0.1911 C.ar      1 <0>         0.4900
     10 C8         -0.0717    3.7468    0.1756 C.ar      1 <0>        -0.2097
     11 C9         -0.0485    5.1366    0.0129 C.ar      1 <0>         0.0295
     12 C10         1.1470    5.7923    0.0064 C.ar      1 <0>        -0.0574
     13 C11         2.3448    5.0971    0.1601 C.ar      1 <0>         0.0346
     14 C12         2.3553    3.7421    0.3202 C.ar      1 <0>        -0.0899
     15 C13         1.1443    3.0377    0.3315 C.ar      1 <0>         0.2398
     16 N2          1.0984    1.7059    0.4864 N.ar      1 <0>        -0.5425
     17 C14        -0.0525    1.0764    0.4929 C.ar      1 <0>         0.3808
     18 N3         -1.2130    1.6955    0.3459 N.ar      1 <0>        -0.5762
     19 Cl1         3.8464    5.9681    0.1475 Cl        1 <0>         0.0105
     20 N4          1.1727    7.2623   -0.1656 N.pl3     1 <0>         0.0270
     21 O1          0.1304    7.8780   -0.3001 O.2       1 <0>        -0.1630
     22 O2          2.2361    7.8561   -0.1726 O.3       1 <0>        -0.1244
     23 H1         -6.9464    3.0262    0.7616 H         1 <0>         0.1407
     24 H2         -4.8829    4.3558    0.9380 H         1 <0>         0.1351
     25 H3         -2.7263    1.2606   -1.0769 H         1 <0>         0.1483
     26 H4         -6.9021    0.8193   -0.3259 H         1 <0>         0.1376
     27 H5         -2.5395    4.6134    0.0091 H         1 <0>         0.4266
     28 H6         -0.9707    5.6857   -0.1071 H         1 <0>         0.1643
     29 H7          3.2911    3.2160    0.4378 H         1 <0>         0.1751
     30 H8         -0.0528    0.0038    0.6195 H         1 <0>         0.2117
@<TRIPOS>BOND
     1    1    6 ar
     2    1    2 ar
     3    1   23 1
     4    2    3 ar
     5    2   24 1
     6    3    4 ar
     7    3    8 1
     8    4    5 ar
     9    4   25 1
    10    5    6 ar
    11    5    7 1
    12    6   26 1
    13    8    9 1
    14    8   27 1
    15    9   18 ar
    16    9   10 ar
    17   10   15 ar
    18   10   11 ar
    19   11   12 ar
    20   11   28 1
    21   12   13 ar
    22   12   20 1
    23   13   14 ar
    24   13   19 1
    25   14   15 ar
    26   14   29 1
    27   15   16 ar
    28   16   17 ar
    29   17   18 ar
    30   17   30 1
    31   20   21 2
    32   20   22 1
@<TRIPOS>MOLECULE
ZINC03815213
   36    39     0     0     0
SMALL
USER_CHARGES

@<TRIPOS>ATOM
      1 C1          0.7503    2.6595   -2.2976 C.ar      1 <0>        -0.0921
      2 C2          0.2968    3.8704   -1.8140 C.ar      1 <0>        -0.1295
      3 C3          0.3353    4.1324   -0.4453 C.ar      1 <0>        -0.0085
      4 C4          0.8274    3.1673    0.4309 C.ar      1 <0>        -0.1111
      5 C5          1.2754    1.9534   -0.0627 C.ar      1 <0>         0.1171
      6 C6          1.2335    1.7005   -1.4273 C.ar      1 <0>        -0.1301
      7 O1          1.7556    1.0093    0.7887 O.3       1 <0>        -0.4953
      8 C7         -0.1463    5.4340    0.0764 C.2       1 <0>         0.1692
      9 C8         -1.3840    6.1147   -0.3029 C.ar      1 <0>        -0.3162
     10 C9         -1.4257    7.3092    0.4407 C.ar      1 <0>         0.3823
     11 N1         -0.2978    7.3387    1.2058 N.pl3     1 <0>        -0.4786
     12 H1         -0.0483    8.0714    1.8390 H         1 <0>         0.4580
     13 N2          0.4564    6.1849    0.9676 N.2       1 <0>        -0.2225
     14 N3         -2.4666    8.1257    0.2798 N.ar      1 <0>        -0.5668
     15 C10        -3.4350    7.8218   -0.5564 C.ar      1 <0>         0.3885
     16 N4         -3.4367    6.7125   -1.2737 N.ar      1 <0>        -0.5887
     17 C11        -2.4421    5.8347   -1.1830 C.ar      1 <0>         0.5082
     18 N5         -2.4491    4.6756   -1.9366 N.pl3     1 <0>        -0.6416
     19 C12        -3.4446    4.4720   -2.8965 C.ar      1 <0>         0.1625
     20 C13        -3.9019    3.1875   -3.1635 C.ar      1 <0>        -0.1430
     21 C14        -4.8858    2.9892   -4.1119 C.ar      1 <0>        -0.0844
     22 C15        -5.4164    4.0673   -4.7963 C.ar      1 <0>        -0.1260
     23 C16        -4.9639    5.3483   -4.5329 C.ar      1 <0>        -0.0147
     24 C17        -3.9825    5.5538   -3.5811 C.ar      1 <0>        -0.1055
     25 Cl1        -5.6337    6.6989   -5.3936 Cl        1 <0>        -0.0637
     26 H2          0.7241    2.4595   -3.3586 H         1 <0>         0.1395
     27 H3         -0.0843    4.6159   -2.4962 H         1 <0>         0.1331
     28 H4          0.8598    3.3654    1.4921 H         1 <0>         0.1380
     29 H5          1.5836    0.7534   -1.8103 H         1 <0>         0.1378
     30 H6          2.7074    1.0710    0.9481 H         1 <0>         0.3969
     31 H7         -4.2631    8.5071   -0.6608 H         1 <0>         0.2101
     32 H8         -1.7632    4.0036   -1.7992 H         1 <0>         0.4242
     33 H9         -3.4880    2.3447   -2.6299 H         1 <0>         0.1309
     34 H10        -5.2416    1.9908   -4.3192 H         1 <0>         0.1377
     35 H11        -6.1858    3.9094   -5.5375 H         1 <0>         0.1352
     36 H12        -3.6321    6.5539   -3.3730 H         1 <0>         0.1493
@<TRIPOS>BOND
     1    1    6 ar
     2    1    2 ar
     3    1   26 1
     4    2    3 ar
     5    2   27 1
     6    3    4 ar
     7    3    8 1
     8    4    5 ar
     9    4   28 1
    10    5    6 ar
    11    5    7 1
    12    6   29 1
    13    7   30 1
    14    8   13 2
    15    8    9 1
    16    9   17 ar
    17    9   10 ar
    18   10   11 1
    19   10   14 ar
    20   11   12 1
    21   11   13 1
    22   14   15 ar
    23   15   16 ar
    24   15   31 1
    25   16   17 ar
    26   17   18 1
    27   18   19 1
    28   18   32 1
    29   19   24 ar
    30   19   20 ar
    31   20   21 ar
    32   20   33 1
    33   21   22 ar
    34   21   34 1
    35   22   23 ar
    36   22   35 1
    37   23   24 ar
    38   23   25 1
    39   24   36 1
@<TRIPOS>MOLECULE
ZINC03815214
   40    43     0     0     0
SMALL
USER_CHARGES

@<TRIPOS>ATOM
      1 C1         -5.0485    4.8474    1.7735 C.ar      1 <0>        -0.1071
      2 C2         -3.6973    5.1357    1.7214 C.ar      1 <0>        -0.0943
      3 C3         -3.0880    5.3769    0.5044 C.ar      1 <0>        -0.1029
      4 C4         -3.8304    5.3348   -0.6609 C.ar      1 <0>        -0.0902
      5 C5         -5.1812    5.0413   -0.6099 C.ar      1 <0>        -0.0372
      6 C6         -5.7907    4.8003    0.6088 C.ar      1 <0>        -0.0990
      7 Cl1        -6.1129    4.9823   -2.0735 Cl        1 <0>        -0.0627
      8 C7         -1.6154    5.6920    0.4486 C.3       1 <0>         0.1745
      9 N1         -0.8549    4.4480    0.3055 N.pl3     1 <0>        -0.7040
     10 C8          0.5391    4.4864    0.2315 C.2       1 <0>         0.3894
     11 C9          1.4283    3.3376    0.0890 C.ar      1 <0>        -0.3440
     12 C10         2.7407    3.8503    0.0633 C.ar      1 <0>         0.3978
     13 N2          2.6372    5.2028    0.1842 N.pl3     1 <0>        -0.4758
     14 H1          3.4060    5.8420    0.2032 H         1 <0>         0.4558
     15 N3          1.2874    5.5584    0.2776 N.2       1 <0>        -0.3036
     16 N4          3.7569    2.9981   -0.0674 N.ar      1 <0>        -0.5713
     17 C11         3.5396    1.7047   -0.1654 C.ar      1 <0>         0.3901
     18 N5          2.3272    1.1806   -0.1413 N.ar      1 <0>        -0.5950
     19 C12         1.2489    1.9483   -0.0143 C.ar      1 <0>         0.5111
     20 N6         -0.0169    1.3937    0.0097 N.pl3     1 <0>        -0.6431
     21 C13        -0.1843    0.0241   -0.2149 C.ar      1 <0>         0.1644
     22 C14         0.6379   -0.6388   -1.1176 C.ar      1 <0>        -0.1024
     23 C15         0.4704   -1.9917   -1.3377 C.ar      1 <0>        -0.0861
     24 C16        -0.5145   -2.6875   -0.6609 C.ar      1 <0>        -0.1227
     25 C17        -1.3354   -2.0308    0.2391 C.ar      1 <0>        -0.0152
     26 C18        -1.1689   -0.6776    0.4679 C.ar      1 <0>        -0.1395
     27 Cl2        -2.5701   -2.9084    1.0870 Cl        1 <0>        -0.0643
     28 H2         -5.5242    4.6594    2.7247 H         1 <0>         0.1368
     29 H3         -3.1177    5.1727    2.6320 H         1 <0>         0.1328
     30 H4         -3.3550    5.5273   -1.6114 H         1 <0>         0.1364
     31 H5         -6.8463    4.5758    0.6497 H         1 <0>         0.1367
     32 H6         -1.3167    6.1967    1.3673 H         1 <0>         0.0809
     33 H7         -1.4147    6.3406   -0.4041 H         1 <0>         0.0793
     34 H8         -1.3197    3.5977    0.2621 H         1 <0>         0.4035
     35 H9          4.3873    1.0439   -0.2702 H         1 <0>         0.2080
     36 H10        -0.7894    1.9555    0.1785 H         1 <0>         0.4134
     37 H11         1.4072   -0.0963   -1.6471 H         1 <0>         0.1418
     38 H12         1.1097   -2.5071   -2.0392 H         1 <0>         0.1379
     39 H13        -0.6430   -3.7456   -0.8347 H         1 <0>         0.1356
     40 H14        -1.8064   -0.1662    1.1739 H         1 <0>         0.1342
@<TRIPOS>BOND
     1    1    6 ar
     2    1    2 ar
     3    1   28 1
     4    2    3 ar
     5    2   29 1
     6    3    4 ar
     7    3    8 1
     8    4    5 ar
     9    4   30 1
    10    5    6 ar
    11    5    7 1
    12    6   31 1
    13    8    9 1
    14    8   32 1
    15    8   33 1
    16    9   10 1
    17    9   34 1
    18   10   15 2
    19   10   11 1
    20   11   19 ar
    21   11   12 ar
    22   12   13 1
    23   12   16 ar
    24   13   14 1
    25   13   15 1
    26   16   17 ar
    27   17   18 ar
    28   17   35 1
    29   18   19 ar
    30   19   20 1
    31   20   21 1
    32   20   36 1
    33   21   26 ar
    34   21   22 ar
    35   22   23 ar
    36   22   37 1
    37   23   24 ar
    38   23   38 1
    39   24   25 ar
    40   24   39 1
    41   25   26 ar
    42   25   27 1
    43   26   40 1
@<TRIPOS>MOLECULE
ZINC03815217
   61    64     0     0     0
SMALL
USER_CHARGES

@<TRIPOS>ATOM
      1 C1         -0.1744   -0.3296   -5.0539 C.3       1 <0>        -0.0488
      2 C2         -0.6241    1.7874   -6.1395 C.3       1 <0>        -0.0430
      3 C3         -0.7766    1.6061   -3.7298 C.3       1 <0>        -0.0052
      4 C4         -0.0366    1.0992   -2.4903 C.3       1 <0>        -0.1495
      5 C5         -0.7527    1.5927   -1.2315 C.3       1 <0>        -0.1166
      6 C6         -0.0127    1.0858    0.0080 C.3       1 <0>         0.0550
      7 O1         -0.6816    1.5467    1.1837 O.3       1 <0>        -0.2982
      8 C7         -0.1485    1.1819    2.3803 C.ar      1 <0>         0.1020
      9 C8          0.9772    0.4087    2.4107 C.ar      1 <0>        -0.1392
     10 C9          1.5272    0.0330    3.6421 C.ar      1 <0>        -0.1944
     11 C10         0.9147    0.4557    4.8478 C.ar      1 <0>         0.2071
     12 C11        -0.2386    1.2478    4.7932 C.ar      1 <0>        -0.1813
     13 C12        -0.7569    1.6083    3.5690 C.ar      1 <0>         0.1624
     14 O2         -1.8725    2.3814    3.5130 O.3       1 <0>        -0.3001
     15 C13        -2.4461    2.7839    4.7585 C.3       1 <0>         0.0194
     16 N1          1.4625    0.0819    6.0149 N.ar      1 <0>        -0.5492
     17 C14         2.5437   -0.6603    6.0345 C.ar      1 <0>         0.3534
     18 N2          3.1501   -1.0780    4.9345 N.ar      1 <0>        -0.5909
     19 C15         2.6919   -0.7664    3.7294 C.ar      1 <0>         0.4775
     20 N3          3.3335   -1.2095    2.5914 N.pl3     1 <0>        -0.6704
     21 C16         4.5379   -2.0360    2.7043 C.3       1 <0>         0.1069
     22 H1          4.7740   -2.3880    3.7085 H         1 <0>         0.1544
     23 C17         5.7097   -1.7073    1.7772 C.3       1 <0>        -0.1826
     24 C18         4.8706   -2.9633    1.5337 C.3       1 <0>        -0.1343
     25 H2          5.3257   -3.9257    1.7676 H         1 <0>         0.1283
     26 C19         3.9345   -2.9565    0.3528 C.ar      1 <0>        -0.0406
     27 C20         3.7195   -1.7870   -0.3522 C.ar      1 <0>        -0.1405
     28 C21         2.8645   -1.7819   -1.4384 C.ar      1 <0>        -0.1207
     29 C22         2.2167   -2.9441   -1.8135 C.ar      1 <0>        -0.1297
     30 C23         2.4273   -4.1123   -1.1051 C.ar      1 <0>        -0.1078
     31 C24         3.2863   -4.1185   -0.0221 C.ar      1 <0>        -0.1049
     32 H3         -1.2210   -0.6294   -5.1070 H         1 <0>         0.1247
     33 H4          0.3426   -0.6536   -5.9571 H         1 <0>         0.1238
     34 H5          0.2918   -0.7907   -4.1831 H         1 <0>         0.1211
     35 H6         -0.4848    2.8654   -6.0580 H         1 <0>         0.1223
     36 H7         -0.0975    1.4185   -7.0197 H         1 <0>         0.1233
     37 H8         -1.6870    1.5643   -6.2320 H         1 <0>         0.1238
     38 H9         -1.7991    1.2288   -3.7221 H         1 <0>         0.1342
     39 H10        -0.7913    2.6960   -3.7239 H         1 <0>         0.1325
     40 H11         0.9860    1.4765   -2.4981 H         1 <0>         0.0904
     41 H12        -0.0218    0.0093   -2.4963 H         1 <0>         0.0915
     42 H13        -1.7753    1.2154   -1.2238 H         1 <0>         0.0883
     43 H14        -0.7675    2.6825   -1.2255 H         1 <0>         0.0884
     44 H15         0.0021   -0.0041    0.0020 H         1 <0>         0.0655
     45 H16         1.0099    1.4631    0.0003 H         1 <0>         0.0642
     46 H17         1.4409    0.0890    1.4892 H         1 <0>         0.1321
     47 H18        -0.7161    1.5768    5.7043 H         1 <0>         0.1574
     48 H19        -2.7304    1.9003    5.3300 H         1 <0>         0.0636
     49 H20        -1.7164    3.3632    5.3242 H         1 <0>         0.0636
     50 H21        -3.3290    3.3951    4.5712 H         1 <0>         0.1083
     51 H22         2.9581   -0.9429    6.9910 H         1 <0>         0.1989
     52 H23         2.9873   -0.9739    1.7165 H         1 <0>         0.4075
     53 H24         5.5846   -0.8761    1.0832 H         1 <0>         0.0996
     54 H25         6.7168   -1.8430    2.1714 H         1 <0>         0.1149
     55 H26         4.2224   -0.8781   -0.0566 H         1 <0>         0.1224
     56 H27         2.6997   -0.8692   -1.9916 H         1 <0>         0.1149
     57 H28         1.5458   -2.9392   -2.6598 H         1 <0>         0.1173
     58 H29         1.9209   -5.0201   -1.3979 H         1 <0>         0.1266
     59 H30         3.4508   -5.0312    0.5314 H         1 <0>         0.1281
     60 N4         -0.0613    1.1394   -4.9362 N.4       1 <0>        -0.3986
     61 H31         0.9306    1.3920   -4.8545 H         1 <0>         0.4308
@<TRIPOS>BOND
     1    1   32 1
     2    1   33 1
     3    1   34 1
     4    1   60 1
     5    2   35 1
     6    2   36 1
     7    2   37 1
     8    2   60 1
     9    3    4 1
    10    3   38 1
    11    3   39 1
    12    3   60 1
    13    4    5 1
    14    4   40 1
    15    4   41 1
    16    5    6 1
    17    5   42 1
    18    5   43 1
    19    6    7 1
    20    6   44 1
    21    6   45 1
    22    7    8 1
    23    8   13 ar
    24    8    9 ar
    25    9   10 ar
    26    9   46 1
    27   10   19 ar
    28   10   11 ar
    29   11   12 ar
    30   11   16 ar
    31   12   13 ar
    32   12   47 1
    33   13   14 1
    34   14   15 1
    35   15   48 1
    36   15   49 1
    37   15   50 1
    38   16   17 ar
    39   17   18 ar
    40   17   51 1
    41   18   19 ar
    42   19   20 1
    43   20   21 1
    44   20   52 1
    45   21   22 1
    46   21   24 1
    47   21   23 1
    48   23   24 1
    49   23   53 1
    50   23   54 1
    51   24   25 1
    52   24   26 1
    53   26   31 ar
    54   26   27 ar
    55   27   28 ar
    56   27   55 1
    57   28   29 ar
    58   28   56 1
    59   29   30 ar
    60   29   57 1
    61   30   31 ar
    62   30   58 1
    63   31   59 1
    64   60   61 1
@<TRIPOS>MOLECULE
ZINC03815218
   37    39     0     0     0
SMALL
USER_CHARGES

@<TRIPOS>ATOM
      1 C1          5.9053    6.6902   -0.3366 C.3       1 <0>        -0.1691
      2 C2          4.6686    5.8296   -0.3057 C.2       1 <0>         0.5146
      3 O1          4.7261    4.6723   -0.6636 O.2       1 <0>        -0.5122
      4 N1          3.4987    6.3461    0.1198 N.am      1 <0>        -0.6665
      5 C3          2.3785    5.5225    0.2513 C.ar      1 <0>         0.2379
      6 C4          2.5452    4.1870    0.5586 C.ar      1 <0>        -0.1176
      7 C5          1.4200    3.3660    0.6897 C.ar      1 <0>         0.2486
      8 C6          0.1290    3.9206    0.5041 C.ar      1 <0>        -0.2217
      9 C7         -0.0089    5.2785    0.1927 C.ar      1 <0>         0.0352
     10 C8          1.1000    6.0596    0.0698 C.ar      1 <0>        -0.0817
     11 N2          0.9501    7.4949   -0.2596 N.pl3     1 <0>         0.0390
     12 O2         -0.1589    7.9961   -0.3078 O.2       1 <0>        -0.1432
     13 O3          1.9359    8.1748   -0.4824 O.3       1 <0>        -0.1720
     14 C9         -0.9908    3.0664    0.6435 C.ar      1 <0>         0.4910
     15 N3         -0.7741    1.7903    0.9355 N.ar      1 <0>        -0.5823
     16 C10         0.4504    1.3178    1.1047 C.ar      1 <0>         0.3789
     17 N4          1.5248    2.0616    0.9880 N.ar      1 <0>        -0.5442
     18 N5         -2.2734    3.5465    0.4751 N.pl3     1 <0>        -0.6298
     19 C11        -3.3586    2.6660    0.5032 C.ar      1 <0>         0.1472
     20 C12        -4.5837    3.0868    1.0055 C.ar      1 <0>        -0.1256
     21 C13        -5.6543    2.2150    1.0316 C.ar      1 <0>        -0.0918
     22 C14        -5.5085    0.9239    0.5580 C.ar      1 <0>        -0.1000
     23 C15        -4.2902    0.5012    0.0566 C.ar      1 <0>        -0.0725
     24 C16        -3.2161    1.3705    0.0238 C.ar      1 <0>        -0.0811
     25 Br1        -4.0964   -1.2649   -0.5908 Br        1 <0>        -0.0397
     26 H1          5.6603    7.6913    0.0183 H         1 <0>         0.0852
     27 H2          6.6684    6.2530    0.3073 H         1 <0>         0.1058
     28 H3          6.2817    6.7488   -1.3579 H         1 <0>         0.1056
     29 H4          3.4348    7.2898    0.3348 H         1 <0>         0.4280
     30 H5          3.5357    3.7796    0.6973 H         1 <0>         0.1785
     31 H6         -0.9909    5.7049    0.0501 H         1 <0>         0.1611
     32 H7          0.5709    0.2718    1.3452 H         1 <0>         0.2089
     33 H8         -2.4219    4.4951    0.3372 H         1 <0>         0.4254
     34 H9         -4.6986    4.0949    1.3755 H         1 <0>         0.1345
     35 H10        -6.6067    2.5420    1.4220 H         1 <0>         0.1399
     36 H11        -6.3475    0.2442    0.5793 H         1 <0>         0.1369
     37 H12        -2.2663    1.0416   -0.3714 H         1 <0>         0.1488
@<TRIPOS>BOND
     1    1    2 1
     2    1   26 1
     3    1   27 1
     4    1   28 1
     5    2    3 2
     6    2    4 am
     7    4    5 1
     8    4   29 1
     9    5   10 ar
    10    5    6 ar
    11    6    7 ar
    12    6   30 1
    13    7   17 ar
    14    7    8 ar
    15    8    9 ar
    16    8   14 ar
    17    9   10 ar
    18    9   31 1
    19   10   11 1
    20   11   12 2
    21   11   13 1
    22   14   15 ar
    23   14   18 1
    24   15   16 ar
    25   16   17 ar
    26   16   32 1
    27   18   19 1
    28   18   33 1
    29   19   24 ar
    30   19   20 ar
    31   20   21 ar
    32   20   34 1
    33   21   22 ar
    34   21   35 1
    35   22   23 ar
    36   22   36 1
    37   23   24 ar
    38   23   25 1
    39   24   37 1
@<TRIPOS>MOLECULE
ZINC03815219
   45    48     0     0     0
SMALL
USER_CHARGES

@<TRIPOS>ATOM
      1 C1         10.7513    3.8988    0.5956 C.3       1 <0>         0.0959
      2 N1          9.9607    2.7148    0.9412 N.pl3     1 <0>        -0.6400
      3 C2         10.6194    1.5321    1.5012 C.3       1 <0>         0.0926
      4 C3          8.5761    2.7137    0.7365 C.ar      1 <0>         0.1968
      5 C4          7.9517    3.8348    0.2058 C.ar      1 <0>        -0.1683
      6 C5          6.5858    3.8338    0.0038 C.ar      1 <0>        -0.1026
      7 C6          5.8363    2.7113    0.3315 C.ar      1 <0>         0.1017
      8 C7          6.4600    1.5922    0.8677 C.ar      1 <0>        -0.0848
      9 C8          7.8267    1.5912    1.0638 C.ar      1 <0>        -0.1682
     10 N2          4.4514    2.7102    0.1267 N.pl3     1 <0>        -0.6385
     11 C9          3.7844    1.5102   -0.1287 C.2       1 <0>         0.3815
     12 C10         2.3404    1.3335   -0.2499 C.ar      1 <0>        -0.3407
     13 C11         2.1267   -0.0353   -0.5072 C.ar      1 <0>         0.3981
     14 N3          3.3531   -0.6266   -0.5364 N.pl3     1 <0>        -0.4757
     15 H1          3.5224   -1.5986   -0.6991 H         1 <0>         0.4564
     16 N4          4.3391    0.3380   -0.3032 N.2       1 <0>        -0.2888
     17 N5          0.8758   -0.4684   -0.6621 N.ar      1 <0>        -0.5698
     18 C12        -0.1382    0.3648   -0.5766 C.ar      1 <0>         0.3900
     19 N6          0.0159    1.6548   -0.3370 N.ar      1 <0>        -0.5936
     20 C13         1.2246    2.1827   -0.1678 C.ar      1 <0>         0.5110
     21 N7          1.3791    3.5334    0.0822 N.pl3     1 <0>        -0.6417
     22 C14         0.2548    4.3427    0.2690 C.ar      1 <0>         0.1648
     23 C15        -0.8879    3.8206    0.8623 C.ar      1 <0>        -0.1056
     24 C16        -1.9971    4.6224    1.0461 C.ar      1 <0>        -0.0854
     25 C17        -1.9717    5.9443    0.6409 C.ar      1 <0>        -0.1243
     26 C18        -0.8353    6.4682    0.0500 C.ar      1 <0>        -0.0143
     27 C19         0.2797    5.6717   -0.1328 C.ar      1 <0>        -0.1422
     28 Cl1        -0.8079    8.1284   -0.4566 Cl        1 <0>        -0.0643
     29 H2         10.3988    4.7526    1.1742 H         1 <0>         0.0535
     30 H3         11.8011    3.7139    0.8234 H         1 <0>         0.0728
     31 H4         10.6422    4.1107   -0.4680 H         1 <0>         0.0535
     32 H5         10.9232    0.8681    0.6919 H         1 <0>         0.0479
     33 H6         11.4981    1.8398    2.0680 H         1 <0>         0.0665
     34 H7          9.9269    1.0084    2.1602 H         1 <0>         0.0682
     35 H8          8.5346    4.7075   -0.0494 H         1 <0>         0.1257
     36 H9          6.1003    4.7056   -0.4093 H         1 <0>         0.1241
     37 H10         5.8766    0.7210    1.1267 H         1 <0>         0.1360
     38 H11         8.3124    0.7191    1.4762 H         1 <0>         0.1259
     39 H12         3.9552    3.5429    0.1622 H         1 <0>         0.4096
     40 H13        -1.1381   -0.0215   -0.7079 H         1 <0>         0.2088
     41 H14         2.2678    3.9196    0.1279 H         1 <0>         0.4132
     42 H15        -0.9088    2.7884    1.1791 H         1 <0>         0.1460
     43 H16        -2.8853    4.2166    1.5073 H         1 <0>         0.1379
     44 H17        -2.8405    6.5692    0.7862 H         1 <0>         0.1354
     45 H18         1.1680    6.0818   -0.5902 H         1 <0>         0.1347
@<TRIPOS>BOND
     1    1    2 1
     2    1   29 1
     3    1   30 1
     4    1   31 1
     5    2    3 1
     6    2    4 1
     7    3   32 1
     8    3   33 1
     9    3   34 1
    10    4    9 ar
    11    4    5 ar
    12    5    6 ar
    13    5   35 1
    14    6    7 ar
    15    6   36 1
    16    7    8 ar
    17    7   10 1
    18    8    9 ar
    19    8   37 1
    20    9   38 1
    21   10   11 1
    22   10   39 1
    23   11   16 2
    24   11   12 1
    25   12   20 ar
    26   12   13 ar
    27   13   14 1
    28   13   17 ar
    29   14   15 1
    30   14   16 1
    31   17   18 ar
    32   18   19 ar
    33   18   40 1
    34   19   20 ar
    35   20   21 1
    36   21   22 1
    37   21   41 1
    38   22   27 ar
    39   22   23 ar
    40   23   24 ar
    41   23   42 1
    42   24   25 ar
    43   24   43 1
    44   25   26 ar
    45   25   44 1
    46   26   27 ar
    47   26   28 1
    48   27   45 1
@<TRIPOS>MOLECULE
ZINC03815222
   31    34     0     0     0
SMALL
USER_CHARGES

@<TRIPOS>ATOM
      1 C1          5.9838    2.9506    0.2748 C.ar      1 <0>        -0.0902
      2 C2          4.8053    3.6655    0.1853 C.ar      1 <0>        -0.1353
      3 C3          3.5930    2.9945    0.0890 C.ar      1 <0>         0.1547
      4 C4          3.5694    1.6056    0.0883 C.ar      1 <0>        -0.0826
      5 C5          4.7520    0.8962    0.1738 C.ar      1 <0>        -0.0701
      6 C6          5.9581    1.5684    0.2692 C.ar      1 <0>        -0.1045
      7 Br1         4.7222   -0.9945    0.1671 Br        1 <0>        -0.0400
      8 N1          2.3988    3.7153   -0.0013 N.pl3     1 <0>        -0.6451
      9 C7          1.2415    3.2066    0.5546 C.ar      1 <0>         0.4533
     10 C8          0.0018    3.8576    0.3692 C.ar      1 <0>        -0.1684
     11 C9         -1.1496    3.2879    0.9632 C.ar      1 <0>         0.2207
     12 C10        -2.3983    3.9102    0.7978 C.ar      1 <0>        -0.1192
     13 C11        -2.5055    5.0528    0.0724 C.ar      1 <0>        -0.0086
     14 C12        -1.3754    5.6366   -0.5268 C.ar      1 <0>         0.0360
     15 C13        -0.1180    5.0400   -0.3797 C.ar      1 <0>         0.0701
     16 N2          0.7674    5.8343   -1.0690 N.pl3     1 <0>        -0.5934
     17 H1          1.7517    5.6831   -1.1600 H         1 <0>         0.4186
     18 C14         0.0579    6.8637   -1.6044 C.2       1 <0>         0.2499
     19 N3         -1.1986    6.7481   -1.2866 N.2       1 <0>        -0.4715
     20 N4         -1.0147    2.1558    1.6693 N.ar      1 <0>        -0.5316
     21 C15         0.1634    1.5960    1.8135 C.ar      1 <0>         0.3442
     22 N5          1.2654    2.0931    1.2764 N.ar      1 <0>        -0.5721
     23 H2          6.9266    3.4722    0.3497 H         1 <0>         0.1387
     24 H3          4.8265    4.7453    0.1898 H         1 <0>         0.1300
     25 H4          2.6280    1.0808    0.0176 H         1 <0>         0.1494
     26 H5          6.8810    1.0119    0.3397 H         1 <0>         0.1364
     27 H6          2.3829    4.5728   -0.4544 H         1 <0>         0.4048
     28 H7         -3.2782    3.4768    1.2500 H         1 <0>         0.1532
     29 H8         -3.4722    5.5195   -0.0463 H         1 <0>         0.1457
     30 H9          0.4753    7.6590   -2.2041 H         1 <0>         0.2241
     31 H10         0.2358    0.6872    2.3925 H         1 <0>         0.2028
@<TRIPOS>BOND
     1    1    6 ar
     2    1    2 ar
     3    1   23 1
     4    2    3 ar
     5    2   24 1
     6    3    4 ar
     7    3    8 1
     8    4    5 ar
     9    4   25 1
    10    5    6 ar
    11    5    7 1
    12    6   26 1
    13    8    9 1
    14    8   27 1
    15    9   22 ar
    16    9   10 ar
    17   10   15 ar
    18   10   11 ar
    19   11   12 ar
    20   11   20 ar
    21   12   13 ar
    22   12   28 1
    23   13   14 ar
    24   13   29 1
    25   14   19 1
    26   14   15 ar
    27   15   16 1
    28   16   17 1
    29   16   18 1
    30   18   19 2
    31   18   30 1
    32   20   21 ar
    33   21   22 ar
    34   21   31 1
@<TRIPOS>MOLECULE
ZINC03815222
   31    34     0     0     0
SMALL
USER_CHARGES

@<TRIPOS>ATOM
      1 C1          5.9838    2.9506    0.2748 C.ar      1 <0>        -0.0902
      2 C2          4.8053    3.6655    0.1853 C.ar      1 <0>        -0.1353
      3 C3          3.5930    2.9945    0.0890 C.ar      1 <0>         0.1547
      4 C4          3.5694    1.6056    0.0883 C.ar      1 <0>        -0.0826
      5 C5          4.7520    0.8962    0.1738 C.ar      1 <0>        -0.0701
      6 C6          5.9581    1.5684    0.2692 C.ar      1 <0>        -0.1045
      7 Br1         4.7222   -0.9945    0.1671 Br        1 <0>        -0.0400
      8 N1          2.3988    3.7153   -0.0013 N.pl3     1 <0>        -0.6451
      9 C7          1.2415    3.2066    0.5546 C.ar      1 <0>         0.4533
     10 C8          0.0018    3.8576    0.3692 C.ar      1 <0>        -0.1684
     11 C9         -1.1496    3.2879    0.9632 C.ar      1 <0>         0.2207
     12 C10        -2.3983    3.9102    0.7978 C.ar      1 <0>        -0.1192
     13 C11        -2.5055    5.0528    0.0724 C.ar      1 <0>        -0.0086
     14 C12        -1.3754    5.6366   -0.5268 C.ar      1 <0>         0.0360
     15 C13        -0.1180    5.0400   -0.3797 C.ar      1 <0>         0.0701
     16 N2          0.7674    5.8343   -1.0690 N.pl3     1 <0>        -0.5934
     17 H1          1.7517    5.6831   -1.1600 H         1 <0>         0.4186
     18 C14         0.0579    6.8637   -1.6044 C.2       1 <0>         0.2499
     19 N3         -1.1986    6.7481   -1.2866 N.2       1 <0>        -0.4715
     20 N4         -1.0147    2.1558    1.6693 N.ar      1 <0>        -0.5316
     21 C15         0.1634    1.5960    1.8135 C.ar      1 <0>         0.3442
     22 N5          1.2654    2.0931    1.2764 N.ar      1 <0>        -0.5721
     23 H2          6.9266    3.4722    0.3497 H         1 <0>         0.1387
     24 H3          4.8265    4.7453    0.1898 H         1 <0>         0.1300
     25 H4          2.6280    1.0808    0.0176 H         1 <0>         0.1494
     26 H5          6.8810    1.0119    0.3397 H         1 <0>         0.1364
     27 H6          2.3829    4.5728   -0.4544 H         1 <0>         0.4048
     28 H7         -3.2782    3.4768    1.2500 H         1 <0>         0.1532
     29 H8         -3.4722    5.5195   -0.0463 H         1 <0>         0.1457
     30 H9          0.4753    7.6590   -2.2041 H         1 <0>         0.2241
     31 H10         0.2358    0.6872    2.3925 H         1 <0>         0.2028
@<TRIPOS>BOND
     1    1    6 ar
     2    1    2 ar
     3    1   23 1
     4    2    3 ar
     5    2   24 1
     6    3    4 ar
     7    3    8 1
     8    4    5 ar
     9    4   25 1
    10    5    6 ar
    11    5    7 1
    12    6   26 1
    13    8    9 1
    14    8   27 1
    15    9   22 ar
    16    9   10 ar
    17   10   15 ar
    18   10   11 ar
    19   11   12 ar
    20   11   20 ar
    21   12   13 ar
    22   12   28 1
    23   13   14 ar
    24   13   29 1
    25   14   19 1
    26   14   15 ar
    27   15   16 1
    28   16   17 1
    29   16   18 1
    30   18   19 2
    31   18   30 1
    32   20   21 ar
    33   21   22 ar
    34   21   31 1
@<TRIPOS>MOLECULE
ZINC03815223
   45    48     0     0     0
SMALL
USER_CHARGES

@<TRIPOS>ATOM
      1 C1         -3.8390    7.9998    7.4838 C.3       1 <0>         0.0697
      2 N1         -3.2868    8.9285    6.4944 N.am      1 <0>        -0.5058
      3 C2         -2.7444    8.4396    5.3328 C.ar      1 <0>         0.4664
      4 C3         -2.2079    9.3208    4.3691 C.ar      1 <0>        -0.2759
      5 C4         -2.2258   10.7164    4.5933 C.2       1 <0>         0.0305
      6 C5         -2.7695   11.1950    5.7550 C.2       1 <0>        -0.1636
      7 C6         -3.3170   10.2535    6.7341 C.2       1 <0>         0.5568
      8 O1         -3.8026   10.6709    7.7704 O.2       1 <0>        -0.5013
      9 C7         -2.8033   12.6524    6.0196 C.ar      1 <0>        -0.0102
     10 C8         -1.7424   13.2687    6.6843 C.ar      1 <0>        -0.0065
     11 C9         -1.7781   14.6284    6.9240 C.ar      1 <0>        -0.1064
     12 C10        -2.8671   15.3773    6.5156 C.ar      1 <0>        -0.0874
     13 C11        -3.9242   14.7718    5.8605 C.ar      1 <0>        -0.1064
     14 C12        -3.8988   13.4137    5.6103 C.ar      1 <0>        -0.0065
     15 Cl1        -5.2270   12.6554    4.7891 Cl        1 <0>        -0.0502
     16 Cl2        -0.3781   12.3293    7.2039 Cl        1 <0>        -0.0501
     17 C13        -1.6623    8.7799    3.1952 C.ar      1 <0>         0.2641
     18 N2         -1.6678    7.4690    3.0417 N.ar      1 <0>        -0.5651
     19 C14        -2.1863    6.6702    3.9680 C.ar      1 <0>         0.6102
     20 N3         -2.7120    7.1338    5.0914 N.ar      1 <0>        -0.5951
     21 N4         -2.1714    5.3052    3.7538 N.pl3     1 <0>        -0.6248
     22 C15        -1.7307    4.7946    2.5293 C.ar      1 <0>         0.1960
     23 C16        -1.9630    5.5024    1.3562 C.ar      1 <0>        -0.1458
     24 C17        -1.5272    4.9980    0.1466 C.ar      1 <0>        -0.0599
     25 C18        -0.8546    3.7914    0.0999 C.ar      1 <0>        -0.2207
     26 C19        -0.6244    3.0776    1.2675 C.ar      1 <0>         0.1477
     27 C20        -1.0602    3.5803    2.4836 C.ar      1 <0>        -0.1789
     28 O2          0.0329    1.8891    1.2194 O.3       1 <0>        -0.3170
     29 C21         0.4531    1.4318   -0.0676 C.3       1 <0>         0.0273
     30 H1         -3.0568    7.7078    8.1844 H         1 <0>         0.0747
     31 H2         -4.6495    8.4866    8.0263 H         1 <0>         0.0923
     32 H3         -4.2218    7.1141    6.9767 H         1 <0>         0.0953
     33 H4         -1.8168   11.3948    3.8592 H         1 <0>         0.1508
     34 H5         -0.9558   15.1074    7.4347 H         1 <0>         0.1438
     35 H6         -2.8922   16.4395    6.7094 H         1 <0>         0.1454
     36 H7         -4.7715   15.3621    5.5443 H         1 <0>         0.1438
     37 H8         -1.2424    9.4223    2.4353 H         1 <0>         0.1886
     38 H9         -2.4666    4.7013    4.4530 H         1 <0>         0.4279
     39 H10        -2.4850    6.4473    1.3903 H         1 <0>         0.1370
     40 H11        -1.7083    5.5496   -0.7641 H         1 <0>         0.1300
     41 H12        -0.5111    3.4017   -0.8469 H         1 <0>         0.1296
     42 H13        -0.8779    3.0284    3.3938 H         1 <0>         0.1338
     43 H14         0.9638    0.4744    0.0360 H         1 <0>         0.1014
     44 H15         1.1335    2.1608   -0.5079 H         1 <0>         0.0573
     45 H16        -0.4173    1.3114   -0.7124 H         1 <0>         0.0572
@<TRIPOS>BOND
     1    1    2 1
     2    1   30 1
     3    1   31 1
     4    1   32 1
     5    2    7 am
     6    2    3 1
     7    3   20 ar
     8    3    4 ar
     9    4    5 1
    10    4   17 ar
    11    5    6 2
    12    5   33 1
    13    6    7 1
    14    6    9 1
    15    7    8 2
    16    9   14 ar
    17    9   10 ar
    18   10   11 ar
    19   10   16 1
    20   11   12 ar
    21   11   34 1
    22   12   13 ar
    23   12   35 1
    24   13   14 ar
    25   13   36 1
    26   14   15 1
    27   17   18 ar
    28   17   37 1
    29   18   19 ar
    30   19   20 ar
    31   19   21 1
    32   21   22 1
    33   21   38 1
    34   22   27 ar
    35   22   23 ar
    36   23   24 ar
    37   23   39 1
    38   24   25 ar
    39   24   40 1
    40   25   26 ar
    41   25   41 1
    42   26   27 ar
    43   26   28 1
    44   27   42 1
    45   28   29 1
    46   29   43 1
    47   29   44 1
    48   29   45 1
@<TRIPOS>MOLECULE
ZINC03815225
   34    37     0     0     0
SMALL
USER_CHARGES

@<TRIPOS>ATOM
      1 C1          4.1301   -0.7526    0.6907 C.ar      1 <0>        -0.1502
      2 C2          3.2981   -1.8540    0.8207 C.ar      1 <0>        -0.0806
      3 C3          1.9292   -1.7108    0.7473 C.ar      1 <0>        -0.1447
      4 C4          1.3705   -0.4532    0.5412 C.ar      1 <0>         0.1388
      5 C5          2.2136    0.6604    0.4104 C.ar      1 <0>        -0.0969
      6 C6          3.5956    0.5011    0.4861 C.ar      1 <0>        -0.0539
      7 C7          1.3364    1.8269    0.2058 C.ar      1 <0>        -0.1074
      8 C8          0.0204    1.3445    0.2261 C.ar      1 <0>         0.1499
      9 N1          0.0600   -0.0235    0.4281 N.pl3     1 <0>        -0.6163
     10 H1         -0.7190   -0.5989    0.4823 H         1 <0>         0.4186
     11 C9         -1.0362    2.2357    0.0602 C.ar      1 <0>        -0.1430
     12 C10        -0.7875    3.5785   -0.1318 C.ar      1 <0>        -0.0735
     13 C11         0.5105    4.0599   -0.1522 C.ar      1 <0>        -0.1532
     14 C12         1.5780    3.1915    0.0155 C.ar      1 <0>         0.1985
     15 N2          2.8862    3.6760   -0.0049 N.pl3     1 <0>        -0.6965
     16 C13         3.7044    3.4318   -1.1106 C.ar      1 <0>         0.2198
     17 C14         3.1816    2.8153   -2.2409 C.ar      1 <0>        -0.1623
     18 C15         3.9915    2.5795   -3.3342 C.ar      1 <0>        -0.0683
     19 C16         5.3243    2.9471   -3.3017 C.ar      1 <0>        -0.1423
     20 C17         5.8498    3.5565   -2.1761 C.ar      1 <0>        -0.0442
     21 C18         5.0434    3.7996   -1.0804 C.ar      1 <0>        -0.1643
     22 Br1         7.6731    4.0565   -2.1368 Br        1 <0>        -0.0508
     23 H2          5.2012   -0.8776    0.7497 H         1 <0>         0.1263
     24 H3          3.7262   -2.8326    0.9805 H         1 <0>         0.1295
     25 H4          1.2899   -2.5752    0.8495 H         1 <0>         0.1240
     26 H5          4.2459    1.3574    0.3848 H         1 <0>         0.1224
     27 H6         -2.0537    1.8740    0.0795 H         1 <0>         0.1272
     28 H7         -1.6134    4.2618   -0.2640 H         1 <0>         0.1346
     29 H8          0.6918    5.1143   -0.2994 H         1 <0>         0.1309
     30 H9          3.2276    4.1825    0.7486 H         1 <0>         0.4109
     31 H10         2.1419    2.5241   -2.2657 H         1 <0>         0.1252
     32 H11         3.5847    2.1034   -4.2141 H         1 <0>         0.1303
     33 H12         5.9565    2.7578   -4.1567 H         1 <0>         0.1299
     34 H13         5.4539    4.2746   -0.2016 H         1 <0>         0.1316
@<TRIPOS>BOND
     1    1    6 ar
     2    1    2 ar
     3    1   23 1
     4    2    3 ar
     5    2   24 1
     6    3    4 ar
     7    3   25 1
     8    4    9 1
     9    4    5 ar
    10    5    6 ar
    11    5    7 1
    12    6   26 1
    13    7   14 ar
    14    7    8 ar
    15    8    9 1
    16    8   11 ar
    17    9   10 1
    18   11   12 ar
    19   11   27 1
    20   12   13 ar
    21   12   28 1
    22   13   14 ar
    23   13   29 1
    24   14   15 1
    25   15   16 1
    26   15   30 1
    27   16   21 ar
    28   16   17 ar
    29   17   18 ar
    30   17   31 1
    31   18   19 ar
    32   18   32 1
    33   19   20 ar
    34   19   33 1
    35   20   21 ar
    36   20   22 1
    37   21   34 1
@<TRIPOS>MOLECULE
ZINC03815227
   27    29     0     0     0
SMALL
USER_CHARGES

@<TRIPOS>ATOM
      1 C1          0.2180    9.4317    0.4311 C.ar      1 <0>        -0.0926
      2 C2          0.2318    8.0540    0.5289 C.ar      1 <0>        -0.0940
      3 C3          1.2481    7.3260   -0.0765 C.ar      1 <0>         0.1550
      4 C4          2.2510    7.9870   -0.7746 C.ar      1 <0>        -0.1161
      5 C5          2.2286    9.3650   -0.8733 C.ar      1 <0>        -0.0714
      6 C6          1.2143   10.0868   -0.2686 C.ar      1 <0>        -0.1029
      7 Br1         3.5890   10.2658   -1.8291 Br        1 <0>        -0.0435
      8 N1          1.2649    5.9319    0.0212 N.pl3     1 <0>        -0.6227
      9 C7          0.0793    5.2261    0.0229 C.ar      1 <0>         0.4844
     10 C8          0.0667    3.8238    0.2427 C.ar      1 <0>        -0.0087
     11 C9         -1.1848    3.1636    0.2311 C.ar      1 <0>         0.1416
     12 C10        -1.2223    1.7747    0.4407 C.ar      1 <0>        -0.0604
     13 C11        -0.0393    1.1250    0.6586 C.ar      1 <0>        -0.1286
     14 C12         1.1568    1.8387    0.6571 C.ar      1 <0>         0.1153
     15 N2          1.1851    3.1351    0.4550 N.ar      1 <0>        -0.4489
     16 N3         -2.2955    3.8811    0.0155 N.ar      1 <0>        -0.5397
     17 C13        -2.2228    5.1762   -0.1818 C.ar      1 <0>         0.3496
     18 N4         -1.0775    5.8396   -0.1806 N.ar      1 <0>        -0.5758
     19 H1         -0.5719    9.9980    0.9021 H         1 <0>         0.1378
     20 H2         -0.5471    7.5431    1.0755 H         1 <0>         0.1399
     21 H3          3.0450    7.4242   -1.2427 H         1 <0>         0.1358
     22 H4          1.2013   11.1642   -0.3432 H         1 <0>         0.1356
     23 H5          2.1101    5.4605    0.0879 H         1 <0>         0.4325
     24 H6         -2.1588    1.2368    0.4340 H         1 <0>         0.1539
     25 H7         -0.0319    0.0583    0.8275 H         1 <0>         0.1506
     26 H8          2.0844    1.3119    0.8261 H         1 <0>         0.1697
     27 H9         -3.1373    5.7248   -0.3523 H         1 <0>         0.2034
@<TRIPOS>BOND
     1    1    6 ar
     2    1    2 ar
     3    1   19 1
     4    2    3 ar
     5    2   20 1
     6    3    4 ar
     7    3    8 1
     8    4    5 ar
     9    4   21 1
    10    5    6 ar
    11    5    7 1
    12    6   22 1
    13    8    9 1
    14    8   23 1
    15    9   18 ar
    16    9   10 ar
    17   10   15 ar
    18   10   11 ar
    19   11   12 ar
    20   11   16 ar
    21   12   13 ar
    22   12   24 1
    23   13   14 ar
    24   13   25 1
    25   14   15 ar
    26   14   26 1
    27   16   17 ar
    28   17   18 ar
    29   17   27 1
@<TRIPOS>MOLECULE
ZINC03815228
   43    45     0     0     0
SMALL
USER_CHARGES

@<TRIPOS>ATOM
      1 C1         10.9293    7.0472    0.5842 C.3       1 <0>        -0.0499
      2 C2         11.8945    5.3463   -0.8434 C.3       1 <0>        -0.0417
      3 C3          9.5009    5.4093   -0.4833 C.3       1 <0>        -0.0197
      4 C4          8.2860    6.3392   -0.4854 C.3       1 <0>         0.1152
      5 N1          7.0618    5.5436   -0.3650 N.pl3     1 <0>        -0.7020
      6 C5          5.8277    6.1708   -0.3446 C.ar      1 <0>         0.5491
      7 N2          5.7831    7.4979   -0.4361 N.ar      1 <0>        -0.5316
      8 C6          4.6406    8.1522   -0.4224 C.ar      1 <0>         0.2542
      9 C7          3.4482    7.4139   -0.3077 C.ar      1 <0>         0.0491
     10 C8          3.5393    6.0050   -0.2074 C.ar      1 <0>         0.0739
     11 N3          4.7410    5.4294   -0.2348 N.ar      1 <0>        -0.5307
     12 C9          2.3353    5.2648   -0.0976 C.ar      1 <0>         0.4705
     13 N4          1.1907    5.9331   -0.0852 N.ar      1 <0>        -0.5507
     14 C10         1.1582    7.2532   -0.1771 C.ar      1 <0>         0.3445
     15 N5          2.2403    7.9882   -0.2853 N.ar      1 <0>        -0.5112
     16 N6          2.3547    3.8878   -0.0005 N.pl3     1 <0>        -0.6174
     17 C11         1.1558    3.1697   -0.0090 C.ar      1 <0>         0.1466
     18 C12         1.0435    1.9936    0.7223 C.ar      1 <0>        -0.1276
     19 C13        -0.1422    1.2859    0.7117 C.ar      1 <0>        -0.0907
     20 C14        -1.2160    1.7435   -0.0299 C.ar      1 <0>        -0.1001
     21 C15        -1.1098    2.9171   -0.7551 C.ar      1 <0>        -0.0713
     22 C16         0.0743    3.6300   -0.7486 C.ar      1 <0>        -0.0843
     23 Br1        -2.5833    3.5419   -1.7622 Br        1 <0>        -0.0371
     24 H1         11.0097    6.4138    1.4676 H         1 <0>         0.1252
     25 H2         11.8449    7.6272    0.4685 H         1 <0>         0.1270
     26 H3         10.0825    7.7239    0.6981 H         1 <0>         0.1247
     27 H4         11.7492    4.7864   -1.7673 H         1 <0>         0.1231
     28 H5         12.7896    5.9624   -0.9288 H         1 <0>         0.1267
     29 H6         12.0098    4.6512   -0.0117 H         1 <0>         0.1246
     30 H7          9.5248    4.8447    0.4487 H         1 <0>         0.1388
     31 H8          9.4318    4.7194   -1.3244 H         1 <0>         0.1371
     32 H9          8.2621    6.9038   -1.4175 H         1 <0>         0.0885
     33 H10         8.3551    7.0292    0.3557 H         1 <0>         0.0890
     34 H11         7.1159    4.5773   -0.2995 H         1 <0>         0.4210
     35 H12         4.6191    9.2294   -0.4971 H         1 <0>         0.1980
     36 H13         0.1982    7.7477   -0.1620 H         1 <0>         0.2103
     37 H14         3.2005    3.4187    0.0736 H         1 <0>         0.4311
     38 H15         1.8828    1.6334    1.2987 H         1 <0>         0.1321
     39 H16        -0.2295    0.3715    1.2797 H         1 <0>         0.1399
     40 H17        -2.1409    1.1859   -0.0397 H         1 <0>         0.1379
     41 H18         0.1584    4.5436   -1.3184 H         1 <0>         0.1464
     42 N7         10.7255    6.2245   -0.6267 N.4       1 <0>        -0.3931
     43 H19        10.6199    6.8453   -1.4378 H         1 <0>         0.4347
@<TRIPOS>BOND
     1    1   24 1
     2    1   25 1
     3    1   26 1
     4    1   42 1
     5    2   27 1
     6    2   28 1
     7    2   29 1
     8    2   42 1
     9    3    4 1
    10    3   30 1
    11    3   31 1
    12    3   42 1
    13    4    5 1
    14    4   32 1
    15    4   33 1
    16    5    6 1
    17    5   34 1
    18    6   11 ar
    19    6    7 ar
    20    7    8 ar
    21    8    9 ar
    22    8   35 1
    23    9   15 ar
    24    9   10 ar
    25   10   11 ar
    26   10   12 ar
    27   12   13 ar
    28   12   16 1
    29   13   14 ar
    30   14   15 ar
    31   14   36 1
    32   16   17 1
    33   16   37 1
    34   17   22 ar
    35   17   18 ar
    36   18   19 ar
    37   18   38 1
    38   19   20 ar
    39   19   39 1
    40   20   21 ar
    41   20   40 1
    42   21   22 ar
    43   21   23 1
    44   22   41 1
    45   42   43 1
@<TRIPOS>MOLECULE
ZINC03815229
   27    29     0     0     0
SMALL
USER_CHARGES

@<TRIPOS>ATOM
      1 C1         -1.1127    2.9193   -0.7405 C.ar      1 <0>        -0.0926
      2 C2          0.0715    3.6304   -0.7391 C.ar      1 <0>        -0.0938
      3 C3          1.1560    3.1698   -0.0036 C.ar      1 <0>         0.1528
      4 C4          1.0460    1.9945    0.7286 C.ar      1 <0>        -0.1168
      5 C5         -0.1412    1.2877    0.7231 C.ar      1 <0>        -0.0718
      6 C6         -1.2214    1.7529   -0.0063 C.ar      1 <0>        -0.1015
      7 Br1        -0.2926   -0.3125    1.7194 Br        1 <0>        -0.0421
      8 N1          2.3554    3.8876   -0.0000 N.pl3     1 <0>        -0.6322
      9 C7          2.3361    5.2624   -0.0965 C.ar      1 <0>         0.4872
     10 C8          3.5372    6.0016   -0.2121 C.ar      1 <0>        -0.2567
     11 C9          4.7986    5.4012   -0.2355 C.ar      1 <0>         0.1803
     12 N2          5.8754    6.1484   -0.3460 N.ar      1 <0>        -0.4928
     13 C10         5.8228    7.4695   -0.4364 C.ar      1 <0>         0.1214
     14 C11         4.6394    8.1465   -0.4221 C.ar      1 <0>        -0.1575
     15 C12         3.4476    7.4142   -0.3075 C.ar      1 <0>         0.2188
     16 N3          2.2399    7.9885   -0.2843 N.ar      1 <0>        -0.5472
     17 C13         1.1578    7.2519   -0.1747 C.ar      1 <0>         0.3652
     18 N4          1.1897    5.9320   -0.0892 N.ar      1 <0>        -0.5846
     19 H1         -1.9561    3.2773   -1.3122 H         1 <0>         0.1382
     20 H2          0.1539    4.5441   -1.3090 H         1 <0>         0.1442
     21 H3          1.8874    1.6338    1.3017 H         1 <0>         0.1363
     22 H4         -2.1499    1.2012   -0.0057 H         1 <0>         0.1359
     23 H5          3.2014    3.4182    0.0704 H         1 <0>         0.4245
     24 H6          4.8891    4.3274   -0.1638 H         1 <0>         0.1609
     25 H7          6.7442    8.0261   -0.5243 H         1 <0>         0.1670
     26 H8          4.6194    9.2237   -0.4978 H         1 <0>         0.1538
     27 H9          0.1977    7.7461   -0.1588 H         1 <0>         0.2032
@<TRIPOS>BOND
     1    1    6 ar
     2    1    2 ar
     3    1   19 1
     4    2    3 ar
     5    2   20 1
     6    3    4 ar
     7    3    8 1
     8    4    5 ar
     9    4   21 1
    10    5    6 ar
    11    5    7 1
    12    6   22 1
    13    8    9 1
    14    8   23 1
    15    9   18 ar
    16    9   10 ar
    17   10   15 ar
    18   10   11 ar
    19   11   12 ar
    20   11   24 1
    21   12   13 ar
    22   13   14 ar
    23   13   25 1
    24   14   15 ar
    25   14   26 1
    26   15   16 ar
    27   16   17 ar
    28   17   18 ar
    29   17   27 1
@<TRIPOS>MOLECULE
ZINC03815230
   37    40     0     0     0
SMALL
USER_CHARGES

@<TRIPOS>ATOM
      1 C1          0.7495    2.6530   -2.2933 C.ar      1 <0>        -0.1039
      2 C2          0.2984    3.8657   -1.8126 C.ar      1 <0>        -0.0722
      3 C3          0.3375    4.1279   -0.4442 C.ar      1 <0>        -0.0180
      4 C4          0.8274    3.1602    0.4319 C.ar      1 <0>        -0.0236
      5 C5          1.2703    1.9494   -0.0596 C.ar      1 <0>        -0.0344
      6 C6          1.2291    1.6947   -1.4189 C.ar      1 <0>        -0.0415
      7 N1          1.7902    0.9208    0.8692 N.pl3     1 <0>         0.0238
      8 O1          2.1812   -0.1486    0.4366 O.2       1 <0>        -0.1466
      9 O2          1.8270    1.1438    2.0660 O.3       1 <0>        -0.1494
     10 C7         -0.1404    5.4306    0.0778 C.2       1 <0>         0.1595
     11 C8         -1.3763    6.1149   -0.3012 C.ar      1 <0>        -0.3149
     12 C9         -1.4149    7.3090    0.4432 C.ar      1 <0>         0.3853
     13 N2         -0.2871    7.3350    1.2085 N.pl3     1 <0>        -0.4734
     14 H1         -0.0360    8.0664    1.8426 H         1 <0>         0.4609
     15 N3          0.4645    6.1797    0.9691 N.2       1 <0>        -0.2110
     16 N4         -2.4539    8.1281    0.2831 N.ar      1 <0>        -0.5634
     17 C10        -3.4227    7.8275   -0.5539 C.ar      1 <0>         0.3912
     18 N5         -3.4272    6.7188   -1.2719 N.ar      1 <0>        -0.5853
     19 C11        -2.4349    5.8383   -1.1817 C.ar      1 <0>         0.5077
     20 N6         -2.4448    4.6797   -1.9361 N.pl3     1 <0>        -0.6436
     21 C12        -3.4407    4.4795   -2.8963 C.ar      1 <0>         0.1592
     22 C13        -3.9014    3.1964   -3.1643 C.ar      1 <0>        -0.1430
     23 C14        -4.8856    3.0013   -4.1130 C.ar      1 <0>        -0.0838
     24 C15        -5.4133    4.0814   -4.7967 C.ar      1 <0>        -0.1236
     25 C16        -4.9574    5.3610   -4.5324 C.ar      1 <0>        -0.0145
     26 C17        -3.9757    5.5631   -3.5803 C.ar      1 <0>        -0.1041
     27 Cl1        -5.6235    6.7140   -5.3922 Cl        1 <0>        -0.0614
     28 H2          0.7241    2.4505   -3.3538 H         1 <0>         0.1613
     29 H3         -0.0800    4.6116   -2.4958 H         1 <0>         0.1503
     30 H4          0.8603    3.3581    1.4931 H         1 <0>         0.1627
     31 H5          1.5769    0.7455   -1.7991 H         1 <0>         0.1637
     32 H6         -4.2488    8.5153   -0.6582 H         1 <0>         0.2122
     33 H7         -1.7607    4.0058   -1.7991 H         1 <0>         0.4194
     34 H8         -3.4898    2.3521   -2.6312 H         1 <0>         0.1300
     35 H9         -5.2440    2.0040   -4.3211 H         1 <0>         0.1386
     36 H10        -6.1830    3.9259   -5.5382 H         1 <0>         0.1363
     37 H11        -3.6227    6.5622   -3.3714 H         1 <0>         0.1497
@<TRIPOS>BOND
     1    1    6 ar
     2    1    2 ar
     3    1   28 1
     4    2    3 ar
     5    2   29 1
     6    3    4 ar
     7    3   10 1
     8    4    5 ar
     9    4   30 1
    10    5    6 ar
    11    5    7 1
    12    6   31 1
    13    7    8 2
    14    7    9 1
    15   10   15 2
    16   10   11 1
    17   11   19 ar
    18   11   12 ar
    19   12   13 1
    20   12   16 ar
    21   13   14 1
    22   13   15 1
    23   16   17 ar
    24   17   18 ar
    25   17   32 1
    26   18   19 ar
    27   19   20 1
    28   20   21 1
    29   20   33 1
    30   21   26 ar
    31   21   22 ar
    32   22   23 ar
    33   22   34 1
    34   23   24 ar
    35   23   35 1
    36   24   25 ar
    37   24   36 1
    38   25   26 ar
    39   25   27 1
    40   26   37 1
@<TRIPOS>MOLECULE
ZINC03815231
   33    35     0     0     0
SMALL
USER_CHARGES

@<TRIPOS>ATOM
      1 C1         -0.0127    1.0858    0.0080 C.3       1 <0>         0.0194
      2 O1         -0.6816    1.5467    1.1837 O.3       1 <0>        -0.2781
      3 C2         -1.9730    1.1636    1.3480 C.ar      1 <0>         0.2351
      4 C3         -2.5887    0.3680    0.4006 C.ar      1 <0>        -0.2842
      5 C4         -3.9117   -0.0275    0.5718 C.ar      1 <0>         0.2153
      6 C5         -4.6318    0.3754    1.6840 C.ar      1 <0>        -0.2449
      7 C6         -4.0336    1.1794    2.6464 C.ar      1 <0>         0.2488
      8 C7         -2.6938    1.5768    2.4770 C.ar      1 <0>        -0.2405
      9 C8         -2.0767    2.4271    3.5045 C.2       1 <0>         0.4298
     10 O2         -0.9193    2.8003    3.4077 O.2       1 <0>        -0.4586
     11 C9         -2.9087    2.8088    4.6537 C.2       1 <0>        -0.2389
     12 C10        -4.1950    2.3681    4.7174 C.2       1 <0>         0.1755
     13 N1         -4.7391    1.5863    3.7573 N.pl3     1 <0>        -0.6092
     14 H1         -5.6897    1.2925    3.8577 H         1 <0>         0.4302
     15 C11        -2.3543    3.6643    5.7305 C.ar      1 <0>         0.0003
     16 C12        -1.1355    3.3395    6.3244 C.ar      1 <0>        -0.0860
     17 C13        -0.6215    4.1416    7.3227 C.ar      1 <0>        -0.1041
     18 C14        -1.3177    5.2610    7.7419 C.ar      1 <0>        -0.1121
     19 C15        -2.5309    5.5860    7.1599 C.ar      1 <0>        -0.0338
     20 C16        -3.0524    4.7927    6.1563 C.ar      1 <0>        -0.1086
     21 Cl1        -3.3985    6.9922    7.6923 Cl        1 <0>        -0.0714
     22 O3         -4.5040   -0.8134   -0.3633 O.3       1 <0>        -0.4945
     23 H2          0.0021   -0.0041    0.0020 H         1 <0>         0.0605
     24 H3          1.0099    1.4631    0.0003 H         1 <0>         0.1074
     25 H4         -0.5399    1.4469   -0.8751 H         1 <0>         0.0598
     26 H5         -2.0404    0.0495   -0.4736 H         1 <0>         0.1438
     27 H6         -5.6590    0.0640    1.8036 H         1 <0>         0.1419
     28 H7         -4.8021    2.6524    5.5641 H         1 <0>         0.1675
     29 H8         -0.5928    2.4635    6.0013 H         1 <0>         0.1293
     30 H9          0.3244    3.8926    7.7805 H         1 <0>         0.1339
     31 H10        -0.9135    5.8835    8.5265 H         1 <0>         0.1331
     32 H11        -3.9990    5.0467    5.7026 H         1 <0>         0.1317
     33 H12        -4.9446   -0.3208   -1.0692 H         1 <0>         0.4018
@<TRIPOS>BOND
     1    1    2 1
     2    1   23 1
     3    1   24 1
     4    1   25 1
     5    2    3 1
     6    3    8 ar
     7    3    4 ar
     8    4    5 ar
     9    4   26 1
    10    5    6 ar
    11    5   22 1
    12    6    7 ar
    13    6   27 1
    14    7   13 1
    15    7    8 ar
    16    8    9 1
    17    9   10 2
    18    9   11 1
    19   11   12 2
    20   11   15 1
    21   12   13 1
    22   12   28 1
    23   13   14 1
    24   15   20 ar
    25   15   16 ar
    26   16   17 ar
    27   16   29 1
    28   17   18 ar
    29   17   30 1
    30   18   19 ar
    31   18   31 1
    32   19   20 ar
    33   19   21 1
    34   20   32 1
    35   22   33 1
@<TRIPOS>MOLECULE
ZINC03815232
   31    33     0     0     0
SMALL
USER_CHARGES

@<TRIPOS>ATOM
      1 C1         -1.0375   -2.0231    1.1041 C.3       1 <0>         0.0372
      2 O1         -1.1244   -0.6138    0.8842 O.3       1 <0>        -0.2988
      3 C2          0.0384    0.0470    0.6580 C.ar      1 <0>         0.3458
      4 C3          0.0072    1.4100    0.4398 C.ar      1 <0>        -0.1911
      5 C4          1.2160    2.0773    0.2080 C.ar      1 <0>         0.2493
      6 C5          2.4145    1.3152    0.2093 C.ar      1 <0>        -0.2857
      7 C6          2.3449   -0.0603    0.4402 C.ar      1 <0>         0.2241
      8 N1          1.1802   -0.6332    0.6522 N.ar      1 <0>        -0.5424
      9 C7          3.6346    1.9916   -0.0248 C.ar      1 <0>         0.4968
     10 N2          3.5923    3.3023   -0.2333 N.ar      1 <0>        -0.5915
     11 C8          2.4498    3.9694   -0.2254 C.ar      1 <0>         0.3737
     12 N3          1.2875    3.3953   -0.0143 N.ar      1 <0>        -0.5512
     13 N4          4.8325    1.3099   -0.0364 N.pl3     1 <0>        -0.6341
     14 C9          6.0356    2.0127   -0.1491 C.ar      1 <0>         0.1533
     15 C10         6.1720    3.2596    0.4483 C.ar      1 <0>        -0.0908
     16 C11         7.3618    3.9514    0.3357 C.ar      1 <0>        -0.0929
     17 C12         8.4176    3.4045   -0.3704 C.ar      1 <0>        -0.1005
     18 C13         8.2856    2.1630   -0.9667 C.ar      1 <0>        -0.0724
     19 C14         7.0989    1.4634   -0.8536 C.ar      1 <0>        -0.1157
     20 Br1         9.7323    1.4195   -1.9311 Br        1 <0>        -0.0424
     21 H1         -2.0360   -2.4269    1.2718 H         1 <0>         0.1013
     22 H2         -0.5945   -2.5006    0.2302 H         1 <0>         0.0622
     23 H3         -0.4158   -2.2167    1.9783 H         1 <0>         0.0622
     24 H4         -0.9290    1.9486    0.4436 H         1 <0>         0.1592
     25 H5          3.2473   -0.6536    0.4443 H         1 <0>         0.1661
     26 H6          2.4740    5.0348   -0.4009 H         1 <0>         0.2034
     27 H7          4.8407    0.3424    0.0336 H         1 <0>         0.4235
     28 H8          5.3481    3.6876    1.0000 H         1 <0>         0.1415
     29 H9          7.4680    4.9207    0.8001 H         1 <0>         0.1382
     30 H10         9.3472    3.9474   -0.4563 H         1 <0>         0.1359
     31 H11         6.9975    0.4924   -1.3153 H         1 <0>         0.1360
@<TRIPOS>BOND
     1    1    2 1
     2    1   21 1
     3    1   22 1
     4    1   23 1
     5    2    3 1
     6    3    8 ar
     7    3    4 ar
     8    4    5 ar
     9    4   24 1
    10    5   12 ar
    11    5    6 ar
    12    6    7 ar
    13    6    9 ar
    14    7    8 ar
    15    7   25 1
    16    9   10 ar
    17    9   13 1
    18   10   11 ar
    19   11   12 ar
    20   11   26 1
    21   13   14 1
    22   13   27 1
    23   14   19 ar
    24   14   15 ar
    25   15   16 ar
    26   15   28 1
    27   16   17 ar
    28   16   29 1
    29   17   18 ar
    30   17   30 1
    31   18   19 ar
    32   18   20 1
    33   19   31 1
@<TRIPOS>MOLECULE
ZINC03815233
   46    49     0     0     0
SMALL
USER_CHARGES

@<TRIPOS>ATOM
      1 C1         -7.5442    6.1162   -2.0743 C.3       1 <0>        -0.0491
      2 C2         -7.0868    4.3683   -3.6861 C.3       1 <0>        -0.0417
      3 C3         -5.2939    5.2579   -2.3235 C.3       1 <0>        -0.0299
      4 C4         -4.9060    5.6072   -0.8853 C.3       1 <0>         0.1272
      5 N1         -3.4779    5.9291   -0.8291 N.pl3     1 <0>        -0.4322
      6 C5         -2.4669    5.0280   -0.6000 C.ar      1 <0>         0.1712
      7 C6         -2.4492    3.6628   -0.3711 C.ar      1 <0>        -0.1583
      8 C7         -1.2330    3.0119   -0.1671 C.ar      1 <0>         0.2332
      9 C8         -0.0191    3.7505   -0.1962 C.ar      1 <0>        -0.2184
     10 C9         -0.0394    5.1228   -0.4272 C.ar      1 <0>         0.0357
     11 C10        -1.2577    5.7630   -0.6289 C.ar      1 <0>        -0.1873
     12 C11        -1.6317    7.1527   -0.8902 C.2       1 <0>         0.1161
     13 N2         -2.9269    7.2027   -0.9992 N.2       1 <0>        -0.2460
     14 C12         1.1960    3.0481    0.0151 C.ar      1 <0>         0.4896
     15 N3          1.1356    1.7411    0.2284 N.ar      1 <0>        -0.5909
     16 C13        -0.0204    1.0947    0.2466 C.ar      1 <0>         0.3746
     17 N4         -1.1736    1.6864    0.0531 N.ar      1 <0>        -0.5625
     18 N5          2.4066    3.7072   -0.0015 N.pl3     1 <0>        -0.6303
     19 C14         3.5984    2.9823    0.0883 C.ar      1 <0>         0.1459
     20 C15         3.7001    1.7330   -0.5110 C.ar      1 <0>        -0.0897
     21 C16         4.8788    1.0193   -0.4212 C.ar      1 <0>        -0.0929
     22 C17         5.9579    1.5465    0.2646 C.ar      1 <0>        -0.0963
     23 C18         5.8606    2.7905    0.8624 C.ar      1 <0>        -0.0729
     24 C19         4.6851    3.5119    0.7719 C.ar      1 <0>        -0.1134
     25 Br1         7.3391    3.5072    1.7983 Br        1 <0>        -0.0370
     26 H1         -7.3341    6.9015   -2.8004 H         1 <0>         0.1262
     27 H2         -8.5999    5.8493   -2.1229 H         1 <0>         0.1275
     28 H3         -7.3057    6.4742   -1.0727 H         1 <0>         0.1221
     29 H4         -6.5158    3.4555   -3.8564 H         1 <0>         0.1230
     30 H5         -8.1522    4.1384   -3.7006 H         1 <0>         0.1269
     31 H6         -6.8601    5.0903   -4.4706 H         1 <0>         0.1241
     32 H7         -5.0875    6.1090   -2.9724 H         1 <0>         0.1394
     33 H8         -4.7141    4.3974   -2.6574 H         1 <0>         0.1338
     34 H9         -5.1124    4.7561   -0.2364 H         1 <0>         0.1103
     35 H10        -5.4858    6.4677   -0.5514 H         1 <0>         0.1154
     36 H11        -3.3734    3.1044   -0.3502 H         1 <0>         0.1385
     37 H12         0.8822    5.6853   -0.4499 H         1 <0>         0.1411
     38 H13        -0.9533    7.9886   -0.9772 H         1 <0>         0.2102
     39 H14        -0.0118    0.0296    0.4249 H         1 <0>         0.2021
     40 H15         2.4315    4.6741   -0.0754 H         1 <0>         0.4229
     41 H16         2.8579    1.3203   -1.0465 H         1 <0>         0.1402
     42 H17         4.9583    0.0483   -0.8873 H         1 <0>         0.1394
     43 H18         6.8786    0.9862    0.3333 H         1 <0>         0.1380
     44 H19         4.6105    4.4845    1.2353 H         1 <0>         0.1360
     45 N6         -6.7313    4.9153   -2.3598 N.4       1 <0>        -0.3944
     46 H20        -6.9230    4.2048   -1.6438 H         1 <0>         0.4328
@<TRIPOS>BOND
     1    1   26 1
     2    1   27 1
     3    1   28 1
     4    1   45 1
     5    2   29 1
     6    2   30 1
     7    2   31 1
     8    2   45 1
     9    3    4 1
    10    3   32 1
    11    3   33 1
    12    3   45 1
    13    4    5 1
    14    4   34 1
    15    4   35 1
    16    5   13 1
    17    5    6 1
    18    6   11 ar
    19    6    7 ar
    20    7    8 ar
    21    7   36 1
    22    8   17 ar
    23    8    9 ar
    24    9   10 ar
    25    9   14 ar
    26   10   11 ar
    27   10   37 1
    28   11   12 1
    29   12   13 2
    30   12   38 1
    31   14   15 ar
    32   14   18 1
    33   15   16 ar
    34   16   17 ar
    35   16   39 1
    36   18   19 1
    37   18   40 1
    38   19   24 ar
    39   19   20 ar
    40   20   21 ar
    41   20   41 1
    42   21   22 ar
    43   21   42 1
    44   22   23 ar
    45   22   43 1
    46   23   24 ar
    47   23   25 1
    48   24   44 1
    49   45   46 1
@<TRIPOS>MOLECULE
ZINC03815234
   27    30     0     0     0
SMALL
USER_CHARGES

@<TRIPOS>ATOM
      1 C1         -4.0106   -3.9070    0.4026 C.ar      1 <0>        -0.0913
      2 C2         -3.0557   -2.9140    0.5036 C.ar      1 <0>        -0.0964
      3 C3         -3.2811   -1.6735   -0.0793 C.ar      1 <0>         0.1600
      4 C4         -4.4692   -1.4338   -0.7579 C.ar      1 <0>        -0.1183
      5 C5         -5.4184   -2.4327   -0.8595 C.ar      1 <0>        -0.0703
      6 C6         -5.1901   -3.6676   -0.2778 C.ar      1 <0>        -0.1035
      7 Br1        -7.0338   -2.1100   -1.7880 Br        1 <0>        -0.0430
      8 N1         -2.3169   -0.6668    0.0218 N.pl3     1 <0>        -0.6427
      9 C7         -0.9688   -0.9940    0.0114 C.ar      1 <0>         0.4950
     10 C8         -0.0011   -0.0257    0.2294 C.ar      1 <0>        -0.2882
     11 C9          1.3661   -0.3551    0.2198 C.ar      1 <0>         0.2578
     12 C10         2.2759    0.7544    0.4627 C.2       1 <0>        -0.2148
     13 C11         1.7280    2.0159    0.6785 C.2       1 <0>         0.0676
     14 S1         -0.0294    1.7140    0.5547 S.3       1 <0>         0.1945
     15 N2          2.5850    3.0079    0.8980 N.2       1 <0>        -0.4799
     16 C12         3.8793    2.8187    0.9125 C.2       1 <0>         0.1051
     17 S2          4.0221    1.1185    0.5987 S.3       1 <0>         0.1695
     18 N3          1.6589   -1.6582   -0.0129 N.ar      1 <0>        -0.5269
     19 C13         0.7161   -2.5427   -0.2142 C.ar      1 <0>         0.3482
     20 N4         -0.5715   -2.2476   -0.2080 N.ar      1 <0>        -0.5454
     21 H1         -3.8358   -4.8714    0.8561 H         1 <0>         0.1378
     22 H2         -2.1346   -3.1021    1.0351 H         1 <0>         0.1406
     23 H3         -4.6494   -0.4689   -1.2084 H         1 <0>         0.1358
     24 H4         -5.9350   -4.4457   -0.3552 H         1 <0>         0.1356
     25 H5         -2.5903    0.2606    0.0991 H         1 <0>         0.4236
     26 H6          4.6642    3.5416    1.0790 H         1 <0>         0.2418
     27 H7          1.0056   -3.5674   -0.3945 H         1 <0>         0.2082
@<TRIPOS>BOND
     1    1    6 ar
     2    1    2 ar
     3    1   21 1
     4    2    3 ar
     5    2   22 1
     6    3    4 ar
     7    3    8 1
     8    4    5 ar
     9    4   23 1
    10    5    6 ar
    11    5    7 1
    12    6   24 1
    13    8    9 1
    14    8   25 1
    15    9   20 ar
    16    9   10 ar
    17   10   14 1
    18   10   11 ar
    19   11   12 1
    20   11   18 ar
    21   12   17 1
    22   12   13 2
    23   13   14 1
    24   13   15 1
    25   15   16 2
    26   16   17 1
    27   16   26 1
    28   18   19 ar
    29   19   20 ar
    30   19   27 1
@<TRIPOS>MOLECULE
ZINC03815235
   35    37     0     0     0
SMALL
USER_CHARGES

@<TRIPOS>ATOM
      1 C1          3.3964    7.4823   -0.8312 C.3       1 <0>        -0.1706
      2 C2          3.4747    5.9805   -0.7336 C.2       1 <0>         0.5139
      3 O1          4.4535    5.3961   -1.1476 O.2       1 <0>        -0.5219
      4 N1          2.4570    5.2868   -0.1863 N.am      1 <0>        -0.6757
      5 C3          2.4845    3.8905   -0.1854 C.ar      1 <0>         0.1965
      6 C4          3.7008    3.2225   -0.0076 C.ar      1 <0>        -0.1265
      7 C5          3.7555    1.8620   -0.0026 C.ar      1 <0>        -0.0555
      8 C6          2.5816    1.1189   -0.1773 C.ar      1 <0>        -0.2015
      9 C7          1.3441    1.7855   -0.3586 C.ar      1 <0>         0.2077
     10 C8          1.3114    3.1846   -0.3594 C.ar      1 <0>        -0.1435
     11 N2          0.2336    1.0504   -0.5234 N.ar      1 <0>        -0.5461
     12 C9          0.2965   -0.2602   -0.5162 C.ar      1 <0>         0.3496
     13 N3          1.4282   -0.9254   -0.3509 N.ar      1 <0>        -0.5847
     14 C10         2.5840   -0.2961   -0.1797 C.ar      1 <0>         0.4684
     15 N4          3.7568   -1.0027   -0.0089 N.pl3     1 <0>        -0.6378
     16 C11         3.7241   -2.3962    0.0960 C.ar      1 <0>         0.1576
     17 C12         4.7813   -3.1558   -0.3897 C.ar      1 <0>        -0.1327
     18 C13         4.7464   -4.5322   -0.2848 C.ar      1 <0>        -0.0920
     19 C14         3.6609   -5.1554    0.3034 C.ar      1 <0>        -0.1068
     20 C15         2.6063   -4.4023    0.7882 C.ar      1 <0>        -0.0710
     21 C16         2.6377   -3.0240    0.6909 C.ar      1 <0>        -0.0847
     22 Br1         1.1246   -5.2592    1.5922 Br        1 <0>        -0.0439
     23 H1          2.4507    7.8248   -0.4113 H         1 <0>         0.0811
     24 H2          4.2226    7.9260   -0.2757 H         1 <0>         0.1019
     25 H3          3.4594    7.7822   -1.8773 H         1 <0>         0.1024
     26 H4          1.7054    5.7573    0.2069 H         1 <0>         0.4171
     27 H5          4.6077    3.7931    0.1277 H         1 <0>         0.1476
     28 H6          4.7007    1.3580    0.1352 H         1 <0>         0.1306
     29 H7          0.3763    3.7074   -0.4960 H         1 <0>         0.1457
     30 H8         -0.6164   -0.8212   -0.6516 H         1 <0>         0.1985
     31 H9          4.6038   -0.5325    0.0383 H         1 <0>         0.4233
     32 H10         5.6294   -2.6701   -0.8492 H         1 <0>         0.1319
     33 H11         5.5680   -5.1229   -0.6622 H         1 <0>         0.1373
     34 H12         3.6365   -6.2320    0.3848 H         1 <0>         0.1346
     35 H13         1.8166   -2.4361    1.0738 H         1 <0>         0.1491
@<TRIPOS>BOND
     1    1    2 1
     2    1   23 1
     3    1   24 1
     4    1   25 1
     5    2    3 2
     6    2    4 am
     7    4    5 1
     8    4   26 1
     9    5   10 ar
    10    5    6 ar
    11    6    7 ar
    12    6   27 1
    13    7    8 ar
    14    7   28 1
    15    8   14 ar
    16    8    9 ar
    17    9   10 ar
    18    9   11 ar
    19   10   29 1
    20   11   12 ar
    21   12   13 ar
    22   12   30 1
    23   13   14 ar
    24   14   15 1
    25   15   16 1
    26   15   31 1
    27   16   21 ar
    28   16   17 ar
    29   17   18 ar
    30   17   32 1
    31   18   19 ar
    32   18   33 1
    33   19   20 ar
    34   19   34 1
    35   20   21 ar
    36   20   22 1
    37   21   35 1
@<TRIPOS>MOLECULE
ZINC03815236
   27    29     0     0     0
SMALL
USER_CHARGES

@<TRIPOS>ATOM
      1 C1          3.9977   -4.5625    0.2270 C.ar      1 <0>        -0.0913
      2 C2          2.7669   -3.9473    0.3481 C.ar      1 <0>        -0.1282
      3 C3          2.5832   -2.6614   -0.1438 C.ar      1 <0>         0.1511
      4 C4          3.6371   -2.0000   -0.7616 C.ar      1 <0>        -0.0832
      5 C5          4.8671   -2.6190   -0.8753 C.ar      1 <0>        -0.0715
      6 C6          5.0465   -3.9002   -0.3835 C.ar      1 <0>        -0.1022
      7 Br1         6.3047   -1.7177   -1.7101 Br        1 <0>        -0.0404
      8 N1          1.3389   -2.0364   -0.0226 N.pl3     1 <0>        -0.6311
      9 C7          1.2673   -0.6692    0.1454 C.ar      1 <0>         0.4716
     10 C8          0.0200    0.0001    0.1538 C.ar      1 <0>        -0.1565
     11 C9         -1.2027   -0.6621   -0.0033 C.ar      1 <0>        -0.1015
     12 C10        -2.3530    0.0763    0.0201 C.ar      1 <0>         0.1438
     13 N2         -2.3343    1.3905    0.1869 N.ar      1 <0>        -0.4462
     14 C11        -1.2224    2.0719    0.3441 C.ar      1 <0>         0.1774
     15 C12         0.0117    1.4064    0.3300 C.ar      1 <0>         0.1355
     16 N3          1.1806    2.0425    0.4814 N.ar      1 <0>        -0.5230
     17 C13         2.3079    1.3711    0.4650 C.ar      1 <0>         0.3532
     18 N4          2.3653    0.0584    0.3035 N.ar      1 <0>        -0.5664
     19 Cl1        -3.8785   -0.7294   -0.1732 Cl        1 <0>        -0.0192
     20 H1          4.1408   -5.5624    0.6095 H         1 <0>         0.1392
     21 H2          1.9483   -4.4655    0.8252 H         1 <0>         0.1335
     22 H3          3.4962   -1.0019   -1.1491 H         1 <0>         0.1479
     23 H4          6.0076   -4.3838   -0.4772 H         1 <0>         0.1365
     24 H5          0.5257   -2.5641   -0.0566 H         1 <0>         0.4252
     25 H6         -1.2369   -1.7329   -0.1396 H         1 <0>         0.1485
     26 H7         -1.2582    3.1431    0.4770 H         1 <0>         0.1906
     27 H8          3.2326    1.9150    0.5895 H         1 <0>         0.2069
@<TRIPOS>BOND
     1    1    6 ar
     2    1    2 ar
     3    1   20 1
     4    2    3 ar
     5    2   21 1
     6    3    4 ar
     7    3    8 1
     8    4    5 ar
     9    4   22 1
    10    5    6 ar
    11    5    7 1
    12    6   23 1
    13    8    9 1
    14    8   24 1
    15    9   18 ar
    16    9   10 ar
    17   10   15 ar
    18   10   11 ar
    19   11   12 ar
    20   11   25 1
    21   12   13 ar
    22   12   19 1
    23   13   14 ar
    24   14   15 ar
    25   14   26 1
    26   15   16 ar
    27   16   17 ar
    28   17   18 ar
    29   17   27 1
@<TRIPOS>MOLECULE
ZINC03815237
   48    50     0     0     0
SMALL
USER_CHARGES

@<TRIPOS>ATOM
      1 C1          6.4419   -4.3614    2.5405 C.3       1 <0>        -0.0566
      2 C2          5.4409   -5.4341    4.4667 C.3       1 <0>        -0.0445
      3 C3          4.0353   -4.5840    2.6878 C.3       1 <0>        -0.0370
      4 C4          3.8525   -4.5760    1.1688 C.3       1 <0>         0.0783
      5 N1          2.5612   -3.9694    0.8356 N.pl3     1 <0>        -0.6023
      6 C5          1.3641   -4.8071    0.7293 C.3       1 <0>         0.0693
      7 C6          2.4720   -2.6003    0.6204 C.ar      1 <0>         0.4173
      8 C7          1.2299   -2.0292    0.4098 C.ar      1 <0>        -0.1735
      9 C8          1.1580   -0.6486    0.1946 C.ar      1 <0>         0.3080
     10 C9          2.3673    0.0969    0.2036 C.ar      1 <0>        -0.2531
     11 C10         3.5750   -0.5685    0.4254 C.ar      1 <0>         0.2636
     12 C11         2.2915    1.4922   -0.0143 C.ar      1 <0>         0.5179
     13 N2          1.0937    2.0291   -0.2162 N.ar      1 <0>        -0.5724
     14 C12        -0.0056    1.2930   -0.2154 C.ar      1 <0>         0.4389
     15 N3          0.0030   -0.0056   -0.0184 N.ar      1 <0>        -0.5512
     16 N4          3.4280    2.2722   -0.0180 N.pl3     1 <0>        -0.5980
     17 C13         3.3212    3.6627   -0.1146 C.ar      1 <0>         0.1093
     18 C14         2.2594    4.3230    0.4911 C.ar      1 <0>        -0.0808
     19 C15         2.1566    5.6966    0.3945 C.ar      1 <0>        -0.0905
     20 C16         3.1093    6.4157   -0.3040 C.ar      1 <0>        -0.0759
     21 C17         4.1680    5.7616   -0.9086 C.ar      1 <0>        -0.0762
     22 C18         4.2791    4.3874   -0.8114 C.ar      1 <0>        -0.0985
     23 Br1         5.4681    6.7494   -1.8625 Br        1 <0>        -0.0196
     24 H1          6.3877   -3.3771    3.0055 H         1 <0>         0.1254
     25 H2          7.3885   -4.8348    2.8011 H         1 <0>         0.1381
     26 H3          6.3743   -4.2560    1.4577 H         1 <0>         0.1169
     27 H4          4.6456   -6.1086    4.7841 H         1 <0>         0.1281
     28 H5          6.4088   -5.8847    4.6864 H         1 <0>         0.1329
     29 H6          5.3505   -4.4886    5.0014 H         1 <0>         0.1259
     30 H7          4.0070   -3.5608    3.0626 H         1 <0>         0.1309
     31 H8          3.2332   -5.1616    3.1473 H         1 <0>         0.1483
     32 H9          3.8808   -5.5991    0.7940 H         1 <0>         0.1340
     33 H10         4.6546   -3.9984    0.7093 H         1 <0>         0.0905
     34 H11         1.2571   -5.1596   -0.2965 H         1 <0>         0.0892
     35 H12         1.4581   -5.6618    1.3992 H         1 <0>         0.0966
     36 H13         0.4863   -4.2233    1.0063 H         1 <0>         0.0996
     37 H14         0.3360   -2.6352    0.4111 H         1 <0>         0.1975
     38 H15         4.5024   -0.0151    0.4350 H         1 <0>         0.1989
     39 H16        -0.9530    1.7815   -0.3890 H         1 <0>         0.2278
     40 H17         4.3019    1.8563    0.0464 H         1 <0>         0.4239
     41 H18         1.5149    3.7624    1.0368 H         1 <0>         0.1413
     42 H19         1.3313    6.2102    0.8653 H         1 <0>         0.1475
     43 H20         3.0268    7.4900   -0.3774 H         1 <0>         0.1463
     44 H21         5.1079    3.8775   -1.2799 H         1 <0>         0.1393
     45 N5          5.3316   -5.2176    3.0087 N.4       1 <0>        -0.3961
     46 H22         5.3864   -6.1252    2.5317 H         1 <0>         0.4389
     47 N6          3.6583   -1.9074    0.6355 N.ar      1 <0>        -0.5521
     48 H23         4.5576   -2.3758    0.7966 H         1 <0>         0.4580
@<TRIPOS>BOND
     1    1   24 1
     2    1   25 1
     3    1   26 1
     4    1   45 1
     5    2   27 1
     6    2   28 1
     7    2   29 1
     8    2   45 1
     9    3    4 1
    10    3   30 1
    11    3   31 1
    12    3   45 1
    13    4    5 1
    14    4   32 1
    15    4   33 1
    16    5    6 1
    17    5    7 1
    18    6   34 1
    19    6   35 1
    20    6   36 1
    21    7    8 ar
    22    7   47 ar
    23    8    9 ar
    24    8   37 1
    25    9   15 ar
    26    9   10 ar
    27   10   11 ar
    28   10   12 ar
    29   11   38 1
    30   11   47 ar
    31   12   13 ar
    32   12   16 1
    33   13   14 ar
    34   14   15 ar
    35   14   39 1
    36   16   17 1
    37   16   40 1
    38   17   22 ar
    39   17   18 ar
    40   18   19 ar
    41   18   41 1
    42   19   20 ar
    43   19   42 1
    44   20   21 ar
    45   20   43 1
    46   21   22 ar
    47   21   23 1
    48   22   44 1
    49   45   46 1
    50   47   48 1
@<TRIPOS>MOLECULE
ZINC03815238
   33    35     0     0     0
SMALL
USER_CHARGES

@<TRIPOS>ATOM
      1 C1         -1.9873    0.9754   -1.4832 C.3       1 <0>        -0.1211
      2 C2         -0.9700    1.7492   -0.6848 C.ar      1 <0>        -0.0627
      3 C3         -0.0172    1.0758    0.0579 C.ar      1 <0>        -0.1124
      4 C4          0.9217    1.7819    0.7869 C.ar      1 <0>        -0.0952
      5 C5          0.9074    3.1631    0.7801 C.ar      1 <0>        -0.1039
      6 C6         -0.0515    3.8425    0.0400 C.ar      1 <0>         0.1147
      7 C7         -0.9935    3.1299   -0.6914 C.ar      1 <0>        -0.1312
      8 N1         -0.0691    5.2402    0.0313 N.pl3     1 <0>        -0.6045
      9 C8          1.1117    5.9450    0.1283 C.ar      1 <0>         0.5176
     10 C9          1.1105    7.3549    0.2380 C.ar      1 <0>        -0.2614
     11 C10        -0.0648    8.1096    0.2659 C.ar      1 <0>         0.2646
     12 C11         1.1494   10.0763    0.4673 C.ar      1 <0>         0.4422
     13 C12         2.3634    9.4142    0.4533 C.ar      1 <0>        -0.1914
     14 C13         2.3618    8.0193    0.3391 C.ar      1 <0>         0.3043
     15 N2          3.4849    7.2909    0.3167 N.ar      1 <0>        -0.5577
     16 C14         3.4244    5.9834    0.2078 C.ar      1 <0>         0.4274
     17 N3          2.2834    5.3200    0.1159 N.ar      1 <0>        -0.5790
     18 N4          1.1331   11.4605    0.5800 N.pl3     1 <0>        -0.8280
     19 H1         -2.8656    0.7859   -0.8662 H         1 <0>         0.0772
     20 H2         -2.2773    1.5540   -2.3603 H         1 <0>         0.0693
     21 H3         -1.5546    0.0266   -1.8006 H         1 <0>         0.0744
     22 H4         -0.0039   -0.0041    0.0648 H         1 <0>         0.1318
     23 H5          1.6673    1.2530    1.3619 H         1 <0>         0.1345
     24 H6          1.6409    3.7141    1.3501 H         1 <0>         0.1375
     25 H7         -1.7402    3.6551   -1.2683 H         1 <0>         0.1281
     26 H8         -0.9121    5.7142   -0.0430 H         1 <0>         0.4227
     27 H9         -1.0238    7.6181    0.1933 H         1 <0>         0.1969
     28 H10         3.2916    9.9611    0.5290 H         1 <0>         0.1923
     29 H11         4.3482    5.4242    0.1922 H         1 <0>         0.2214
     30 H12         1.9670   11.9514    0.6477 H         1 <0>         0.4389
     31 H13         0.2879   11.9363    0.5910 H         1 <0>         0.4195
     32 N5         -0.0768    9.4626    0.3761 N.ar      1 <0>        -0.5405
     33 H14        -0.9530    9.9975    0.3904 H         1 <0>         0.4738
@<TRIPOS>BOND
     1    1    2 1
     2    1   19 1
     3    1   20 1
     4    1   21 1
     5    2    7 ar
     6    2    3 ar
     7    3    4 ar
     8    3   22 1
     9    4    5 ar
    10    4   23 1
    11    5    6 ar
    12    5   24 1
    13    6    7 ar
    14    6    8 1
    15    7   25 1
    16    8    9 1
    17    8   26 1
    18    9   17 ar
    19    9   10 ar
    20   10   14 ar
    21   10   11 ar
    22   11   27 1
    23   11   32 ar
    24   12   13 ar
    25   12   18 1
    26   12   32 ar
    27   13   14 ar
    28   13   28 1
    29   14   15 ar
    30   15   16 ar
    31   16   17 ar
    32   16   29 1
    33   18   30 1
    34   18   31 1
    35   32   33 1
@<TRIPOS>MOLECULE
ZINC03815239
   47    50     0     0     0
SMALL
USER_CHARGES

@<TRIPOS>ATOM
      1 C1          0.3767    0.9992    0.3418 C.3       1 <0>        -0.0420
      2 C2          1.3678    3.1979    0.5570 C.3       1 <0>        -0.0494
      3 C3         -0.6607    2.9052   -0.7322 C.3       1 <0>        -0.0301
      4 C4         -1.1260    4.3430   -0.4929 C.3       1 <0>         0.0942
      5 N1         -1.8994    4.8047   -1.6482 N.pl3     1 <0>        -0.5040
      6 C5         -1.3924    5.5267   -2.6970 C.2       1 <0>         0.0487
      7 C6         -2.3593    5.7864   -3.5886 C.2       1 <0>        -0.1709
      8 C7         -3.5955    5.1906   -3.0684 C.ar      1 <0>        -0.1161
      9 C8         -3.2469    4.5826   -1.8390 C.ar      1 <0>         0.1546
     10 C9         -4.2062    3.9260   -1.0910 C.ar      1 <0>        -0.1477
     11 C10        -5.5224    3.8642   -1.5525 C.ar      1 <0>         0.2109
     12 C11        -5.8702    4.4751   -2.7867 C.ar      1 <0>        -0.2040
     13 C12        -4.8997    5.1356   -3.5387 C.ar      1 <0>        -0.0060
     14 C13        -7.2181    4.3900   -3.2186 C.ar      1 <0>         0.4823
     15 N2         -8.0837    3.7446   -2.4489 N.ar      1 <0>        -0.5891
     16 C14        -7.7132    3.1896   -1.3052 C.ar      1 <0>         0.3627
     17 N3         -6.4834    3.2354   -0.8537 N.ar      1 <0>        -0.5595
     18 N4         -7.6182    4.9637   -4.4074 N.pl3     1 <0>        -0.6331
     19 C15        -8.9713    4.9739   -4.7579 C.ar      1 <0>         0.1493
     20 C16        -9.9435    5.1235   -3.7766 C.ar      1 <0>        -0.0908
     21 C17       -11.2794    5.1338   -4.1257 C.ar      1 <0>        -0.0927
     22 C18       -11.6507    4.9954   -5.4507 C.ar      1 <0>        -0.0982
     23 C19       -10.6855    4.8467   -6.4307 C.ar      1 <0>        -0.0725
     24 C20        -9.3465    4.8405   -6.0882 C.ar      1 <0>        -0.1155
     25 Br1       -11.1985    4.6585   -8.2411 Br        1 <0>        -0.0388
     26 H1          0.9522    0.6829    1.2117 H         1 <0>         0.1267
     27 H2         -0.5698    0.4591    0.3164 H         1 <0>         0.1235
     28 H3          0.9418    0.7850   -0.5653 H         1 <0>         0.1243
     29 H4          1.9992    3.0074   -0.3108 H         1 <0>         0.1260
     30 H5          1.1450    4.2631    0.6175 H         1 <0>         0.1213
     31 H6          1.8889    2.8837    1.4614 H         1 <0>         0.1274
     32 H7         -0.0366    2.8692   -1.6251 H         1 <0>         0.1383
     33 H8         -1.5288    2.2605   -0.8695 H         1 <0>         0.1354
     34 H9         -1.7501    4.3790    0.4000 H         1 <0>         0.1069
     35 H10        -0.2579    4.9877   -0.3556 H         1 <0>         0.1126
     36 H11        -0.3628    5.8384   -2.7928 H         1 <0>         0.1770
     37 H12        -2.2501    6.3346   -4.5127 H         1 <0>         0.1593
     38 H13        -3.9386    3.4628   -0.1528 H         1 <0>         0.1324
     39 H14        -5.1608    5.6012   -4.4775 H         1 <0>         0.1343
     40 H15        -8.4590    2.6757   -0.7168 H         1 <0>         0.1995
     41 H16        -6.9606    5.3599   -5.0002 H         1 <0>         0.4225
     42 H17        -9.6545    5.2313   -2.7415 H         1 <0>         0.1403
     43 H18       -12.0352    5.2504   -3.3631 H         1 <0>         0.1390
     44 H19       -12.6963    5.0038   -5.7209 H         1 <0>         0.1374
     45 H20        -8.5931    4.7282   -6.8539 H         1 <0>         0.1352
     46 N5          0.0992    2.4470    0.4499 N.4       1 <0>        -0.3950
     47 H21        -0.4613    2.6171    1.2931 H         1 <0>         0.4333
@<TRIPOS>BOND
     1    1   26 1
     2    1   27 1
     3    1   28 1
     4    1   46 1
     5    2   29 1
     6    2   30 1
     7    2   31 1
     8    2   46 1
     9    3    4 1
    10    3   32 1
    11    3   33 1
    12    3   46 1
    13    4    5 1
    14    4   34 1
    15    4   35 1
    16    5    9 1
    17    5    6 1
    18    6    7 2
    19    6   36 1
    20    7    8 1
    21    7   37 1
    22    8   13 ar
    23    8    9 ar
    24    9   10 ar
    25   10   11 ar
    26   10   38 1
    27   11   17 ar
    28   11   12 ar
    29   12   13 ar
    30   12   14 ar
    31   13   39 1
    32   14   15 ar
    33   14   18 1
    34   15   16 ar
    35   16   17 ar
    36   16   40 1
    37   18   19 1
    38   18   41 1
    39   19   24 ar
    40   19   20 ar
    41   20   21 ar
    42   20   42 1
    43   21   22 ar
    44   21   43 1
    45   22   23 ar
    46   22   44 1
    47   23   24 ar
    48   23   25 1
    49   24   45 1
    50   46   47 1
@<TRIPOS>MOLECULE
ZINC03815240
   63    66     0     0     0
SMALL
USER_CHARGES

@<TRIPOS>ATOM
      1 C1          4.3966   -4.7837   -2.5468 C.3       1 <0>        -0.1870
      2 C2          2.8964   -4.6021   -2.7861 C.3       1 <0>        -0.0162
      3 C3          2.4461   -6.8910   -2.1372 C.3       1 <0>        -0.0118
      4 C4          1.8425   -7.2999   -3.4823 C.3       1 <0>        -0.1890
      5 C5          2.4154   -5.1324   -0.4731 C.3       1 <0>        -0.0017
      6 C6          1.8626   -3.7372   -0.1755 C.3       1 <0>         0.0258
      7 O1          0.4386   -3.7538   -0.2937 O.3       1 <0>        -0.3284
      8 C7         -0.2140   -2.5840   -0.0593 C.ar      1 <0>         0.0962
      9 C8         -1.5967   -2.5300   -0.1569 C.ar      1 <0>        -0.1190
     10 C9         -2.2601   -1.3423    0.0800 C.ar      1 <0>        -0.0693
     11 C10        -1.5427   -0.2019    0.4166 C.ar      1 <0>         0.1456
     12 C11        -0.1586   -0.2569    0.5145 C.ar      1 <0>        -0.1051
     13 C12         0.5033   -1.4453    0.2768 C.ar      1 <0>        -0.1797
     14 N1         -2.2146    1.0029    0.6565 N.pl3     1 <0>        -0.6299
     15 C13        -3.4618    0.9918    1.2505 C.ar      1 <0>         0.6044
     16 N2         -3.9572   -0.1650    1.6772 N.ar      1 <0>        -0.5742
     17 C14        -5.1437   -0.2299    2.2512 C.ar      1 <0>         0.2632
     18 C15        -5.8809    0.9543    2.4052 C.ar      1 <0>        -0.2686
     19 C16        -7.1573    0.9487    3.0126 C.2       1 <0>         0.0223
     20 C17        -7.8369    2.1304    3.1401 C.2       1 <0>        -0.1517
     21 C18        -7.2276    3.3671    2.6461 C.2       1 <0>         0.5544
     22 O2         -7.8250    4.4230    2.7559 O.2       1 <0>        -0.4939
     23 N3         -6.0096    3.3430    2.0714 N.am      1 <0>        -0.5055
     24 C19        -5.3213    2.1634    1.9394 C.ar      1 <0>         0.4667
     25 N4         -4.1173    2.1350    1.3785 N.ar      1 <0>        -0.5922
     26 C20        -5.4137    4.5888    1.5828 C.3       1 <0>         0.0688
     27 C21        -9.1768    2.1577    3.7717 C.ar      1 <0>        -0.0161
     28 C22       -10.3226    1.9980    2.9915 C.ar      1 <0>        -0.0058
     29 C23       -11.5685    2.0201    3.5872 C.ar      1 <0>        -0.1054
     30 C24       -11.6824    2.2097    4.9527 C.ar      1 <0>        -0.0846
     31 C25       -10.5507    2.3740    5.7310 C.ar      1 <0>        -0.1053
     32 C26        -9.2987    2.3491    5.1486 C.ar      1 <0>        -0.0060
     33 Cl1        -7.8797    2.5560    6.1271 Cl        1 <0>        -0.0505
     34 Cl2       -10.1822    1.7665    1.2768 Cl        1 <0>        -0.0510
     35 H1          4.9531   -4.1230   -3.2115 H         1 <0>         0.1068
     36 H2          4.6315   -4.5389   -1.5110 H         1 <0>         0.0793
     37 H3          4.6739   -5.8185   -2.7475 H         1 <0>         0.0822
     38 H4          2.6589   -4.8621   -3.8177 H         1 <0>         0.1316
     39 H5          2.6219   -3.5637   -2.6008 H         1 <0>         0.1265
     40 H6          3.5263   -7.0339   -2.1651 H         1 <0>         0.1326
     41 H7          2.0186   -7.5058   -1.3452 H         1 <0>         0.1298
     42 H8          2.0860   -8.3423   -3.6879 H         1 <0>         0.1065
     43 H9          0.7598   -7.1800   -3.4463 H         1 <0>         0.0812
     44 H10         2.2519   -6.6689   -4.2712 H         1 <0>         0.0791
     45 H11         3.4910   -5.1423   -0.2968 H         1 <0>         0.1506
     46 H12         1.9336   -5.8608    0.1791 H         1 <0>         0.1410
     47 H13         2.2779   -3.0226   -0.8861 H         1 <0>         0.0853
     48 H14         2.1397   -3.4450    0.8374 H         1 <0>         0.1080
     49 H15        -2.1544   -3.4170   -0.4187 H         1 <0>         0.1368
     50 H16        -3.3362   -1.2993   -0.0007 H         1 <0>         0.1474
     51 H17         0.4000    0.6295    0.7766 H         1 <0>         0.1342
     52 H18         1.5798   -1.4882    0.3529 H         1 <0>         0.1308
     53 H19        -1.8044    1.8453    0.4058 H         1 <0>         0.4284
     54 H20        -5.5388   -1.1742    2.5955 H         1 <0>         0.1893
     55 H21        -7.5900    0.0261    3.3703 H         1 <0>         0.1521
     56 H22        -5.7018    4.7463    0.5434 H         1 <0>         0.0759
     57 H23        -5.7679    5.4230    2.1883 H         1 <0>         0.0941
     58 H24        -4.3278    4.5242    1.6530 H         1 <0>         0.0949
     59 H25       -12.4560    1.8924    2.9851 H         1 <0>         0.1450
     60 H26       -12.6591    2.2300    5.4131 H         1 <0>         0.1471
     61 H27       -10.6465    2.5224    6.7965 H         1 <0>         0.1451
     62 N5          2.1179   -5.4728   -1.8803 N.4       1 <0>        -0.3969
     63 H28         1.1169   -5.3253   -2.0547 H         1 <0>         0.4358
@<TRIPOS>BOND
     1    1    2 1
     2    1   35 1
     3    1   36 1
     4    1   37 1
     5    2   38 1
     6    2   39 1
     7    2   62 1
     8    3    4 1
     9    3   40 1
    10    3   41 1
    11    3   62 1
    12    4   42 1
    13    4   43 1
    14    4   44 1
    15    5    6 1
    16    5   45 1
    17    5   46 1
    18    5   62 1
    19    6    7 1
    20    6   47 1
    21    6   48 1
    22    7    8 1
    23    8   13 ar
    24    8    9 ar
    25    9   10 ar
    26    9   49 1
    27   10   11 ar
    28   10   50 1
    29   11   12 ar
    30   11   14 1
    31   12   13 ar
    32   12   51 1
    33   13   52 1
    34   14   15 1
    35   14   53 1
    36   15   25 ar
    37   15   16 ar
    38   16   17 ar
    39   17   18 ar
    40   17   54 1
    41   18   24 ar
    42   18   19 1
    43   19   20 2
    44   19   55 1
    45   20   21 1
    46   20   27 1
    47   21   22 2
    48   21   23 am
    49   23   24 1
    50   23   26 1
    51   24   25 ar
    52   26   56 1
    53   26   57 1
    54   26   58 1
    55   27   32 ar
    56   27   28 ar
    57   28   29 ar
    58   28   34 1
    59   29   30 ar
    60   29   59 1
    61   30   31 ar
    62   30   60 1
    63   31   32 ar
    64   31   61 1
    65   32   33 1
    66   62   63 1
@<TRIPOS>MOLECULE
ZINC03815241
   30    33     0     0     0
SMALL
USER_CHARGES

@<TRIPOS>ATOM
      1 C1          5.2369   -2.7064    0.2288 C.ar      1 <0>        -0.0920
      2 C2          3.9987   -2.1063    0.3499 C.ar      1 <0>        -0.1303
      3 C3          3.7989   -0.8232   -0.1432 C.ar      1 <0>         0.1543
      4 C4          4.8444   -0.1494   -0.7618 C.ar      1 <0>        -0.0828
      5 C5          6.0819   -0.7533   -0.8756 C.ar      1 <0>        -0.0714
      6 C6          6.2772   -2.0317   -0.3826 C.ar      1 <0>        -0.1041
      7 Br1         7.5080    0.1650   -1.7115 Br        1 <0>        -0.0419
      8 N1          2.5469   -0.2136   -0.0224 N.pl3     1 <0>        -0.6346
      9 C7          2.4583    1.1530    0.1448 C.ar      1 <0>         0.4752
     10 C8          1.2016    1.8048    0.1523 C.ar      1 <0>        -0.1703
     11 C9          0.0019    1.1044   -0.0085 C.ar      1 <0>        -0.0068
     12 C10        -1.1763    1.7924    0.0025 C.ar      1 <0>        -0.1639
     13 C11        -1.2511    3.2010    0.1818 C.ar      1 <0>         0.1152
     14 C12        -0.0406    3.8950    0.3425 C.ar      1 <0>        -0.0419
     15 C13         1.1712    3.2132    0.3289 C.ar      1 <0>         0.1870
     16 N2          2.3418    3.8619    0.4809 N.ar      1 <0>        -0.5387
     17 C14         3.4748    3.2045    0.4652 C.ar      1 <0>         0.3537
     18 N3          3.5483    1.8920    0.3039 N.ar      1 <0>        -0.5788
     19 N4         -2.5078    3.6958    0.1690 N.2       1 <0>        -0.5115
     20 C15        -3.5565    2.9428   -0.0063 C.2       1 <0>         0.1536
     21 S1         -2.8880    1.3486   -0.1649 S.3       1 <0>         0.0207
     22 H1          5.3923   -3.7042    0.6118 H         1 <0>         0.1381
     23 H2          3.1867   -2.6340    0.8280 H         1 <0>         0.1325
     24 H3          4.6910    0.8466   -1.1502 H         1 <0>         0.1488
     25 H4          7.2443   -2.5034   -0.4760 H         1 <0>         0.1355
     26 H5          1.7403   -0.7514   -0.0562 H         1 <0>         0.4234
     27 H6          0.0082    0.0330   -0.1442 H         1 <0>         0.1394
     28 H7         -0.0512    4.9664    0.4780 H         1 <0>         0.1542
     29 H8          4.3929    3.7594    0.5902 H         1 <0>         0.2023
     30 H9         -4.5947    3.2387   -0.0365 H         1 <0>         0.2352
@<TRIPOS>BOND
     1    1    6 ar
     2    1    2 ar
     3    1   22 1
     4    2    3 ar
     5    2   23 1
     6    3    4 ar
     7    3    8 1
     8    4    5 ar
     9    4   24 1
    10    5    6 ar
    11    5    7 1
    12    6   25 1
    13    8    9 1
    14    8   26 1
    15    9   18 ar
    16    9   10 ar
    17   10   15 ar
    18   10   11 ar
    19   11   12 ar
    20   11   27 1
    21   12   21 1
    22   12   13 ar
    23   13   14 ar
    24   13   19 1
    25   14   15 ar
    26   14   28 1
    27   15   16 ar
    28   16   17 ar
    29   17   18 ar
    30   17   29 1
    31   19   20 2
    32   20   21 1
    33   20   30 1
@<TRIPOS>MOLECULE
ZINC03815242
   27    29     0     0     0
SMALL
USER_CHARGES

@<TRIPOS>ATOM
      1 C1         -2.4966    4.2017    0.4275 C.ar      1 <0>        -0.0924
      2 C2         -1.2880    3.5390    0.5183 C.ar      1 <0>        -0.0935
      3 C3         -0.1560    4.0761   -0.0810 C.ar      1 <0>         0.1529
      4 C4         -0.2419    5.2817   -0.7658 C.ar      1 <0>        -0.1146
      5 C5         -1.4548    5.9371   -0.8576 C.ar      1 <0>        -0.0715
      6 C6         -2.5806    5.3988   -0.2591 C.ar      1 <0>        -0.1014
      7 Br1        -1.5751    7.5747   -1.7955 Br        1 <0>        -0.0424
      8 N1          1.0683    3.4080    0.0097 N.pl3     1 <0>        -0.6209
      9 C7          1.1041    2.0282   -0.0029 C.ar      1 <0>         0.4851
     10 C8          2.3208    1.3295    0.2095 C.ar      1 <0>         0.0223
     11 C9          2.2851   -0.0842    0.1829 C.ar      1 <0>         0.1354
     12 C10         3.4774   -0.7995    0.3910 C.ar      1 <0>        -0.0284
     13 C11         4.6235   -0.0899    0.6116 C.ar      1 <0>        -0.1463
     14 C12         4.5873    1.3058    0.6253 C.ar      1 <0>         0.3251
     15 N2          3.4687    1.9673    0.4293 N.ar      1 <0>        -0.4809
     16 F1          5.7296    1.9929    0.8448 F         1 <0>        -0.1019
     17 N3          1.1163   -0.7002   -0.0395 N.ar      1 <0>        -0.5330
     18 C13         0.0220   -0.0019   -0.2296 C.ar      1 <0>         0.3520
     19 N4          0.0033    1.3215   -0.2141 N.ar      1 <0>        -0.5688
     20 H1         -3.3768    3.7844    0.8937 H         1 <0>         0.1384
     21 H2         -1.2235    2.6038    1.0546 H         1 <0>         0.1403
     22 H3          0.6374    5.7042   -1.2291 H         1 <0>         0.1363
     23 H4         -3.5267    5.9150   -0.3282 H         1 <0>         0.1361
     24 H5          1.8928    3.9139    0.0815 H         1 <0>         0.4333
     25 H6          3.4867   -1.8793    0.3777 H         1 <0>         0.1675
     26 H7          5.5569   -0.6080    0.7753 H         1 <0>         0.1645
     27 H8         -0.9035   -0.5296   -0.4066 H         1 <0>         0.2071
@<TRIPOS>BOND
     1    1    6 ar
     2    1    2 ar
     3    1   20 1
     4    2    3 ar
     5    2   21 1
     6    3    4 ar
     7    3    8 1
     8    4    5 ar
     9    4   22 1
    10    5    6 ar
    11    5    7 1
    12    6   23 1
    13    8    9 1
    14    8   24 1
    15    9   19 ar
    16    9   10 ar
    17   10   15 ar
    18   10   11 ar
    19   11   12 ar
    20   11   17 ar
    21   12   13 ar
    22   12   25 1
    23   13   14 ar
    24   13   26 1
    25   14   15 ar
    26   14   16 1
    27   17   18 ar
    28   18   19 ar
    29   18   27 1
@<TRIPOS>MOLECULE
ZINC03815243
   45    47     0     0     0
SMALL
USER_CHARGES

@<TRIPOS>ATOM
      1 C1          0.8398   -8.5067    1.1044 C.3       1 <0>        -0.0439
      2 C2         -0.3605   -6.7321    2.2324 C.3       1 <0>        -0.0527
      3 C3          1.7226   -6.2521    1.0953 C.3       1 <0>        -0.0191
      4 C4          1.3484   -4.7911    0.8377 C.3       1 <0>         0.0893
      5 N1          2.5612   -3.9694    0.8356 N.pl3     1 <0>        -0.7198
      6 C5          2.4720   -2.6003    0.6204 C.ar      1 <0>         0.4312
      7 C6          1.2299   -2.0292    0.4098 C.ar      1 <0>        -0.1915
      8 C7          1.1580   -0.6486    0.1946 C.ar      1 <0>         0.3101
      9 C8          2.3673    0.0969    0.2036 C.ar      1 <0>        -0.2605
     10 C9          3.5750   -0.5685    0.4254 C.ar      1 <0>         0.2767
     11 C10         2.2915    1.4922   -0.0143 C.ar      1 <0>         0.5202
     12 N2          1.0937    2.0291   -0.2162 N.ar      1 <0>        -0.5737
     13 C11        -0.0056    1.2930   -0.2154 C.ar      1 <0>         0.4375
     14 N3          0.0030   -0.0056   -0.0184 N.ar      1 <0>        -0.5577
     15 N4          3.4280    2.2722   -0.0180 N.pl3     1 <0>        -0.5968
     16 C12         3.3212    3.6627   -0.1146 C.ar      1 <0>         0.1094
     17 C13         2.2594    4.3230    0.4911 C.ar      1 <0>        -0.0807
     18 C14         2.1566    5.6966    0.3945 C.ar      1 <0>        -0.0911
     19 C15         3.1093    6.4157   -0.3040 C.ar      1 <0>        -0.0761
     20 C16         4.1680    5.7616   -0.9086 C.ar      1 <0>        -0.0762
     21 C17         4.2791    4.3874   -0.8114 C.ar      1 <0>        -0.0977
     22 Br1         5.4681    6.7494   -1.8625 Br        1 <0>        -0.0197
     23 H1          1.4215   -8.7399    1.9962 H         1 <0>         0.1276
     24 H2         -0.0786   -9.0938    1.1058 H         1 <0>         0.1324
     25 H3          1.4239   -8.7480    0.2162 H         1 <0>         0.1258
     26 H4         -0.6491   -5.6832    2.1643 H         1 <0>         0.1221
     27 H5         -1.2534   -7.3568    2.2099 H         1 <0>         0.1333
     28 H6          0.1777   -6.9010    3.1650 H         1 <0>         0.1285
     29 H7          2.3949   -6.5988    0.3105 H         1 <0>         0.1417
     30 H8          2.2193   -6.3349    2.0620 H         1 <0>         0.1434
     31 H9          0.6760   -4.4445    1.6225 H         1 <0>         0.1058
     32 H10         0.8517   -4.7083   -0.1290 H         1 <0>         0.1060
     33 H11         3.4266   -4.3816    0.9845 H         1 <0>         0.4225
     34 H12         0.3360   -2.6352    0.4111 H         1 <0>         0.1871
     35 H13         4.5024   -0.0151    0.4350 H         1 <0>         0.2016
     36 H14        -0.9530    1.7815   -0.3890 H         1 <0>         0.2261
     37 H15         4.3019    1.8563    0.0464 H         1 <0>         0.4258
     38 H16         1.5149    3.7624    1.0368 H         1 <0>         0.1411
     39 H17         1.3313    6.2102    0.8653 H         1 <0>         0.1471
     40 H18         3.0268    7.4900   -0.3774 H         1 <0>         0.1460
     41 H19         5.1079    3.8775   -1.2799 H         1 <0>         0.1400
     42 N5          0.4919   -7.0705    1.0733 N.4       1 <0>        -0.3936
     43 H20        -0.0257   -6.8714    0.2092 H         1 <0>         0.4364
     44 N6          3.6583   -1.9074    0.6355 N.ar      1 <0>        -0.5396
     45 H21         4.5576   -2.3758    0.7966 H         1 <0>         0.4756
@<TRIPOS>BOND
     1    1   23 1
     2    1   24 1
     3    1   25 1
     4    1   42 1
     5    2   26 1
     6    2   27 1
     7    2   28 1
     8    2   42 1
     9    3    4 1
    10    3   29 1
    11    3   30 1
    12    3   42 1
    13    4    5 1
    14    4   31 1
    15    4   32 1
    16    5    6 1
    17    5   33 1
    18    6    7 ar
    19    6   44 ar
    20    7    8 ar
    21    7   34 1
    22    8   14 ar
    23    8    9 ar
    24    9   10 ar
    25    9   11 ar
    26   10   35 1
    27   10   44 ar
    28   11   12 ar
    29   11   15 1
    30   12   13 ar
    31   13   14 ar
    32   13   36 1
    33   15   16 1
    34   15   37 1
    35   16   21 ar
    36   16   17 ar
    37   17   18 ar
    38   17   38 1
    39   18   19 ar
    40   18   39 1
    41   19   20 ar
    42   19   40 1
    43   20   21 ar
    44   20   22 1
    45   21   41 1
    46   42   43 1
    47   44   45 1
@<TRIPOS>MOLECULE
ZINC03815244
   36    39     0     0     0
SMALL
USER_CHARGES

@<TRIPOS>ATOM
      1 C1          3.5643   -0.8448    0.3440 C.ar      1 <0>        -0.0923
      2 C2          2.3659   -0.1687    0.4645 C.ar      1 <0>        -0.0967
      3 C3          1.2163   -0.6859   -0.1187 C.ar      1 <0>         0.1655
      4 C4          1.2746   -1.8851   -0.8174 C.ar      1 <0>        -0.1237
      5 C5          2.4774   -2.5543   -0.9385 C.ar      1 <0>        -0.0699
      6 C6          3.6208   -2.0357   -0.3560 C.ar      1 <0>        -0.1084
      7 Br1         2.5598   -4.1838   -1.8943 Br        1 <0>        -0.0471
      8 N1          0.0021   -0.0041    0.0020 N.pl3     1 <0>        -0.6458
      9 C7         -0.0166    1.3800    0.0108 C.ar      1 <0>         0.4796
     10 C8         -1.2084    2.0812    0.2525 C.ar      1 <0>        -0.2421
     11 C9         -2.5872    1.7147    0.5437 C.2       1 <0>        -0.1346
     12 C10        -3.2810    2.8603    0.6893 C.2       1 <0>         0.0743
     13 N2         -2.4420    3.9278    0.5170 N.pl3     1 <0>        -0.5613
     14 H1         -2.7084    4.8589    0.5729 H         1 <0>         0.4221
     15 C11        -1.1720    3.4895    0.2547 C.ar      1 <0>         0.3449
     16 N3         -0.0107    4.0969    0.0175 N.ar      1 <0>        -0.5615
     17 C12         1.0803    3.3980   -0.2087 C.ar      1 <0>         0.3564
     18 N4          1.0927    2.0772   -0.2150 N.ar      1 <0>        -0.5843
     19 C13        -4.7601    2.9114    0.9951 C.3       1 <0>        -0.0548
     20 C14        -5.3688    1.5385    0.6890 C.3       1 <0>        -0.1152
     21 C15        -4.5366    0.4472    1.3684 C.3       1 <0>        -0.1198
     22 C16        -3.1782    0.3339    0.6654 C.3       1 <0>        -0.0539
     23 H2          4.4583   -0.4429    0.7974 H         1 <0>         0.1358
     24 H3          2.3228    0.7616    1.0115 H         1 <0>         0.1403
     25 H4          0.3817   -2.2920   -1.2686 H         1 <0>         0.1332
     26 H5          4.5590   -2.5627   -0.4481 H         1 <0>         0.1336
     27 H6         -0.8275   -0.5008    0.0797 H         1 <0>         0.4208
     28 H7          2.0038    3.9256   -0.3965 H         1 <0>         0.2026
     29 H8         -4.9081    3.1509    2.0481 H         1 <0>         0.0857
     30 H9         -5.2364    3.6698    0.3738 H         1 <0>         0.0814
     31 H10        -5.3722    1.3748   -0.3886 H         1 <0>         0.0702
     32 H11        -6.3913    1.5026    1.0650 H         1 <0>         0.0768
     33 H12        -5.0617   -0.5056    1.3011 H         1 <0>         0.0732
     34 H13        -4.3836    0.7051    2.4163 H         1 <0>         0.0682
     35 H14        -3.3142   -0.0952   -0.3273 H         1 <0>         0.0759
     36 H15        -2.5132   -0.2987    1.2533 H         1 <0>         0.0709
@<TRIPOS>BOND
     1    1    6 ar
     2    1    2 ar
     3    1   23 1
     4    2    3 ar
     5    2   24 1
     6    3    4 ar
     7    3    8 1
     8    4    5 ar
     9    4   25 1
    10    5    6 ar
    11    5    7 1
    12    6   26 1
    13    8    9 1
    14    8   27 1
    15    9   18 ar
    16    9   10 ar
    17   10   15 ar
    18   10   11 1
    19   11   22 1
    20   11   12 2
    21   12   13 1
    22   12   19 1
    23   13   14 1
    24   13   15 1
    25   15   16 ar
    26   16   17 ar
    27   17   18 ar
    28   17   28 1
    29   19   20 1
    30   19   29 1
    31   19   30 1
    32   20   21 1
    33   20   31 1
    34   20   32 1
    35   21   22 1
    36   21   33 1
    37   21   34 1
    38   22   35 1
    39   22   36 1
@<TRIPOS>MOLECULE
ZINC03815245
   36    39     0     0     0
SMALL
USER_CHARGES

@<TRIPOS>ATOM
      1 C1         -0.9754    1.7510   -0.6883 C.ar      1 <0>        -0.0960
      2 C2         -0.0161    1.0757    0.0444 C.ar      1 <0>        -0.0899
      3 C3          0.9221    1.7801    0.7762 C.ar      1 <0>        -0.1613
      4 C4          0.9112    3.1613    0.7685 C.ar      1 <0>        -0.0672
      5 C5         -0.0510    3.8425    0.0341 C.ar      1 <0>         0.1573
      6 C6         -0.9958    3.1316   -0.6954 C.ar      1 <0>        -0.1161
      7 N1         -0.0691    5.2400    0.0295 N.pl3     1 <0>        -0.6438
      8 C7          1.1191    5.9493    0.1257 C.ar      1 <0>         0.4792
      9 C8          1.1154    7.3337    0.2378 C.ar      1 <0>        -0.2709
     10 C9          2.3140    8.0505    0.3355 C.ar      1 <0>         0.2164
     11 C10         2.1832    9.5164    0.4500 C.ar      1 <0>        -0.0384
     12 C11         3.2259   10.4635    0.5603 C.ar      1 <0>        -0.1295
     13 C12         2.9442   11.8074    0.6600 C.ar      1 <0>         0.2125
     14 C13         1.6298   12.2689    0.6540 C.ar      1 <0>        -0.1464
     15 C14         0.5940   11.3634    0.5468 C.ar      1 <0>        -0.0354
     16 C15         0.8703   10.0143    0.4470 C.ar      1 <0>        -0.1325
     17 S1         -0.1516    8.5705    0.2962 S.3       1 <0>         0.0724
     18 N2          3.9957   12.7252    0.7687 N.pl3     1 <0>        -0.8755
     19 N3          3.4491    7.3160    0.3130 N.ar      1 <0>        -0.5234
     20 C16         3.4150    6.0118    0.2058 C.ar      1 <0>         0.3390
     21 N4          2.2934    5.3198    0.1186 N.ar      1 <0>        -0.5473
     22 C17         1.9615    1.0401    1.5780 C.3       1 <0>         0.5095
     23 F1          1.7746   -0.3379    1.4250 F         1 <0>        -0.1763
     24 F2          3.2375    1.3908    1.1241 F         1 <0>        -0.1727
     25 F3          1.8374    1.3803    2.9293 F         1 <0>        -0.1765
     26 H1         -1.7095    1.1977   -1.2552 H         1 <0>         0.1411
     27 H2         -0.0026   -0.0042    0.0486 H         1 <0>         0.1408
     28 H3          1.6468    3.7109    1.3370 H         1 <0>         0.1472
     29 H4         -1.7455    3.6582   -1.2672 H         1 <0>         0.1359
     30 H5         -0.9125    5.7139   -0.0411 H         1 <0>         0.4251
     31 H6          4.2531   10.1301    0.5672 H         1 <0>         0.1343
     32 H7          1.4232   13.3261    0.7322 H         1 <0>         0.1394
     33 H8         -0.4292   11.7088    0.5414 H         1 <0>         0.1402
     34 H9          3.8062   13.6738    0.8391 H         1 <0>         0.4019
     35 H10         4.9139   12.4124    0.7737 H         1 <0>         0.4017
     36 H11         4.3514    5.4738    0.1931 H         1 <0>         0.2052
@<TRIPOS>BOND
     1    1    6 ar
     2    1    2 ar
     3    1   26 1
     4    2    3 ar
     5    2   27 1
     6    3    4 ar
     7    3   22 1
     8    4    5 ar
     9    4   28 1
    10    5    6 ar
    11    5    7 1
    12    6   29 1
    13    7    8 1
    14    7   30 1
    15    8   21 ar
    16    8    9 ar
    17    9   17 1
    18    9   10 ar
    19   10   11 1
    20   10   19 ar
    21   11   16 ar
    22   11   12 ar
    23   12   13 ar
    24   12   31 1
    25   13   14 ar
    26   13   18 1
    27   14   15 ar
    28   14   32 1
    29   15   16 ar
    30   15   33 1
    31   16   17 1
    32   18   34 1
    33   18   35 1
    34   19   20 ar
    35   20   21 ar
    36   20   36 1
    37   22   23 1
    38   22   24 1
    39   22   25 1
@<TRIPOS>MOLECULE
ZINC03815246
   33    36     0     0     0
SMALL
USER_CHARGES

@<TRIPOS>ATOM
      1 C1         -0.1959    1.2428   -0.0986 C.ar      1 <0>        -0.0903
      2 C2          0.9776    1.9330   -0.3319 C.ar      1 <0>        -0.1288
      3 C3          1.1690    3.1867    0.2347 C.ar      1 <0>         0.1557
      4 C4          0.1787    3.7427    1.0347 C.ar      1 <0>        -0.0854
      5 C5         -0.9929    3.0473    1.2642 C.ar      1 <0>        -0.0706
      6 C6         -1.1823    1.8007    0.6933 C.ar      1 <0>        -0.1033
      7 Br1        -2.3421    3.8025    2.3530 Br        1 <0>        -0.0410
      8 N1          2.3552    3.8876   -0.0000 N.pl3     1 <0>        -0.6407
      9 C7          2.3357    5.2711   -0.0971 C.ar      1 <0>         0.4879
     10 C8          3.5161    5.9941   -0.2105 C.ar      1 <0>        -0.2738
     11 C9          3.4978    7.3904   -0.3090 C.ar      1 <0>         0.2084
     12 C10         4.8143    8.0478   -0.4249 C.ar      1 <0>        -0.0376
     13 C11         5.0756    9.4315   -0.5376 C.ar      1 <0>        -0.0391
     14 C12         6.3621    9.8939   -0.6384 C.ar      1 <0>        -0.0686
     15 C13         7.4424    9.0230   -0.6334 C.ar      1 <0>        -0.0062
     16 C14         7.2196    7.6650   -0.5240 C.ar      1 <0>        -0.0109
     17 C15         5.9270    7.1905   -0.4221 C.ar      1 <0>        -0.0978
     18 S1          5.2337    5.5636   -0.2698 S.3       1 <0>         0.1288
     19 N2          8.8228    9.5460   -0.7435 N.pl3     1 <0>         0.0249
     20 O1          9.0138   10.7451   -0.8389 O.2       1 <0>        -0.1415
     21 O2          9.7675    8.7773   -0.7386 O.3       1 <0>        -0.1469
     22 N3          2.2770    7.9714   -0.2869 N.ar      1 <0>        -0.5196
     23 C16         1.1844    7.2583   -0.1792 C.ar      1 <0>         0.3483
     24 N4          1.1837    5.9407   -0.0896 N.ar      1 <0>        -0.5376
     25 H1         -0.3449    0.2680   -0.5390 H         1 <0>         0.1392
     26 H2          1.7459    1.4981   -0.9540 H         1 <0>         0.1333
     27 H3          0.3243    4.7175    1.4764 H         1 <0>         0.1442
     28 H4         -2.1009    1.2610    0.8702 H         1 <0>         0.1365
     29 H5          3.1921    3.4065   -0.0950 H         1 <0>         0.4248
     30 H6          4.2536   10.1321   -0.5441 H         1 <0>         0.1618
     31 H7          6.5382   10.9560   -0.7236 H         1 <0>         0.1659
     32 H8          8.0522    6.9771   -0.5183 H         1 <0>         0.1695
     33 H9          0.2353    7.7734   -0.1668 H         1 <0>         0.2107
@<TRIPOS>BOND
     1    1    6 ar
     2    1    2 ar
     3    1   25 1
     4    2    3 ar
     5    2   26 1
     6    3    4 ar
     7    3    8 1
     8    4    5 ar
     9    4   27 1
    10    5    6 ar
    11    5    7 1
    12    6   28 1
    13    8    9 1
    14    8   29 1
    15    9   24 ar
    16    9   10 ar
    17   10   18 1
    18   10   11 ar
    19   11   12 1
    20   11   22 ar
    21   12   17 ar
    22   12   13 ar
    23   13   14 ar
    24   13   30 1
    25   14   15 ar
    26   14   31 1
    27   15   16 ar
    28   15   19 1
    29   16   17 ar
    30   16   32 1
    31   17   18 1
    32   19   20 2
    33   19   21 1
    34   22   23 ar
    35   23   24 ar
    36   23   33 1
@<TRIPOS>MOLECULE
ZINC03815247
   27    29     0     0     0
SMALL
USER_CHARGES

@<TRIPOS>ATOM
      1 C1         -1.2726   -2.0540    0.2353 C.ar      1 <0>        -0.0917
      2 C2         -1.1335   -0.6986    0.4621 C.ar      1 <0>        -0.1293
      3 C3         -0.1596    0.0218   -0.2175 C.ar      1 <0>         0.1536
      4 C4          0.6684   -0.6228   -1.1277 C.ar      1 <0>        -0.0829
      5 C5          0.5274   -1.9798   -1.3467 C.ar      1 <0>        -0.0713
      6 C6         -0.4442   -2.6942   -0.6675 C.ar      1 <0>        -0.1033
      7 Br1         1.6581   -2.8602   -2.5805 Br        1 <0>        -0.0412
      8 N1         -0.0169    1.3935    0.0097 N.pl3     1 <0>        -0.6339
      9 C7          1.2321    1.9757   -0.0473 C.ar      1 <0>         0.4663
     10 C8          1.3883    3.3785    0.0582 C.ar      1 <0>        -0.1634
     11 C9          0.3108    4.2566    0.2235 C.ar      1 <0>        -0.1214
     12 C10         0.5677    5.5948    0.3145 C.ar      1 <0>         0.0704
     13 N2          1.8004    6.0740    0.2501 N.ar      1 <0>        -0.4515
     14 C11         2.8552    5.3067    0.0961 C.ar      1 <0>         0.1530
     15 C12         2.6975    3.9170   -0.0072 C.ar      1 <0>         0.1317
     16 N3          3.7304    3.0795   -0.1656 N.ar      1 <0>        -0.5259
     17 C13         3.5272    1.7862   -0.2579 C.ar      1 <0>         0.3471
     18 N4          2.3242    1.2373   -0.1972 N.ar      1 <0>        -0.5701
     19 H1         -2.0298   -2.6143    0.7636 H         1 <0>         0.1387
     20 H2         -1.7812   -0.1994    1.1676 H         1 <0>         0.1328
     21 H3          1.4239   -0.0648   -1.6608 H         1 <0>         0.1458
     22 H4         -0.5556   -3.7539   -0.8435 H         1 <0>         0.1361
     23 H5         -0.7968    1.9368    0.2035 H         1 <0>         0.4244
     24 H6         -0.7014    3.8841    0.2774 H         1 <0>         0.1388
     25 H7         -0.2567    6.2807    0.4421 H         1 <0>         0.1641
     26 H8          3.8413    5.7447    0.0496 H         1 <0>         0.1798
     27 H9          4.3823    1.1389   -0.3851 H         1 <0>         0.2035
@<TRIPOS>BOND
     1    1    6 ar
     2    1    2 ar
     3    1   19 1
     4    2    3 ar
     5    2   20 1
     6    3    4 ar
     7    3    8 1
     8    4    5 ar
     9    4   21 1
    10    5    6 ar
    11    5    7 1
    12    6   22 1
    13    8    9 1
    14    8   23 1
    15    9   18 ar
    16    9   10 ar
    17   10   15 ar
    18   10   11 ar
    19   11   12 ar
    20   11   24 1
    21   12   13 ar
    22   12   25 1
    23   13   14 ar
    24   14   15 ar
    25   14   26 1
    26   15   16 ar
    27   16   17 ar
    28   17   18 ar
    29   17   27 1
@<TRIPOS>MOLECULE
ZINC03815248
   32    34     0     0     0
SMALL
USER_CHARGES

@<TRIPOS>ATOM
      1 C1         -0.9826    6.2998    0.0326 C.3       1 <0>         0.0877
      2 N1          0.2324    5.4968    0.1920 N.pl3     1 <0>        -0.7125
      3 C2          0.1548    4.1143    0.1823 C.ar      1 <0>         0.4645
      4 C3         -1.0939    3.5009    0.0194 C.ar      1 <0>        -0.2316
      5 C4         -1.1837    2.1389    0.0022 C.ar      1 <0>         0.0109
      6 C5         -0.0034    1.3955    0.1623 C.ar      1 <0>        -0.2908
      7 C6          1.2299    2.0732    0.3237 C.ar      1 <0>         0.4252
      8 N2          1.2596    3.4061    0.3272 N.ar      1 <0>        -0.5461
      9 N3          2.3453    1.3432    0.4701 N.ar      1 <0>        -0.5478
     10 C7          2.2907    0.0314    0.4624 C.ar      1 <0>         0.3768
     11 N4          1.1626   -0.6417    0.3147 N.ar      1 <0>        -0.5956
     12 C8          0.0000   -0.0172    0.1627 C.ar      1 <0>         0.4854
     13 N5         -1.1716   -0.7287    0.0088 N.pl3     1 <0>        -0.6383
     14 C9         -1.1339   -2.1214   -0.1045 C.ar      1 <0>         0.1567
     15 C10        -2.1749   -2.8895    0.4020 C.ar      1 <0>        -0.1324
     16 C11        -2.1352   -4.2651    0.2883 C.ar      1 <0>        -0.0925
     17 C12        -1.0607   -4.8789   -0.3292 C.ar      1 <0>        -0.1059
     18 C13        -0.0222   -4.1173   -0.8349 C.ar      1 <0>        -0.0711
     19 C14        -0.0585   -2.7397   -0.7288 C.ar      1 <0>        -0.0830
     20 Br1         1.4445   -4.9615   -1.6788 Br        1 <0>        -0.0431
     21 H1         -1.6787    6.0694    0.8391 H         1 <0>         0.0623
     22 H2         -0.7254    7.3585    0.0659 H         1 <0>         0.0861
     23 H3         -1.4476    6.0688   -0.9258 H         1 <0>         0.0624
     24 H4          1.0911    5.9337    0.3043 H         1 <0>         0.4128
     25 H5         -1.9824    4.1038   -0.0971 H         1 <0>         0.1443
     26 H6         -2.1364    1.6469   -0.1271 H         1 <0>         0.1382
     27 H7          3.2096   -0.5232    0.5826 H         1 <0>         0.2032
     28 H8         -2.0218   -0.2625   -0.0207 H         1 <0>         0.4218
     29 H9         -3.0143   -2.4111    0.8847 H         1 <0>         0.1315
     30 H10        -2.9445   -4.8624    0.6816 H         1 <0>         0.1372
     31 H11        -1.0324   -5.9549   -0.4171 H         1 <0>         0.1347
     32 H12         0.7503   -2.1452   -1.1272 H         1 <0>         0.1492
@<TRIPOS>BOND
     1    1    2 1
     2    1   21 1
     3    1   22 1
     4    1   23 1
     5    2    3 1
     6    2   24 1
     7    3    8 ar
     8    3    4 ar
     9    4    5 ar
    10    4   25 1
    11    5    6 ar
    12    5   26 1
    13    6   12 ar
    14    6    7 ar
    15    7    8 ar
    16    7    9 ar
    17    9   10 ar
    18   10   11 ar
    19   10   27 1
    20   11   12 ar
    21   12   13 1
    22   13   14 1
    23   13   28 1
    24   14   19 ar
    25   14   15 ar
    26   15   16 ar
    27   15   29 1
    28   16   17 ar
    29   16   30 1
    30   17   18 ar
    31   17   31 1
    32   18   19 ar
    33   18   20 1
    34   19   32 1
@<TRIPOS>MOLECULE
ZINC03815249
   36    39     0     0     0
SMALL
USER_CHARGES

@<TRIPOS>ATOM
      1 C1          4.8791    1.0198   -0.4205 C.ar      1 <0>        -0.0935
      2 C2          3.7001    1.7338   -0.5109 C.ar      1 <0>        -0.0923
      3 C3          3.5982    2.9827    0.0883 C.ar      1 <0>         0.1684
      4 C4          4.6851    3.5125    0.7721 C.ar      1 <0>        -0.1224
      5 C5          5.8601    2.7913    0.8630 C.ar      1 <0>        -0.0714
      6 C6          5.9577    1.5469    0.2651 C.ar      1 <0>        -0.1094
      7 Br1         7.3386    3.5081    1.7991 Br        1 <0>        -0.0520
      8 N1          2.4064    3.7075   -0.0015 N.pl3     1 <0>        -0.6424
      9 C7          1.1958    3.0481    0.0150 C.ar      1 <0>         0.4801
     10 C8         -0.0194    3.7504   -0.1963 C.ar      1 <0>        -0.2176
     11 C9         -0.0398    5.1230   -0.4272 C.ar      1 <0>         0.0066
     12 C10        -1.2577    5.7631   -0.6289 C.ar      1 <0>        -0.1698
     13 C11        -1.6320    7.1528   -0.8902 C.2       1 <0>         0.0570
     14 N2         -2.9271    7.2026   -0.9992 N.2       1 <0>        -0.2188
     15 N3         -3.4782    5.9290   -0.8292 N.pl3     1 <0>        -0.3713
     16 C12        -2.4672    5.0277   -0.6000 C.ar      1 <0>         0.1854
     17 C13        -2.4495    3.6631   -0.3703 C.ar      1 <0>        -0.1358
     18 C14        -1.2330    3.0119   -0.1673 C.ar      1 <0>         0.2070
     19 N4         -1.1736    1.6865    0.0529 N.ar      1 <0>        -0.5430
     20 C15        -0.0204    1.0947    0.2464 C.ar      1 <0>         0.3416
     21 N5          1.1355    1.7411    0.2283 N.ar      1 <0>        -0.6008
     22 C16        -4.9062    5.6070   -0.8865 C.3       1 <0>         0.0885
     23 C17        -5.2874    5.2638   -2.3035 C.2       1 <0>         0.4511
     24 O1         -4.4519    5.2858   -3.1760 O.co2     1 <0>        -0.6179
     25 H1          4.9585    0.0487   -0.8863 H         1 <0>         0.1352
     26 H2          2.8580    1.3211   -1.0466 H         1 <0>         0.1432
     27 H3          4.6107    4.4855    1.2350 H         1 <0>         0.1341
     28 H4          6.8784    0.9867    0.3339 H         1 <0>         0.1318
     29 H5          2.4310    4.6743   -0.0754 H         1 <0>         0.4216
     30 H6          0.8819    5.6856   -0.4499 H         1 <0>         0.1307
     31 H7         -0.9537    7.9887   -0.9771 H         1 <0>         0.1985
     32 H8         -3.3737    3.1047   -0.3492 H         1 <0>         0.1406
     33 H9         -0.0118    0.0296    0.4247 H         1 <0>         0.1925
     34 H10        -5.1129    4.7555   -0.2382 H         1 <0>         0.0991
     35 H11        -5.4863    6.4673   -0.5524 H         1 <0>         0.1016
     36 O2         -6.5550    4.9335   -2.5962 O.co2     1 <0>        -0.7561
@<TRIPOS>BOND
     1    1    6 ar
     2    1    2 ar
     3    1   25 1
     4    2    3 ar
     5    2   26 1
     6    3    4 ar
     7    3    8 1
     8    4    5 ar
     9    4   27 1
    10    5    6 ar
    11    5    7 1
    12    6   28 1
    13    8    9 1
    14    8   29 1
    15    9   21 ar
    16    9   10 ar
    17   10   18 ar
    18   10   11 ar
    19   11   12 ar
    20   11   30 1
    21   12   16 ar
    22   12   13 1
    23   13   14 2
    24   13   31 1
    25   14   15 1
    26   15   16 1
    27   15   22 1
    28   16   17 ar
    29   17   18 ar
    30   17   32 1
    31   18   19 ar
    32   19   20 ar
    33   20   21 ar
    34   20   33 1
    35   22   23 1
    36   22   34 1
    37   22   35 1
    38   23   24 2
    39   23   36 1
@<TRIPOS>MOLECULE
ZINC03815250
   32    34     0     0     0
SMALL
USER_CHARGES

@<TRIPOS>ATOM
      1 C1          1.4833   -4.5170    0.0948 C.ar      1 <0>        -0.0929
      2 C2          1.7800   -3.1802   -0.0864 C.ar      1 <0>        -0.0912
      3 C3          3.0755   -2.7235    0.1193 C.ar      1 <0>         0.1497
      4 C4          4.0705   -3.6143    0.5016 C.ar      1 <0>        -0.1146
      5 C5          3.7663   -4.9495    0.6858 C.ar      1 <0>        -0.0723
      6 C6          2.4741   -5.4007    0.4804 C.ar      1 <0>        -0.0994
      7 Br1         5.1180   -6.1624    1.2126 Br        1 <0>        -0.0407
      8 N1          3.3787   -1.3712   -0.0638 N.pl3     1 <0>        -0.6318
      9 C7          2.4392   -0.4066    0.2375 C.ar      1 <0>         0.4972
     10 C8          2.6823    0.9579   -0.0469 C.ar      1 <0>        -0.2421
     11 C9          3.8741    1.3902   -0.6419 C.ar      1 <0>         0.0505
     12 C10         4.0607    2.7145   -0.8962 C.ar      1 <0>        -0.1079
     13 C11         3.0748    3.6530   -0.5702 C.ar      1 <0>         0.2993
     14 C12         1.8900    3.2557    0.0171 C.ar      1 <0>        -0.1935
     15 C13         1.6774    1.8997    0.2873 C.ar      1 <0>         0.2628
     16 N2          0.5442    1.4594    0.8563 N.ar      1 <0>        -0.5572
     17 C14         0.3741    0.1809    1.0967 C.ar      1 <0>         0.3799
     18 N3          1.2837   -0.7339    0.8021 N.ar      1 <0>        -0.5923
     19 N4          3.2915    5.0024   -0.8408 N.pl3     1 <0>        -0.8488
     20 N5          5.3219    3.1676   -1.5247 N.pl3     1 <0>         0.0425
     21 O1          6.1413    2.3501   -1.9041 O.2       1 <0>        -0.1572
     22 O2          5.5404    4.3579   -1.6625 O.3       1 <0>        -0.1719
     23 H1          0.4762   -4.8725   -0.0654 H         1 <0>         0.1389
     24 H2          1.0052   -2.4906   -0.3873 H         1 <0>         0.1439
     25 H3          5.0796   -3.2630    0.6583 H         1 <0>         0.1367
     26 H4          2.2394   -6.4455    0.6213 H         1 <0>         0.1365
     27 H5          4.2496   -1.1110   -0.4025 H         1 <0>         0.4243
     28 H6          4.6425    0.6757   -0.8977 H         1 <0>         0.1565
     29 H7          1.1337    3.9856    0.2655 H         1 <0>         0.1611
     30 H8         -0.5498   -0.1393    1.5553 H         1 <0>         0.2053
     31 H9          3.8838    5.2632   -1.5633 H         1 <0>         0.4178
     32 H10         2.8500    5.6812   -0.3067 H         1 <0>         0.4108
@<TRIPOS>BOND
     1    1    6 ar
     2    1    2 ar
     3    1   23 1
     4    2    3 ar
     5    2   24 1
     6    3    4 ar
     7    3    8 1
     8    4    5 ar
     9    4   25 1
    10    5    6 ar
    11    5    7 1
    12    6   26 1
    13    8    9 1
    14    8   27 1
    15    9   18 ar
    16    9   10 ar
    17   10   15 ar
    18   10   11 ar
    19   11   12 ar
    20   11   28 1
    21   12   13 ar
    22   12   20 1
    23   13   14 ar
    24   13   19 1
    25   14   15 ar
    26   14   29 1
    27   15   16 ar
    28   16   17 ar
    29   17   18 ar
    30   17   30 1
    31   19   31 1
    32   19   32 1
    33   20   21 2
    34   20   22 1
@<TRIPOS>MOLECULE
ZINC03815251
   32    34     0     0     0
SMALL
USER_CHARGES

@<TRIPOS>ATOM
      1 C1         -0.1214    1.1793   -0.1107 C.3       1 <0>         0.0236
      2 O1         -0.7814    1.6557    1.0639 O.3       1 <0>        -0.3139
      3 C2         -2.0167    1.1520    1.3248 C.ar      1 <0>         0.1188
      4 C3         -2.5806    0.2169    0.4537 C.ar      1 <0>        -0.1494
      5 C4         -3.8140   -0.3092    0.6928 C.ar      1 <0>        -0.0641
      6 C5         -4.5382    0.0981    1.8216 C.ar      1 <0>         0.1565
      7 C6         -3.9740    1.0503    2.7053 C.ar      1 <0>        -0.1516
      8 C7         -2.7031    1.5731    2.4432 C.ar      1 <0>        -0.1211
      9 C8         -4.7290    1.4423    3.8376 C.ar      1 <0>         0.4612
     10 N1         -5.9254    0.8971    4.0123 N.ar      1 <0>        -0.5741
     11 C9         -6.4121    0.0105    3.1586 C.ar      1 <0>         0.3340
     12 N2         -5.7583   -0.3894    2.0941 N.ar      1 <0>        -0.5373
     13 N3         -4.2329    2.3658    4.7353 N.pl3     1 <0>        -0.6380
     14 C10        -5.0379    2.8261    5.7811 C.ar      1 <0>         0.1498
     15 C11        -6.4092    2.9539    5.5997 C.ar      1 <0>        -0.1112
     16 C12        -7.2024    3.4036    6.6369 C.ar      1 <0>        -0.1003
     17 C13        -6.6316    3.7368    7.8516 C.ar      1 <0>        -0.1346
     18 C14        -5.2661    3.6166    8.0336 C.ar      1 <0>        -0.1001
     19 C15        -4.4678    3.1621    7.0024 C.ar      1 <0>        -0.1476
     20 H1          0.0113    0.0998   -0.0404 H         1 <0>         0.0586
     21 H2          0.8527    1.6601   -0.2004 H         1 <0>         0.1044
     22 H3         -0.7249    1.4149   -0.9873 H         1 <0>         0.0586
     23 H4         -2.0284   -0.0970   -0.4198 H         1 <0>         0.1420
     24 H5         -4.2347   -1.0345    0.0120 H         1 <0>         0.1470
     25 H6         -2.2643    2.2999    3.1108 H         1 <0>         0.1347
     26 H7         -7.3919   -0.4027    3.3472 H         1 <0>         0.1975
     27 H8         -3.3256    2.6954    4.6404 H         1 <0>         0.4212
     28 H9         -6.8550    2.6978    4.6499 H         1 <0>         0.1365
     29 H10        -8.2691    3.4993    6.4978 H         1 <0>         0.1258
     30 H11        -7.2537    4.0921    8.6598 H         1 <0>         0.1233
     31 H12        -4.8234    3.8780    8.9834 H         1 <0>         0.1261
     32 H13        -3.4014    3.0685    7.1452 H         1 <0>         0.1238
@<TRIPOS>BOND
     1    1    2 1
     2    1   20 1
     3    1   21 1
     4    1   22 1
     5    2    3 1
     6    3    8 ar
     7    3    4 ar
     8    4    5 ar
     9    4   23 1
    10    5    6 ar
    11    5   24 1
    12    6   12 ar
    13    6    7 ar
    14    7    8 ar
    15    7    9 ar
    16    8   25 1
    17    9   10 ar
    18    9   13 1
    19   10   11 ar
    20   11   12 ar
    21   11   26 1
    22   13   14 1
    23   13   27 1
    24   14   19 ar
    25   14   15 ar
    26   15   16 ar
    27   15   28 1
    28   16   17 ar
    29   16   29 1
    30   17   18 ar
    31   17   30 1
    32   18   19 ar
    33   18   31 1
    34   19   32 1
@<TRIPOS>MOLECULE
ZINC03815253
   36    38     0     0     0
SMALL
USER_CHARGES

@<TRIPOS>ATOM
      1 C1          3.4473   -0.5592   -6.1732 C.3       1 <0>         0.0222
      2 O1          4.6695   -1.2435   -6.4563 O.3       1 <0>        -0.3037
      3 C2          5.4070   -1.6562   -5.3910 C.ar      1 <0>         0.0959
      4 C3          4.9617   -1.4071   -4.1239 C.ar      1 <0>        -0.1610
      5 C4          5.7205   -1.8311   -3.0264 C.ar      1 <0>        -0.1683
      6 C5          6.9436   -2.5153   -3.2351 C.ar      1 <0>         0.1766
      7 C6          7.3807   -2.7603   -4.5425 C.ar      1 <0>        -0.1042
      8 C7          6.6158   -2.3329   -5.6052 C.ar      1 <0>         0.1380
      9 O2          7.0376   -2.5694   -6.8747 O.3       1 <0>        -0.4818
     10 N1          7.6513   -2.9112   -2.1655 N.ar      1 <0>        -0.5465
     11 C8          7.2157   -2.6676   -0.9525 C.ar      1 <0>         0.3444
     12 N2          6.0829   -2.0274   -0.7095 N.ar      1 <0>        -0.5912
     13 C9          5.3044   -1.5983   -1.6939 C.ar      1 <0>         0.4699
     14 N3          4.1233   -0.9376   -1.4260 N.pl3     1 <0>        -0.6937
     15 C10         3.7112   -0.7071   -0.0392 C.3       1 <0>         0.1701
     16 C11         2.3960    0.0285   -0.0217 C.ar      1 <0>        -0.1169
     17 C12         1.2084   -0.6789   -0.0136 C.ar      1 <0>        -0.0993
     18 C13         0.0021   -0.0041    0.0020 C.ar      1 <0>        -0.1217
     19 C14        -0.0167    1.3781    0.0096 C.ar      1 <0>        -0.1088
     20 C15         1.1709    2.0855    0.0021 C.ar      1 <0>        -0.1216
     21 C16         2.3773    1.4107   -0.0141 C.ar      1 <0>        -0.0992
     22 H1          2.9588   -0.2860   -7.1085 H         1 <0>         0.1060
     23 H2          2.7907   -1.2115   -5.5974 H         1 <0>         0.0564
     24 H3          3.6602    0.3417   -5.5978 H         1 <0>         0.0568
     25 H4          4.0290   -0.8849   -3.9695 H         1 <0>         0.1343
     26 H5          8.3111   -3.2804   -4.7164 H         1 <0>         0.1564
     27 H6          6.7284   -3.4088   -7.2419 H         1 <0>         0.3969
     28 H7          7.8104   -2.9998   -0.1144 H         1 <0>         0.1962
     29 H8          3.5657   -0.6257   -2.1559 H         1 <0>         0.4101
     30 H9          4.4679   -0.1107    0.4703 H         1 <0>         0.0816
     31 H10         3.5990   -1.6641    0.4703 H         1 <0>         0.0815
     32 H11         1.2231   -1.7587   -0.0199 H         1 <0>         0.1244
     33 H12        -0.9258   -0.5567    0.0079 H         1 <0>         0.1255
     34 H13        -0.9592    1.9054    0.0170 H         1 <0>         0.1249
     35 H14         1.1563    3.1654    0.0077 H         1 <0>         0.1256
     36 H15         3.3051    1.9634   -0.0207 H         1 <0>         0.1245
@<TRIPOS>BOND
     1    1    2 1
     2    1   22 1
     3    1   23 1
     4    1   24 1
     5    2    3 1
     6    3    8 ar
     7    3    4 ar
     8    4    5 ar
     9    4   25 1
    10    5   13 ar
    11    5    6 ar
    12    6    7 ar
    13    6   10 ar
    14    7    8 ar
    15    7   26 1
    16    8    9 1
    17    9   27 1
    18   10   11 ar
    19   11   12 ar
    20   11   28 1
    21   12   13 ar
    22   13   14 1
    23   14   15 1
    24   14   29 1
    25   15   16 1
    26   15   30 1
    27   15   31 1
    28   16   21 ar
    29   16   17 ar
    30   17   18 ar
    31   17   32 1
    32   18   19 ar
    33   18   33 1
    34   19   20 ar
    35   19   34 1
    36   20   21 ar
    37   20   35 1
    38   21   36 1
@<TRIPOS>MOLECULE
ZINC03815255
   33    36     0     0     0
SMALL
USER_CHARGES

@<TRIPOS>ATOM
      1 C1         -0.0096    1.0762   -0.0269 C.ar      1 <0>        -0.1317
      2 C2          0.9277    1.7696    0.7168 C.ar      1 <0>        -0.0985
      3 C3          0.9141    3.1504    0.7333 C.ar      1 <0>        -0.1449
      4 C4         -0.0492    3.8427    0.0104 C.ar      1 <0>         0.1464
      5 C5         -0.9924    3.1429   -0.7315 C.ar      1 <0>        -0.1130
      6 C6         -0.9697    1.7622   -0.7481 C.ar      1 <0>        -0.0988
      7 N1         -0.0691    5.2400    0.0290 N.pl3     1 <0>        -0.6407
      8 C7         -1.2760    5.9177   -0.0610 C.ar      1 <0>         0.4920
      9 C8         -1.3097    7.3027   -0.1592 C.ar      1 <0>        -0.2867
     10 C9         -2.5272    7.9877   -0.2506 C.ar      1 <0>         0.2231
     11 C10        -2.4361    9.4577   -0.3496 C.ar      1 <0>        -0.0881
     12 C11        -3.5026   10.3785   -0.4515 C.ar      1 <0>         0.0237
     13 C12        -3.2579   11.7246   -0.5360 C.ar      1 <0>        -0.0522
     14 C13        -1.9629   12.2229   -0.5242 C.ar      1 <0>        -0.0182
     15 C14        -0.8994   11.3483   -0.4256 C.ar      1 <0>        -0.0773
     16 C15        -1.1366    9.9908   -0.3400 C.ar      1 <0>        -0.0504
     17 S1         -0.0764    8.5738   -0.2034 S.3       1 <0>         0.1294
     18 N2         -4.3967   12.6644   -0.6413 N.pl3     1 <0>         0.0266
     19 O1         -4.1923   13.8628   -0.7166 O.2       1 <0>        -0.1490
     20 O2         -5.5380   12.2394   -0.6527 O.3       1 <0>        -0.1519
     21 N3         -3.6419    7.2225   -0.2369 N.ar      1 <0>        -0.5269
     22 C16        -3.5725    5.9186   -0.1433 C.ar      1 <0>         0.3508
     23 N4         -2.4328    5.2565   -0.0610 N.ar      1 <0>        -0.5406
     24 H1          0.0056   -0.0036   -0.0411 H         1 <0>         0.1250
     25 H2          1.6736    1.2307    1.2822 H         1 <0>         0.1279
     26 H3          1.6487    3.6914    1.3113 H         1 <0>         0.1248
     27 H4         -1.7429    3.6780   -1.2943 H         1 <0>         0.1356
     28 H5         -1.7027    1.2175   -1.3246 H         1 <0>         0.1274
     29 H6          0.7611    5.7359    0.1049 H         1 <0>         0.4218
     30 H7         -4.5207   10.0184   -0.4633 H         1 <0>         0.1675
     31 H8         -1.7884   13.2866   -0.5913 H         1 <0>         0.1717
     32 H9          0.1131   11.7240   -0.4157 H         1 <0>         0.1649
     33 H10        -4.4941    5.3554   -0.1369 H         1 <0>         0.2101
@<TRIPOS>BOND
     1    1    6 ar
     2    1    2 ar
     3    1   24 1
     4    2    3 ar
     5    2   25 1
     6    3    4 ar
     7    3   26 1
     8    4    5 ar
     9    4    7 1
    10    5    6 ar
    11    5   27 1
    12    6   28 1
    13    7    8 1
    14    7   29 1
    15    8   23 ar
    16    8    9 ar
    17    9   17 1
    18    9   10 ar
    19   10   11 1
    20   10   21 ar
    21   11   16 ar
    22   11   12 ar
    23   12   13 ar
    24   12   30 1
    25   13   14 ar
    26   13   18 1
    27   14   15 ar
    28   14   31 1
    29   15   16 ar
    30   15   32 1
    31   16   17 1
    32   18   19 2
    33   18   20 1
    34   21   22 ar
    35   22   23 ar
    36   22   33 1
@<TRIPOS>MOLECULE
ZINC03815256
   35    37     0     0     0
SMALL
USER_CHARGES

@<TRIPOS>ATOM
      1 C1         -0.0127    1.0858    0.0080 C.3       1 <0>         0.0243
      2 O1         -0.6816    1.5467    1.1837 O.3       1 <0>        -0.3151
      3 C2         -0.7874    2.8920    1.3462 C.ar      1 <0>         0.1125
      4 C3         -0.2469    3.7495    0.3851 C.ar      1 <0>        -0.1499
      5 C4         -0.3422    5.1016    0.5189 C.ar      1 <0>        -0.0677
      6 C5         -0.9814    5.6473    1.6406 C.ar      1 <0>         0.1572
      7 C6         -1.5267    4.7830    2.6210 C.ar      1 <0>        -0.1585
      8 C7         -1.4220    3.3971    2.4604 C.ar      1 <0>        -0.1161
      9 C8         -2.1671    5.3632    3.7432 C.ar      1 <0>         0.4702
     10 N1         -2.2232    6.6860    3.8179 N.ar      1 <0>        -0.5913
     11 C9         -1.6988    7.4542    2.8762 C.ar      1 <0>         0.3400
     12 N2         -1.0946    6.9728    1.8163 N.ar      1 <0>        -0.5474
     13 N3         -2.7170    4.5739    4.7314 N.pl3     1 <0>        -0.6922
     14 C10        -3.3749    5.1950    5.8837 C.3       1 <0>         0.1702
     15 C11        -3.8863    4.1213    6.8092 C.ar      1 <0>        -0.1165
     16 C12        -5.1650    3.6216    6.6483 C.ar      1 <0>        -0.0988
     17 C13        -5.6322    2.6329    7.4940 C.ar      1 <0>        -0.1218
     18 C14        -4.8246    2.1517    8.5074 C.ar      1 <0>        -0.1090
     19 C15        -3.5478    2.6555    8.6719 C.ar      1 <0>        -0.1218
     20 C16        -3.0786    3.6401    7.8226 C.ar      1 <0>        -0.0989
     21 H1          0.0021   -0.0041    0.0020 H         1 <0>         0.1033
     22 H2          1.0099    1.4631    0.0003 H         1 <0>         0.0578
     23 H3         -0.5399    1.4469   -0.8751 H         1 <0>         0.0578
     24 H4          0.2503    3.3342   -0.4791 H         1 <0>         0.1400
     25 H5          0.0776    5.7514   -0.2348 H         1 <0>         0.1450
     26 H6         -1.8342    2.7295    3.2026 H         1 <0>         0.1331
     27 H7         -1.7721    8.5262    2.9853 H         1 <0>         0.1945
     28 H8         -2.6682    3.6075    4.6636 H         1 <0>         0.4129
     29 H9         -2.6599    5.8228    6.4154 H         1 <0>         0.0811
     30 H10        -4.2094    5.8060    5.5398 H         1 <0>         0.0811
     31 H11        -5.7976    4.0007    5.8593 H         1 <0>         0.1244
     32 H12        -6.6296    2.2391    7.3653 H         1 <0>         0.1253
     33 H13        -5.1909    1.3820    9.1705 H         1 <0>         0.1246
     34 H14        -2.9168    2.2796    9.4637 H         1 <0>         0.1253
     35 H15        -2.0811    4.0337    7.9512 H         1 <0>         0.1244
@<TRIPOS>BOND
     1    1    2 1
     2    1   21 1
     3    1   22 1
     4    1   23 1
     5    2    3 1
     6    3    8 ar
     7    3    4 ar
     8    4    5 ar
     9    4   24 1
    10    5    6 ar
    11    5   25 1
    12    6   12 ar
    13    6    7 ar
    14    7    8 ar
    15    7    9 ar
    16    8   26 1
    17    9   10 ar
    18    9   13 1
    19   10   11 ar
    20   11   12 ar
    21   11   27 1
    22   13   14 1
    23   13   28 1
    24   14   15 1
    25   14   29 1
    26   14   30 1
    27   15   20 ar
    28   15   16 ar
    29   16   17 ar
    30   16   31 1
    31   17   18 ar
    32   17   32 1
    33   18   19 ar
    34   18   33 1
    35   19   20 ar
    36   19   34 1
    37   20   35 1
@<TRIPOS>MOLECULE
ZINC03815257
   42    44     0     0     0
SMALL
USER_CHARGES

@<TRIPOS>ATOM
      1 C1         -0.0127    1.0858    0.0080 C.3       1 <0>         0.0193
      2 O1         -0.6816    1.5467    1.1837 O.3       1 <0>        -0.2772
      3 C2         -0.7872    2.8898    1.3459 C.ar      1 <0>         0.2372
      4 C3         -0.2616    3.7485    0.3995 C.ar      1 <0>        -0.2818
      5 C4         -0.3709    5.1255    0.5664 C.ar      1 <0>         0.2183
      6 C5         -1.0048    5.6549    1.6780 C.ar      1 <0>        -0.2477
      7 C6         -1.5408    4.8096    2.6417 C.ar      1 <0>         0.2570
      8 C7         -1.4354    3.4160    2.4719 C.ar      1 <0>        -0.2341
      9 C8         -2.0028    2.5367    3.5036 C.2       1 <0>         0.4305
     10 O2         -1.9360    1.3223    3.4086 O.2       1 <0>        -0.4532
     11 C9         -2.6588    3.1781    4.6512 C.2       1 <0>        -0.2233
     12 C10        -2.7087    4.5370    4.7128 C.2       1 <0>         0.1741
     13 N1         -2.1736    5.3238    3.7517 N.pl3     1 <0>        -0.4850
     14 C11        -2.2712    6.7784    3.8966 C.3       1 <0>         0.1034
     15 C12        -3.4765    7.2786    3.1429 C.2       1 <0>         0.4359
     16 O3         -4.1816    6.4999    2.5459 O.2       1 <0>        -0.4821
     17 O4         -3.7666    8.5891    3.1347 O.3       1 <0>        -0.3545
     18 C13        -4.9425    8.9993    2.3880 C.3       1 <0>         0.0360
     19 C14        -3.2594    2.3554    5.7286 C.ar      1 <0>        -0.0020
     20 C15        -2.9517    2.6173    7.0630 C.ar      1 <0>        -0.1115
     21 C16        -3.5170    1.8519    8.0623 C.ar      1 <0>        -0.1060
     22 C17        -4.3802    0.8193    7.7422 C.ar      1 <0>        -0.1119
     23 C18        -4.6857    0.5508    6.4190 C.ar      1 <0>        -0.0317
     24 C19        -4.1291    1.3139    5.4109 C.ar      1 <0>        -0.0807
     25 Cl1        -5.7694   -0.7472    6.0259 Cl        1 <0>        -0.0689
     26 O5          0.1499    5.9589   -0.3702 O.3       1 <0>        -0.4938
     27 H1          0.0021   -0.0041    0.0020 H         1 <0>         0.1078
     28 H2          1.0099    1.4631    0.0003 H         1 <0>         0.0608
     29 H3         -0.5399    1.4469   -0.8751 H         1 <0>         0.0599
     30 H4          0.2351    3.3496   -0.4726 H         1 <0>         0.1450
     31 H5         -1.0829    6.7256    1.7958 H         1 <0>         0.1372
     32 H6         -3.1922    5.0030    5.5587 H         1 <0>         0.1661
     33 H7         -2.3714    7.0325    4.9519 H         1 <0>         0.1443
     34 H8         -1.3718    7.2447    3.4944 H         1 <0>         0.1410
     35 H9         -4.8243    8.7189    1.3414 H         1 <0>         0.0659
     36 H10        -5.8238    8.5067    2.7988 H         1 <0>         0.0664
     37 H11        -5.0620   10.0801    2.4635 H         1 <0>         0.1075
     38 H12        -2.2748    3.4205    7.3143 H         1 <0>         0.1286
     39 H13        -3.2816    2.0565    9.0962 H         1 <0>         0.1340
     40 H14        -4.8170    0.2203    8.5275 H         1 <0>         0.1333
     41 H15        -4.3678    1.1040    4.3787 H         1 <0>         0.1338
     42 H16        -0.4681    6.1921   -1.0765 H         1 <0>         0.4019
@<TRIPOS>BOND
     1    1    2 1
     2    1   27 1
     3    1   28 1
     4    1   29 1
     5    2    3 1
     6    3    8 ar
     7    3    4 ar
     8    4    5 ar
     9    4   30 1
    10    5    6 ar
    11    5   26 1
    12    6    7 ar
    13    6   31 1
    14    7   13 1
    15    7    8 ar
    16    8    9 1
    17    9   10 2
    18    9   11 1
    19   11   12 2
    20   11   19 1
    21   12   13 1
    22   12   32 1
    23   13   14 1
    24   14   15 1
    25   14   33 1
    26   14   34 1
    27   15   16 2
    28   15   17 1
    29   17   18 1
    30   18   35 1
    31   18   36 1
    32   18   37 1
    33   19   24 ar
    34   19   20 ar
    35   20   21 ar
    36   20   38 1
    37   21   22 ar
    38   21   39 1
    39   22   23 ar
    40   22   40 1
    41   23   24 ar
    42   23   25 1
    43   24   41 1
    44   26   42 1
@<TRIPOS>MOLECULE
ZINC03815258
   35    37     0     0     0
SMALL
USER_CHARGES

@<TRIPOS>ATOM
      1 C1          4.5661    5.9057    0.6806 C.3       1 <0>         0.0796
      2 N1          3.2035    6.3016    0.3161 N.pl3     1 <0>        -0.7245
      3 C2          2.1995    5.3400    0.2251 C.ar      1 <0>         0.2950
      4 C3          2.5129    4.0062    0.4000 C.ar      1 <0>        -0.2004
      5 C4          1.5014    3.0448    0.3085 C.ar      1 <0>         0.2647
      6 C5          0.1724    3.4567    0.0374 C.ar      1 <0>        -0.2439
      7 C6         -0.1155    4.8159   -0.1358 C.ar      1 <0>         0.0487
      8 C7          0.8843    5.7356   -0.0426 C.ar      1 <0>        -0.1049
      9 N2          0.5760    7.1717   -0.2263 N.pl3     1 <0>         0.0331
     10 O1         -0.4635    7.6322    0.2107 O.2       1 <0>        -0.1404
     11 O2          1.3618    7.8929   -0.8144 O.3       1 <0>        -0.1697
     12 C8         -0.8301    2.4620   -0.0489 C.ar      1 <0>         0.4950
     13 N3         -0.4738    1.1953    0.1229 N.ar      1 <0>        -0.5924
     14 C9          0.7798    0.8579    0.3794 C.ar      1 <0>         0.3796
     15 N4          1.7505    1.7357    0.4708 N.ar      1 <0>        -0.5568
     16 N5         -2.1423    2.7995   -0.3103 N.pl3     1 <0>        -0.6328
     17 C10        -3.0968    1.7968   -0.5030 C.ar      1 <0>         0.1493
     18 C11        -4.4117    2.0012   -0.1035 C.ar      1 <0>        -0.1274
     19 C12        -5.3526    1.0088   -0.2952 C.ar      1 <0>        -0.0920
     20 C13        -4.9878   -0.1878   -0.8845 C.ar      1 <0>        -0.1015
     21 C14        -3.6793   -0.3952   -1.2837 C.ar      1 <0>        -0.0725
     22 C15        -2.7341    0.5962   -1.0994 C.ar      1 <0>        -0.0811
     23 Br1        -3.1856   -2.0333   -2.0891 Br        1 <0>        -0.0409
     24 H1          4.9469    5.1961   -0.0539 H         1 <0>         0.0682
     25 H2          5.2073    6.7869    0.7009 H         1 <0>         0.0874
     26 H3          4.5577    5.4396    1.6658 H         1 <0>         0.0660
     27 H4          3.0003    7.2333    0.1382 H         1 <0>         0.4155
     28 H5          3.5303    3.7084    0.6063 H         1 <0>         0.1609
     29 H6         -1.1267    5.1337   -0.3428 H         1 <0>         0.1509
     30 H7          1.0151   -0.1873    0.5154 H         1 <0>         0.2046
     31 H8         -2.4023    3.7327   -0.3602 H         1 <0>         0.4239
     32 H9         -4.6976    2.9354    0.3568 H         1 <0>         0.1338
     33 H10        -6.3747    1.1676    0.0153 H         1 <0>         0.1392
     34 H11        -5.7258   -0.9620   -1.0339 H         1 <0>         0.1363
     35 H12        -1.7139    0.4360   -1.4154 H         1 <0>         0.1495
@<TRIPOS>BOND
     1    1    2 1
     2    1   24 1
     3    1   25 1
     4    1   26 1
     5    2    3 1
     6    2   27 1
     7    3    8 ar
     8    3    4 ar
     9    4    5 ar
    10    4   28 1
    11    5   15 ar
    12    5    6 ar
    13    6    7 ar
    14    6   12 ar
    15    7    8 ar
    16    7   29 1
    17    8    9 1
    18    9   10 2
    19    9   11 1
    20   12   13 ar
    21   12   16 1
    22   13   14 ar
    23   14   15 ar
    24   14   30 1
    25   16   17 1
    26   16   31 1
    27   17   22 ar
    28   17   18 ar
    29   18   19 ar
    30   18   32 1
    31   19   20 ar
    32   19   33 1
    33   20   21 ar
    34   20   34 1
    35   21   22 ar
    36   21   23 1
    37   22   35 1
@<TRIPOS>MOLECULE
ZINC03815259
   31    33     0     0     0
SMALL
USER_CHARGES

@<TRIPOS>ATOM
      1 C1         -0.9804    1.7552   -0.6840 C.ar      1 <0>        -0.0810
      2 C2         -0.9946    3.1367   -0.6920 C.ar      1 <0>        -0.1383
      3 C3         -0.0507    3.8460    0.0400 C.ar      1 <0>         0.1293
      4 C4          0.9064    3.1648    0.7798 C.ar      1 <0>        -0.1280
      5 C5          0.9130    1.7791    0.7904 C.ar      1 <0>         0.1291
      6 C6         -0.0289    1.0756    0.0522 C.ar      1 <0>        -0.1382
      7 O1          1.8444    1.1092    1.5188 O.3       1 <0>        -0.4941
      8 N1         -0.0643    5.2438    0.0313 N.pl3     1 <0>        -0.6057
      9 C7          1.1186    5.9452    0.1278 C.ar      1 <0>         0.5183
     10 C8          1.1214    7.3550    0.2375 C.ar      1 <0>        -0.2614
     11 C9         -0.0517    8.1131    0.2658 C.ar      1 <0>         0.2655
     12 C10         1.1683   10.0764    0.4658 C.ar      1 <0>         0.4425
     13 C11         2.3804    9.4108    0.4513 C.ar      1 <0>        -0.1907
     14 C12         2.3747    8.0159    0.3376 C.ar      1 <0>         0.3040
     15 N2          3.4958    7.2843    0.3147 N.ar      1 <0>        -0.5562
     16 C13         3.4314    5.9769    0.2064 C.ar      1 <0>         0.4274
     17 N3          2.2885    5.3168    0.1150 N.ar      1 <0>        -0.5801
     18 N4          1.1561   11.4607    0.5780 N.pl3     1 <0>        -0.8274
     19 H1         -1.7148    1.2054   -1.2539 H         1 <0>         0.1405
     20 H2         -1.7397    3.6654   -1.2679 H         1 <0>         0.1324
     21 H3          1.6414    3.7137    1.3498 H         1 <0>         0.1448
     22 H4         -0.0206   -0.0043    0.0567 H         1 <0>         0.1388
     23 H5          2.6586    0.9162    1.0340 H         1 <0>         0.3991
     24 H6         -0.9060    5.7202   -0.0427 H         1 <0>         0.4246
     25 H7         -1.0121    7.6244    0.1939 H         1 <0>         0.1976
     26 H8          3.3102    9.9551    0.5263 H         1 <0>         0.1927
     27 H9          4.3536    5.4151    0.1908 H         1 <0>         0.2214
     28 H10         1.9914   11.9492    0.6450 H         1 <0>         0.4391
     29 H11         0.3122   11.9389    0.5893 H         1 <0>         0.4197
     30 N5         -0.0597    9.4661    0.3755 N.ar      1 <0>        -0.5398
     31 H12        -0.9344   10.0036    0.3902 H         1 <0>         0.4742
@<TRIPOS>BOND
     1    1    6 ar
     2    1    2 ar
     3    1   19 1
     4    2    3 ar
     5    2   20 1
     6    3    4 ar
     7    3    8 1
     8    4    5 ar
     9    4   21 1
    10    5    6 ar
    11    5    7 1
    12    6   22 1
    13    7   23 1
    14    8    9 1
    15    8   24 1
    16    9   17 ar
    17    9   10 ar
    18   10   14 ar
    19   10   11 ar
    20   11   25 1
    21   11   30 ar
    22   12   13 ar
    23   12   18 1
    24   12   30 ar
    25   13   14 ar
    26   13   26 1
    27   14   15 ar
    28   15   16 ar
    29   16   17 ar
    30   16   27 1
    31   18   28 1
    32   18   29 1
    33   30   31 1
@<TRIPOS>MOLECULE
ZINC03815260
   32    35     0     0     0
SMALL
USER_CHARGES

@<TRIPOS>ATOM
      1 C1         -3.2290    3.3727   -0.2364 C.ar      1 <0>        -0.1543
      2 C2         -2.6180    4.6030   -0.0429 C.ar      1 <0>        -0.0644
      3 C3         -1.2470    4.6981    0.0491 C.ar      1 <0>        -0.1488
      4 C4         -0.4605    3.5536   -0.0515 C.ar      1 <0>         0.1617
      5 C5         -1.0806    2.3080   -0.2411 C.ar      1 <0>        -0.1110
      6 C6         -2.4692    2.2287   -0.3385 C.ar      1 <0>        -0.0343
      7 C7         -0.0016    1.3106   -0.3117 C.ar      1 <0>         0.1749
      8 C8          1.1993    2.0141   -0.1518 C.ar      1 <0>        -0.0125
      9 N1          0.9058    3.3556    0.0028 N.pl3     1 <0>        -0.5988
     10 H1          1.5638    4.0567    0.1308 H         1 <0>         0.4181
     11 C9          2.3961    1.2859   -0.1752 C.ar      1 <0>         0.4324
     12 N2          2.3386   -0.0306   -0.3470 N.ar      1 <0>        -0.5426
     13 C10         1.1835   -0.6525   -0.4938 C.ar      1 <0>         0.3132
     14 N3          0.0347   -0.0110   -0.4787 N.ar      1 <0>        -0.5070
     15 N4          3.6170    1.9266   -0.0217 N.pl3     1 <0>        -0.6536
     16 C11         4.7930    1.1769    0.0690 C.ar      1 <0>         0.1661
     17 C12         5.9824    1.6832   -0.4404 C.ar      1 <0>        -0.1373
     18 C13         7.1429    0.9405   -0.3490 C.ar      1 <0>        -0.0906
     19 C14         7.1228   -0.3062    0.2493 C.ar      1 <0>        -0.1099
     20 C15         5.9404   -0.8137    0.7577 C.ar      1 <0>        -0.0690
     21 C16         4.7764   -0.0732    0.6736 C.ar      1 <0>        -0.0887
     22 Br1         5.9184   -2.5187    1.5754 Br        1 <0>        -0.0440
     23 H2         -4.3049    3.3118   -0.3076 H         1 <0>         0.1326
     24 H3         -3.2228    5.4944    0.0359 H         1 <0>         0.1342
     25 H4         -0.7818    5.6610    0.1998 H         1 <0>         0.1290
     26 H5         -2.9478    1.2723   -0.4895 H         1 <0>         0.1340
     27 H6          1.1812   -1.7237   -0.6314 H         1 <0>         0.2051
     28 H7          3.6544    2.8948    0.0227 H         1 <0>         0.4177
     29 H8          5.9991    2.6567   -0.9078 H         1 <0>         0.1298
     30 H9          8.0675    1.3339   -0.7449 H         1 <0>         0.1364
     31 H10         8.0321   -0.8846    0.3201 H         1 <0>         0.1343
     32 H11         3.8543   -0.4679    1.0742 H         1 <0>         0.1472
@<TRIPOS>BOND
     1    1    6 ar
     2    1    2 ar
     3    1   23 1
     4    2    3 ar
     5    2   24 1
     6    3    4 ar
     7    3   25 1
     8    4    9 1
     9    4    5 ar
    10    5    6 ar
    11    5    7 1
    12    6   26 1
    13    7   14 ar
    14    7    8 ar
    15    8    9 1
    16    8   11 ar
    17    9   10 1
    18   11   12 ar
    19   11   15 1
    20   12   13 ar
    21   13   14 ar
    22   13   27 1
    23   15   16 1
    24   15   28 1
    25   16   21 ar
    26   16   17 ar
    27   17   18 ar
    28   17   29 1
    29   18   19 ar
    30   18   30 1
    31   19   20 ar
    32   19   31 1
    33   20   21 ar
    34   20   22 1
    35   21   32 1
@<TRIPOS>MOLECULE
ZINC03815261
   52    55     0     0     0
SMALL
USER_CHARGES

@<TRIPOS>ATOM
      1 C1          0.0685    1.0902    0.1116 C.3       1 <0>         0.0709
      2 N1         -0.4262    1.5833    1.3993 N.am      1 <0>        -0.5064
      3 C2         -0.5385    2.9342    1.6114 C.ar      1 <0>         0.4672
      4 C3         -1.0181    3.4258    2.8448 C.ar      1 <0>        -0.2850
      5 C4         -1.3769    2.5290    3.8769 C.2       1 <0>         0.0388
      6 C5         -1.2565    1.1829    3.6581 C.2       1 <0>        -0.1755
      7 C6         -0.7608    0.7061    2.3651 C.2       1 <0>         0.5598
      8 O1         -0.6510   -0.4900    2.1618 O.2       1 <0>        -0.5093
      9 C7         -1.6239    0.2172    4.7199 C.ar      1 <0>        -0.0047
     10 C8         -0.6659   -0.2109    5.6398 C.ar      1 <0>        -0.0070
     11 C9         -1.0162   -1.1072    6.6305 C.ar      1 <0>        -0.1076
     12 C10        -2.3108   -1.5889    6.7053 C.ar      1 <0>        -0.0898
     13 C11        -3.2639   -1.1726    5.7933 C.ar      1 <0>        -0.1072
     14 C12        -2.9280   -0.2726    4.8010 C.ar      1 <0>        -0.0071
     15 Cl1        -4.1254    0.2477    3.6568 Cl        1 <0>        -0.0490
     16 Cl2         0.9613    0.3864    5.5428 Cl        1 <0>        -0.0504
     17 C13        -1.1230    4.8140    3.0188 C.ar      1 <0>         0.2657
     18 N2         -0.7738    5.6039    2.0208 N.ar      1 <0>        -0.5630
     19 C14        -0.3311    5.1056    0.8717 C.ar      1 <0>         0.6117
     20 N3         -0.2145    3.8035    0.6608 N.ar      1 <0>        -0.5989
     21 N4          0.0210    5.9779   -0.1404 N.pl3     1 <0>        -0.6196
     22 C15        -0.1997    7.3500    0.0111 C.ar      1 <0>         0.1342
     23 C16        -1.3057    7.8032    0.7189 C.ar      1 <0>        -0.1032
     24 C17        -1.5173    9.1593    0.8720 C.ar      1 <0>        -0.0993
     25 C18        -0.6364   10.0658    0.3112 C.ar      1 <0>        -0.0740
     26 C19         0.4626    9.6181   -0.3989 C.ar      1 <0>        -0.0986
     27 C20         0.6834    8.2633   -0.5505 C.ar      1 <0>        -0.1368
     28 C21        -0.8742   11.5449    0.4746 C.3       1 <0>        -0.0849
     29 C22        -1.7351   12.0540   -0.6832 C.3       1 <0>        -0.0910
     30 C23        -1.9766   13.5557   -0.5173 C.3       1 <0>        -0.1584
     31 C24        -2.8245   14.0572   -1.6577 C.2       1 <0>         0.4572
     32 O2         -3.1974   13.2920   -2.5152 O.co2     1 <0>        -0.6417
     33 H1          0.0950    0.0006    0.1257 H         1 <0>         0.0991
     34 H2          1.0729    1.4758   -0.0636 H         1 <0>         0.0794
     35 H3         -0.5942    1.4272   -0.6854 H         1 <0>         0.0801
     36 H4         -1.7408    2.9001    4.8236 H         1 <0>         0.1491
     37 H5         -0.2768   -1.4359    7.3458 H         1 <0>         0.1425
     38 H6         -2.5784   -2.2933    7.4789 H         1 <0>         0.1439
     39 H7         -4.2729   -1.5525    5.8572 H         1 <0>         0.1427
     40 H8         -1.4816    5.2275    3.9499 H         1 <0>         0.1872
     41 H9          0.4212    5.6382   -0.9561 H         1 <0>         0.4249
     42 H10        -1.9966    7.0958    1.1531 H         1 <0>         0.1313
     43 H11        -2.3744    9.5123    1.4263 H         1 <0>         0.1262
     44 H12         1.1490   10.3287   -0.8350 H         1 <0>         0.1272
     45 H13         1.5421    7.9142   -1.1049 H         1 <0>         0.1224
     46 H14        -1.3888   11.7282    1.4179 H         1 <0>         0.0693
     47 H15         0.0816   12.0688    0.4744 H         1 <0>         0.0687
     48 H16        -1.2205   11.8708   -1.6265 H         1 <0>         0.0612
     49 H17        -2.6909   11.5301   -0.6830 H         1 <0>         0.0614
     50 H18        -2.4911   13.7390    0.4260 H         1 <0>         0.0629
     51 H19        -1.0207   14.0796   -0.5175 H         1 <0>         0.0627
     52 O3         -3.1655   15.3539   -1.7209 O.co2     1 <0>        -0.7790
@<TRIPOS>BOND
     1    1    2 1
     2    1   33 1
     3    1   34 1
     4    1   35 1
     5    2    7 am
     6    2    3 1
     7    3   20 ar
     8    3    4 ar
     9    4    5 1
    10    4   17 ar
    11    5    6 2
    12    5   36 1
    13    6    7 1
    14    6    9 1
    15    7    8 2
    16    9   14 ar
    17    9   10 ar
    18   10   11 ar
    19   10   16 1
    20   11   12 ar
    21   11   37 1
    22   12   13 ar
    23   12   38 1
    24   13   14 ar
    25   13   39 1
    26   14   15 1
    27   17   18 ar
    28   17   40 1
    29   18   19 ar
    30   19   20 ar
    31   19   21 1
    32   21   22 1
    33   21   41 1
    34   22   27 ar
    35   22   23 ar
    36   23   24 ar
    37   23   42 1
    38   24   25 ar
    39   24   43 1
    40   25   26 ar
    41   25   28 1
    42   26   27 ar
    43   26   44 1
    44   27   45 1
    45   28   29 1
    46   28   46 1
    47   28   47 1
    48   29   30 1
    49   29   48 1
    50   29   49 1
    51   30   31 1
    52   30   50 1
    53   30   51 1
    54   31   32 2
    55   31   52 1
@<TRIPOS>MOLECULE
ZINC03815262
   35    38     0     0     0
SMALL
USER_CHARGES

@<TRIPOS>ATOM
      1 C1          8.8451   10.9316   -0.8465 C.3       1 <0>         0.0227
      2 O1          8.7014    9.5141   -0.7371 O.3       1 <0>        -0.3060
      3 C2          7.4365    9.0284   -0.6355 C.ar      1 <0>         0.1773
      4 C3          6.3475    9.8962   -0.6404 C.ar      1 <0>        -0.2120
      5 C4          5.0734    9.4323   -0.5398 C.ar      1 <0>         0.0014
      6 C5          4.8129    8.0480   -0.4266 C.ar      1 <0>        -0.1311
      7 C6          5.9258    7.1898   -0.4236 C.ar      1 <0>        -0.0410
      8 C7          7.2174    7.6641   -0.5259 C.ar      1 <0>        -0.1240
      9 S1          5.2324    5.5631   -0.2708 S.3       1 <0>         0.0927
     10 C8          3.5149    5.9938   -0.2113 C.ar      1 <0>        -0.2874
     11 C9          3.4967    7.3907   -0.3104 C.ar      1 <0>         0.2321
     12 N1          2.2762    7.9719   -0.2883 N.ar      1 <0>        -0.5307
     13 C10         1.1833    7.2585   -0.1802 C.ar      1 <0>         0.3443
     14 N2          1.1828    5.9413   -0.0910 N.ar      1 <0>        -0.5485
     15 C11         2.3353    5.2715   -0.0980 C.ar      1 <0>         0.4852
     16 N3          2.3548    3.8878   -0.0005 N.pl3     1 <0>        -0.6444
     17 C12         1.1686    3.1870    0.2342 C.ar      1 <0>         0.1611
     18 C13         0.9770    1.9330   -0.3326 C.ar      1 <0>        -0.1318
     19 C14        -0.1962    1.2431   -0.0993 C.ar      1 <0>        -0.0908
     20 C15        -1.1826    1.8010    0.6932 C.ar      1 <0>        -0.1067
     21 C16        -0.9934    3.0473    1.2636 C.ar      1 <0>        -0.0700
     22 C17         0.1786    3.7429    1.0340 C.ar      1 <0>        -0.0863
     23 Br1        -2.3427    3.8028    2.3519 Br        1 <0>        -0.0437
     24 H1          9.9027   11.1850   -0.9205 H         1 <0>         0.1069
     25 H2          8.3244   11.2819   -1.7377 H         1 <0>         0.0614
     26 H3          8.4179   11.4093    0.0352 H         1 <0>         0.0614
     27 H4          6.5184   10.9592   -0.7262 H         1 <0>         0.1408
     28 H5          4.2498   10.1309   -0.5462 H         1 <0>         0.1404
     29 H6          8.0512    6.9777   -0.5202 H         1 <0>         0.1483
     30 H7          0.2341    7.7736   -0.1679 H         1 <0>         0.2049
     31 H8          3.1917    3.4066   -0.0951 H         1 <0>         0.4237
     32 H9          1.7453    1.4980   -0.9547 H         1 <0>         0.1324
     33 H10        -0.3454    0.2685   -0.5401 H         1 <0>         0.1378
     34 H11        -2.1010    1.2610    0.8706 H         1 <0>         0.1351
     35 H12         0.3243    4.7176    1.4757 H         1 <0>         0.1445
@<TRIPOS>BOND
     1    1    2 1
     2    1   24 1
     3    1   25 1
     4    1   26 1
     5    2    3 1
     6    3    8 ar
     7    3    4 ar
     8    4    5 ar
     9    4   27 1
    10    5    6 ar
    11    5   28 1
    12    6   11 1
    13    6    7 ar
    14    7    8 ar
    15    7    9 1
    16    8   29 1
    17    9   10 1
    18   10   15 ar
    19   10   11 ar
    20   11   12 ar
    21   12   13 ar
    22   13   14 ar
    23   13   30 1
    24   14   15 ar
    25   15   16 1
    26   16   17 1
    27   16   31 1
    28   17   22 ar
    29   17   18 ar
    30   18   19 ar
    31   18   32 1
    32   19   20 ar
    33   19   33 1
    34   20   21 ar
    35   20   34 1
    36   21   22 ar
    37   21   23 1
    38   22   35 1
@<TRIPOS>MOLECULE
ZINC03815264
   26    28     0     0     0
SMALL
USER_CHARGES

@<TRIPOS>ATOM
      1 C1         -1.1107    2.9202   -0.7519 C.ar      1 <0>        -0.0917
      2 C2          0.0733    3.6317   -0.7458 C.ar      1 <0>        -0.0943
      3 C3          1.1562    3.1695   -0.0089 C.ar      1 <0>         0.1471
      4 C4          1.0448    1.9922    0.7201 C.ar      1 <0>        -0.1123
      5 C5         -0.1422    1.2851    0.7099 C.ar      1 <0>        -0.0716
      6 C6         -1.2207    1.7516   -0.0213 C.ar      1 <0>        -0.0989
      7 Br1        -0.2958   -0.3173    1.7022 Br        1 <0>        -0.0399
      8 N1          2.3552    3.8876   -0.0005 N.pl3     1 <0>        -0.6112
      9 C7          2.3358    5.2638   -0.0975 C.ar      1 <0>         0.4903
     10 C8          3.5727    6.0341   -0.2110 C.ar      1 <0>         0.0433
     11 C9          3.4636    7.4428   -0.3109 C.ar      1 <0>         0.0856
     12 C10         4.6476    8.1918   -0.4264 C.ar      1 <0>         0.2234
     13 N2          5.7960    7.5450   -0.4409 N.ar      1 <0>        -0.4752
     14 C11         5.8525    6.2240   -0.3501 C.ar      1 <0>         0.3467
     15 N3          4.7787    5.4726   -0.2402 N.ar      1 <0>        -0.4631
     16 Cl1         7.4081    5.4537   -0.3766 Cl        1 <0>         0.0405
     17 N4          2.2479    7.9990   -0.2869 N.ar      1 <0>        -0.5230
     18 C12         1.1713    7.2592   -0.1782 C.ar      1 <0>         0.3591
     19 N5          1.1935    5.9395   -0.0858 N.ar      1 <0>        -0.5617
     20 H1         -1.9529    3.2796   -1.3245 H         1 <0>         0.1397
     21 H2          0.1570    4.5465   -1.3138 H         1 <0>         0.1439
     22 H3          1.8848    1.6304    1.2944 H         1 <0>         0.1376
     23 H4         -2.1490    1.1997   -0.0243 H         1 <0>         0.1372
     24 H5          3.2009    3.4185    0.0736 H         1 <0>         0.4350
     25 H6          4.6171    9.2688   -0.5010 H         1 <0>         0.2033
     26 H7          0.2119    7.7550   -0.1628 H         1 <0>         0.2103
@<TRIPOS>BOND
     1    1    6 ar
     2    1    2 ar
     3    1   20 1
     4    2    3 ar
     5    2   21 1
     6    3    4 ar
     7    3    8 1
     8    4    5 ar
     9    4   22 1
    10    5    6 ar
    11    5    7 1
    12    6   23 1
    13    8    9 1
    14    8   24 1
    15    9   19 ar
    16    9   10 ar
    17   10   15 ar
    18   10   11 ar
    19   11   12 ar
    20   11   17 ar
    21   12   13 ar
    22   12   25 1
    23   13   14 ar
    24   14   15 ar
    25   14   16 1
    26   17   18 ar
    27   18   19 ar
    28   18   26 1
@<TRIPOS>MOLECULE
ZINC03815265
   37    40     0     0     0
SMALL
USER_CHARGES

@<TRIPOS>ATOM
      1 C1          0.1093    1.1111   -1.0131 C.ar      1 <0>        -0.1325
      2 C2          0.9634    1.7137   -0.1077 C.ar      1 <0>        -0.0996
      3 C3          0.9253    3.0822    0.0745 C.ar      1 <0>        -0.1475
      4 C4          0.0195    3.8519   -0.6441 C.ar      1 <0>         0.1461
      5 C5         -0.8410    3.2428   -1.5486 C.ar      1 <0>        -0.1087
      6 C6         -0.7933    1.8746   -1.7305 C.ar      1 <0>        -0.0998
      7 N1         -0.0264    5.2365   -0.4572 N.pl3     1 <0>        -0.6416
      8 C7         -1.2268    5.9109   -0.5785 C.ar      1 <0>         0.5121
      9 C8         -1.2758    7.3131   -0.5045 C.ar      1 <0>        -0.3415
     10 C9         -2.5254    7.9504   -0.6350 C.ar      1 <0>         0.3993
     11 N2         -2.2980    9.2888   -0.5278 N.pl3     1 <0>        -0.4733
     12 H1         -2.9987   10.0003   -0.5807 H         1 <0>         0.4581
     13 N3         -0.9310    9.5129   -0.3321 N.2       1 <0>        -0.2827
     14 C10        -0.2901    8.3724   -0.3119 C.2       1 <0>         0.3747
     15 N4          1.0849    8.2000   -0.1373 N.pl3     1 <0>        -0.6393
     16 C11         1.9267    9.3134   -0.0805 C.ar      1 <0>         0.1774
     17 C12         3.0992    9.2625    0.6637 C.ar      1 <0>        -0.1511
     18 C13         3.9297   10.3642    0.7178 C.ar      1 <0>        -0.0770
     19 C14         3.5963   11.5182    0.0323 C.ar      1 <0>        -0.1331
     20 C15         2.4298   11.5727   -0.7103 C.ar      1 <0>        -0.0051
     21 C16         1.5965   10.4715   -0.7724 C.ar      1 <0>        -0.1314
     22 Cl1         2.0157   13.0232   -1.5696 Cl        1 <0>        -0.0623
     23 N5         -3.6096    7.1980   -0.8236 N.ar      1 <0>        -0.5702
     24 C17        -3.5146    5.8882   -0.8865 C.ar      1 <0>         0.3915
     25 N6         -2.3634    5.2493   -0.7737 N.ar      1 <0>        -0.5912
     26 H2          0.1443    0.0413   -1.1570 H         1 <0>         0.1240
     27 H3          1.6641    1.1140    0.4542 H         1 <0>         0.1268
     28 H4          1.5954    3.5526    0.7788 H         1 <0>         0.1232
     29 H5         -1.5466    3.8384   -2.1087 H         1 <0>         0.1391
     30 H6         -1.4620    1.4004   -2.4336 H         1 <0>         0.1269
     31 H7          0.7842    5.7241   -0.2424 H         1 <0>         0.4102
     32 H8          1.4552    7.3073   -0.0554 H         1 <0>         0.4154
     33 H9          3.3604    8.3620    1.1997 H         1 <0>         0.1325
     34 H10         4.8412   10.3247    1.2958 H         1 <0>         0.1387
     35 H11         4.2478   12.3784    0.0763 H         1 <0>         0.1360
     36 H12         0.6883   10.5128   -1.3553 H         1 <0>         0.1470
     37 H13        -4.4142    5.3107   -1.0402 H         1 <0>         0.2093
@<TRIPOS>BOND
     1    1    6 ar
     2    1    2 ar
     3    1   26 1
     4    2    3 ar
     5    2   27 1
     6    3    4 ar
     7    3   28 1
     8    4    5 ar
     9    4    7 1
    10    5    6 ar
    11    5   29 1
    12    6   30 1
    13    7    8 1
    14    7   31 1
    15    8   25 ar
    16    8    9 ar
    17    9   14 1
    18    9   10 ar
    19   10   11 1
    20   10   23 ar
    21   11   12 1
    22   11   13 1
    23   13   14 2
    24   14   15 1
    25   15   16 1
    26   15   32 1
    27   16   21 ar
    28   16   17 ar
    29   17   18 ar
    30   17   33 1
    31   18   19 ar
    32   18   34 1
    33   19   20 ar
    34   19   35 1
    35   20   21 ar
    36   20   22 1
    37   21   36 1
    38   23   24 ar
    39   24   25 ar
    40   24   37 1
@<TRIPOS>MOLECULE
ZINC03815265
   37    40     0     0     0
SMALL
USER_CHARGES

@<TRIPOS>ATOM
      1 C1          0.1093    1.1111   -1.0131 C.ar      1 <0>        -0.1325
      2 C2          0.9634    1.7137   -0.1077 C.ar      1 <0>        -0.0996
      3 C3          0.9253    3.0822    0.0745 C.ar      1 <0>        -0.1475
      4 C4          0.0195    3.8519   -0.6441 C.ar      1 <0>         0.1461
      5 C5         -0.8410    3.2428   -1.5486 C.ar      1 <0>        -0.1087
      6 C6         -0.7933    1.8746   -1.7305 C.ar      1 <0>        -0.0998
      7 N1         -0.0264    5.2365   -0.4572 N.pl3     1 <0>        -0.6416
      8 C7         -1.2268    5.9109   -0.5785 C.ar      1 <0>         0.5121
      9 C8         -1.2758    7.3131   -0.5045 C.ar      1 <0>        -0.3415
     10 C9         -2.5254    7.9504   -0.6350 C.ar      1 <0>         0.3993
     11 N2         -2.2980    9.2888   -0.5278 N.pl3     1 <0>        -0.4733
     12 H1         -2.9987   10.0003   -0.5807 H         1 <0>         0.4581
     13 N3         -0.9310    9.5129   -0.3321 N.2       1 <0>        -0.2827
     14 C10        -0.2901    8.3724   -0.3119 C.2       1 <0>         0.3747
     15 N4          1.0849    8.2000   -0.1373 N.pl3     1 <0>        -0.6393
     16 C11         1.9267    9.3134   -0.0805 C.ar      1 <0>         0.1774
     17 C12         3.0992    9.2625    0.6637 C.ar      1 <0>        -0.1511
     18 C13         3.9297   10.3642    0.7178 C.ar      1 <0>        -0.0770
     19 C14         3.5963   11.5182    0.0323 C.ar      1 <0>        -0.1331
     20 C15         2.4298   11.5727   -0.7103 C.ar      1 <0>        -0.0051
     21 C16         1.5965   10.4715   -0.7724 C.ar      1 <0>        -0.1314
     22 Cl1         2.0157   13.0232   -1.5696 Cl        1 <0>        -0.0623
     23 N5         -3.6096    7.1980   -0.8236 N.ar      1 <0>        -0.5702
     24 C17        -3.5146    5.8882   -0.8865 C.ar      1 <0>         0.3915
     25 N6         -2.3634    5.2493   -0.7737 N.ar      1 <0>        -0.5912
     26 H2          0.1443    0.0413   -1.1570 H         1 <0>         0.1240
     27 H3          1.6641    1.1140    0.4542 H         1 <0>         0.1268
     28 H4          1.5954    3.5526    0.7788 H         1 <0>         0.1232
     29 H5         -1.5466    3.8384   -2.1087 H         1 <0>         0.1391
     30 H6         -1.4620    1.4004   -2.4336 H         1 <0>         0.1269
     31 H7          0.7842    5.7241   -0.2424 H         1 <0>         0.4102
     32 H8          1.4552    7.3073   -0.0554 H         1 <0>         0.4154
     33 H9          3.3604    8.3620    1.1997 H         1 <0>         0.1325
     34 H10         4.8412   10.3247    1.2958 H         1 <0>         0.1387
     35 H11         4.2478   12.3784    0.0763 H         1 <0>         0.1360
     36 H12         0.6883   10.5128   -1.3553 H         1 <0>         0.1470
     37 H13        -4.4142    5.3107   -1.0402 H         1 <0>         0.2093
@<TRIPOS>BOND
     1    1    6 ar
     2    1    2 ar
     3    1   26 1
     4    2    3 ar
     5    2   27 1
     6    3    4 ar
     7    3   28 1
     8    4    5 ar
     9    4    7 1
    10    5    6 ar
    11    5   29 1
    12    6   30 1
    13    7    8 1
    14    7   31 1
    15    8   25 ar
    16    8    9 ar
    17    9   14 1
    18    9   10 ar
    19   10   11 1
    20   10   23 ar
    21   11   12 1
    22   11   13 1
    23   13   14 2
    24   14   15 1
    25   15   16 1
    26   15   32 1
    27   16   21 ar
    28   16   17 ar
    29   17   18 ar
    30   17   33 1
    31   18   19 ar
    32   18   34 1
    33   19   20 ar
    34   19   35 1
    35   20   21 ar
    36   20   22 1
    37   21   36 1
    38   23   24 ar
    39   24   25 ar
    40   24   37 1
@<TRIPOS>MOLECULE
ZINC03815266
   36    38     0     0     0
SMALL
USER_CHARGES

@<TRIPOS>ATOM
      1 C1         -2.6449    7.8560    0.0996 C.3       1 <0>         0.0888
      2 N1         -1.3597    7.1621    0.2142 N.pl3     1 <0>        -0.6343
      3 C2         -0.1174    7.9324    0.3111 C.3       1 <0>         0.0871
      4 C3         -1.3189    5.7653    0.2310 C.ar      1 <0>         0.2128
      5 C4         -2.5070    5.0358    0.1201 C.ar      1 <0>        -0.1325
      6 C5         -2.4970    3.6743    0.1340 C.ar      1 <0>        -0.0574
      7 C6         -1.2817    2.9871    0.2609 C.ar      1 <0>         0.1389
      8 C7         -0.0747    3.7196    0.3737 C.ar      1 <0>        -0.1308
      9 C8         -0.1067    5.1180    0.3573 C.ar      1 <0>        -0.1851
     10 C9          1.1372    2.9976    0.5002 C.ar      1 <0>         0.4472
     11 N2          1.0794    1.6727    0.5065 N.ar      1 <0>        -0.5717
     12 C10        -0.0731    1.0308    0.3983 C.ar      1 <0>         0.3211
     13 N3         -1.2244    1.6466    0.2734 N.ar      1 <0>        -0.5286
     14 N4          2.3456    3.6550    0.6133 N.pl3     1 <0>        -0.6412
     15 C11         3.5177    2.9286    0.8421 C.ar      1 <0>         0.1621
     16 C12         4.7190    3.3529    0.2880 C.ar      1 <0>        -0.1345
     17 C13         5.8755    2.6336    0.5161 C.ar      1 <0>        -0.0923
     18 C14         5.8393    1.4919    1.2957 C.ar      1 <0>        -0.1084
     19 C15         4.6450    1.0665    1.8497 C.ar      1 <0>        -0.0705
     20 C16         3.4848    1.7845    1.6286 C.ar      1 <0>        -0.0842
     21 Br1         4.6011   -0.4945    2.9160 Br        1 <0>        -0.0448
     22 H1         -3.0496    8.0379    1.0952 H         1 <0>         0.0526
     23 H2         -2.4999    8.8070   -0.4130 H         1 <0>         0.0705
     24 H3         -3.3413    7.2395   -0.4687 H         1 <0>         0.0709
     25 H4          0.7341    7.2521    0.2949 H         1 <0>         0.0751
     26 H5         -0.0494    8.6198   -0.5321 H         1 <0>         0.0608
     27 H6         -0.1126    8.4984    1.2426 H         1 <0>         0.0568
     28 H7         -3.4461    5.5601    0.0224 H         1 <0>         0.1372
     29 H8         -3.4230    3.1252    0.0477 H         1 <0>         0.1443
     30 H9          0.8083    5.6854    0.4425 H         1 <0>         0.1272
     31 H10        -0.0646   -0.0491    0.4090 H         1 <0>         0.1949
     32 H11         2.3815    4.6211    0.5340 H         1 <0>         0.4207
     33 H12         4.7483    4.2443   -0.3210 H         1 <0>         0.1305
     34 H13         6.8094    2.9632    0.0854 H         1 <0>         0.1363
     35 H14         6.7453    0.9314    1.4728 H         1 <0>         0.1340
     36 H15         2.5534    1.4546    2.0645 H         1 <0>         0.1465
@<TRIPOS>BOND
     1    1    2 1
     2    1   22 1
     3    1   23 1
     4    1   24 1
     5    2    3 1
     6    2    4 1
     7    3   25 1
     8    3   26 1
     9    3   27 1
    10    4    9 ar
    11    4    5 ar
    12    5    6 ar
    13    5   28 1
    14    6    7 ar
    15    6   29 1
    16    7   13 ar
    17    7    8 ar
    18    8    9 ar
    19    8   10 ar
    20    9   30 1
    21   10   11 ar
    22   10   14 1
    23   11   12 ar
    24   12   13 ar
    25   12   31 1
    26   14   15 1
    27   14   32 1
    28   15   20 ar
    29   15   16 ar
    30   16   17 ar
    31   16   33 1
    32   17   18 ar
    33   17   34 1
    34   18   19 ar
    35   18   35 1
    36   19   20 ar
    37   19   21 1
    38   20   36 1
@<TRIPOS>MOLECULE
ZINC03815267
   45    48     0     0     0
SMALL
USER_CHARGES

@<TRIPOS>ATOM
      1 C1         -2.9001    3.3356   -1.2042 C.3       1 <0>        -0.1434
      2 C2         -1.6465    2.5007   -1.1545 C.2       1 <0>         0.4560
      3 O1         -1.0366    2.2655   -2.1707 O.2       1 <0>        -0.4931
      4 O2         -1.2074    2.0183    0.0187 O.3       1 <0>        -0.2826
      5 C3         -0.0123    1.3697    0.0111 C.ar      1 <0>         0.0523
      6 C4          0.0150    0.0041   -0.0230 C.ar      1 <0>        -0.0293
      7 C5          1.2447   -0.6645   -0.0368 C.ar      1 <0>        -0.2200
      8 C6          2.4522    0.0768   -0.0153 C.ar      1 <0>         0.2335
      9 C7          2.4009    1.4754    0.0200 C.ar      1 <0>        -0.2040
     10 C8          1.1781    2.1096    0.0325 C.ar      1 <0>         0.1731
     11 O3          1.1253    3.4665    0.0659 O.3       1 <0>        -0.3048
     12 C9          2.3724    4.1640    0.0864 C.3       1 <0>         0.0216
     13 N1          3.6177   -0.5889   -0.0291 N.ar      1 <0>        -0.5595
     14 C10         3.6343   -1.9001   -0.0627 C.ar      1 <0>         0.3633
     15 N2          2.5327   -2.6336   -0.0839 N.ar      1 <0>        -0.5987
     16 C11         1.3288   -2.0769   -0.0725 C.ar      1 <0>         0.4920
     17 N3          0.1892   -2.8537   -0.0953 N.pl3     1 <0>        -0.6654
     18 C12         0.2988   -4.3141   -0.1321 C.3       1 <0>         0.1015
     19 H1          1.3023   -4.7062   -0.2980 H         1 <0>         0.1534
     20 C13        -0.6307   -5.1156    0.7814 C.3       1 <0>        -0.1833
     21 C14        -0.8731   -5.0957   -0.7291 C.3       1 <0>        -0.1265
     22 H2         -0.6409   -6.0022   -1.2881 H         1 <0>         0.1263
     23 C15        -2.0520   -4.3044   -1.2343 C.ar      1 <0>        -0.0525
     24 C16        -2.7625   -3.4941   -0.3686 C.ar      1 <0>        -0.1410
     25 C17        -3.8412   -2.7648   -0.8329 C.ar      1 <0>        -0.1129
     26 C18        -4.2148   -2.8528   -2.1609 C.ar      1 <0>        -0.1224
     27 C19        -3.5074   -3.6672   -3.0254 C.ar      1 <0>        -0.1108
     28 C20        -2.4262   -4.3931   -2.5620 C.ar      1 <0>        -0.1101
     29 H3         -2.6418    4.3869   -1.0765 H         1 <0>         0.1097
     30 H4         -3.3913    3.1966   -2.1672 H         1 <0>         0.1060
     31 H5         -3.5739    3.0273   -0.4048 H         1 <0>         0.0969
     32 H6         -0.9077   -0.5568   -0.0389 H         1 <0>         0.1384
     33 H7          3.3134    2.0529    0.0370 H         1 <0>         0.1546
     34 H8          2.9427    3.9150   -0.8085 H         1 <0>         0.0633
     35 H9          2.1877    5.2379    0.1124 H         1 <0>         0.1077
     36 H10         2.9380    3.8711    0.9709 H         1 <0>         0.0646
     37 H11         4.5896   -2.4037   -0.0733 H         1 <0>         0.1985
     38 H12        -0.6848   -2.4330   -0.0869 H         1 <0>         0.4122
     39 H13        -0.2389   -6.0352    1.2162 H         1 <0>         0.1131
     40 H14        -1.3238   -4.5563    1.4098 H         1 <0>         0.1019
     41 H15        -2.4729   -3.4282    0.6698 H         1 <0>         0.1222
     42 H16        -4.3936   -2.1283   -0.1576 H         1 <0>         0.1248
     43 H17        -5.0592   -2.2851   -2.5231 H         1 <0>         0.1239
     44 H18        -3.7994   -3.7359   -4.0629 H         1 <0>         0.1250
     45 H19        -1.8735   -5.0293   -3.2375 H         1 <0>         0.1244
@<TRIPOS>BOND
     1    1    2 1
     2    1   29 1
     3    1   30 1
     4    1   31 1
     5    2    3 2
     6    2    4 1
     7    4    5 1
     8    5   10 ar
     9    5    6 ar
    10    6    7 ar
    11    6   32 1
    12    7   16 ar
    13    7    8 ar
    14    8    9 ar
    15    8   13 ar
    16    9   10 ar
    17    9   33 1
    18   10   11 1
    19   11   12 1
    20   12   34 1
    21   12   35 1
    22   12   36 1
    23   13   14 ar
    24   14   15 ar
    25   14   37 1
    26   15   16 ar
    27   16   17 1
    28   17   18 1
    29   17   38 1
    30   18   19 1
    31   18   21 1
    32   18   20 1
    33   20   21 1
    34   20   39 1
    35   20   40 1
    36   21   22 1
    37   21   23 1
    38   23   28 ar
    39   23   24 ar
    40   24   25 ar
    41   24   41 1
    42   25   26 ar
    43   25   42 1
    44   26   27 ar
    45   26   43 1
    46   27   28 ar
    47   27   44 1
    48   28   45 1
@<TRIPOS>MOLECULE
ZINC03815269
   39    42     0     0     0
SMALL
USER_CHARGES

@<TRIPOS>ATOM
      1 C1          8.2597    0.3052    0.8737 C.3       1 <0>         0.0233
      2 O1          7.1366    0.4918    0.0101 O.3       1 <0>        -0.3119
      3 C2          6.6077    1.7418   -0.0528 C.ar      1 <0>         0.1468
      4 C3          5.5154    1.9914   -0.8726 C.ar      1 <0>        -0.1467
      5 C4          4.9763    3.2589   -0.9387 C.ar      1 <0>        -0.0692
      6 C5          5.5298    4.2906   -0.1814 C.ar      1 <0>        -0.0725
      7 C6          6.6307    4.0380    0.6362 C.ar      1 <0>        -0.0394
      8 C7          7.1612    2.7669    0.7025 C.ar      1 <0>        -0.2040
      9 C8          4.9528    5.6543   -0.2500 C.2       1 <0>         0.1791
     10 C9          3.5474    6.0110   -0.0574 C.ar      1 <0>        -0.3168
     11 C10         3.4651    7.4071   -0.2182 C.ar      1 <0>         0.3815
     12 N1          4.7257    7.8494   -0.4889 N.pl3     1 <0>        -0.4803
     13 H1          4.9800    8.8018   -0.6570 H         1 <0>         0.4570
     14 N2          5.6084    6.7641   -0.4951 N.2       1 <0>        -0.2272
     15 N3          2.2772    7.9965   -0.0849 N.ar      1 <0>        -0.5670
     16 C11         1.2031    7.2878    0.1864 C.ar      1 <0>         0.3872
     17 N4          1.2337    5.9763    0.3408 N.ar      1 <0>        -0.5913
     18 C12         2.3716    5.2977    0.2270 C.ar      1 <0>         0.5094
     19 N5          2.3974    3.9251    0.3901 N.pl3     1 <0>        -0.6374
     20 C13         1.2002    3.2105    0.4909 C.ar      1 <0>         0.1588
     21 C14         1.1341    1.8966    0.0441 C.ar      1 <0>        -0.1452
     22 C15        -0.0499    1.1931    0.1444 C.ar      1 <0>        -0.0860
     23 C16        -1.1712    1.7964    0.6840 C.ar      1 <0>        -0.1283
     24 C17        -1.1079    3.1032    1.1349 C.ar      1 <0>        -0.0161
     25 C18         0.0745    3.8127    1.0373 C.ar      1 <0>        -0.1187
     26 Cl1        -2.5163    3.8543    1.8177 Cl        1 <0>        -0.0651
     27 H2          8.5827   -0.7349    0.8303 H         1 <0>         0.1046
     28 H3          9.0759    0.9528    0.5534 H         1 <0>         0.0593
     29 H4          7.9773    0.5555    1.8963 H         1 <0>         0.0592
     30 H5          5.0872    1.1918   -1.4589 H         1 <0>         0.1419
     31 H6          4.1266    3.4523   -1.5766 H         1 <0>         0.1357
     32 H7          7.0644    4.8360    1.2206 H         1 <0>         0.1338
     33 H8          8.0109    2.5696    1.3393 H         1 <0>         0.1379
     34 H9          0.2573    7.7992    0.2874 H         1 <0>         0.2097
     35 H10         3.2463    3.4578    0.4347 H         1 <0>         0.4241
     36 H11         2.0079    1.4259   -0.3815 H         1 <0>         0.1308
     37 H12        -0.1015    0.1719   -0.2032 H         1 <0>         0.1369
     38 H13        -2.0972    1.2453    0.7571 H         1 <0>         0.1338
     39 H14         0.1226    4.8340    1.3851 H         1 <0>         0.1722
@<TRIPOS>BOND
     1    1    2 1
     2    1   27 1
     3    1   28 1
     4    1   29 1
     5    2    3 1
     6    3    8 ar
     7    3    4 ar
     8    4    5 ar
     9    4   30 1
    10    5    6 ar
    11    5   31 1
    12    6    7 ar
    13    6    9 1
    14    7    8 ar
    15    7   32 1
    16    8   33 1
    17    9   14 2
    18    9   10 1
    19   10   18 ar
    20   10   11 ar
    21   11   12 1
    22   11   15 ar
    23   12   13 1
    24   12   14 1
    25   15   16 ar
    26   16   17 ar
    27   16   34 1
    28   17   18 ar
    29   18   19 1
    30   19   20 1
    31   19   35 1
    32   20   25 ar
    33   20   21 ar
    34   21   22 ar
    35   21   36 1
    36   22   23 ar
    37   22   37 1
    38   23   24 ar
    39   23   38 1
    40   24   25 ar
    41   24   26 1
    42   25   39 1
@<TRIPOS>MOLECULE
ZINC03815270
   46    50     0     0     0
SMALL
USER_CHARGES

@<TRIPOS>ATOM
      1 C1          0.8652    1.3723    0.2735 C.ar      1 <0>        -0.1149
      2 C2         -0.3976    0.8118    0.1998 C.ar      1 <0>        -0.1152
      3 C3         -1.5114    1.6219    0.1184 C.ar      1 <0>        -0.1171
      4 C4         -1.3629    3.0093    0.1207 C.ar      1 <0>        -0.0203
      5 C5         -0.0866    3.5683    0.1952 C.ar      1 <0>        -0.0974
      6 C6          1.0195    2.7472    0.2714 C.ar      1 <0>        -0.1141
      7 C7         -2.5538    3.8843    0.0388 C.2       1 <0>        -0.0837
      8 C8         -3.4881    3.9949   -1.0859 C.ar      1 <0>        -0.2371
      9 C9         -4.4547    4.9453   -0.7100 C.ar      1 <0>         0.3535
     10 N1         -4.1420    5.3870    0.5478 N.pl3     1 <0>        -0.5568
     11 H1         -4.6485    6.0481    1.0451 H         1 <0>         0.4254
     12 C10        -3.0096    4.7543    1.0080 C.2       1 <0>         0.1323
     13 C11        -2.3813    4.9740    2.3255 C.ar      1 <0>        -0.0378
     14 C12        -1.9629    3.8851    3.0938 C.ar      1 <0>        -0.0819
     15 C13        -1.3722    4.0980    4.3219 C.ar      1 <0>        -0.1161
     16 C14        -1.2032    5.3863    4.7979 C.ar      1 <0>        -0.1064
     17 C15        -1.6201    6.4696    4.0445 C.ar      1 <0>        -0.1172
     18 C16        -2.2075    6.2717    2.8123 C.ar      1 <0>        -0.1043
     19 N2         -5.4317    5.2316   -1.5698 N.ar      1 <0>        -0.5610
     20 C17        -5.4904    4.6396   -2.7434 C.ar      1 <0>         0.3614
     21 N3         -4.6043    3.7426   -3.1353 N.ar      1 <0>        -0.5819
     22 C18        -3.5923    3.3899   -2.3471 C.ar      1 <0>         0.4818
     23 N4         -2.6651    2.4495   -2.7614 N.pl3     1 <0>        -0.6415
     24 C19        -2.8489    1.7722   -3.9702 C.ar      1 <0>         0.1703
     25 C20        -1.7489    1.3878   -4.7270 C.ar      1 <0>        -0.1466
     26 C21        -1.9333    0.7183   -5.9206 C.ar      1 <0>        -0.0844
     27 C22        -3.2112    0.4296   -6.3633 C.ar      1 <0>        -0.1300
     28 C23        -4.3093    0.8104   -5.6122 C.ar      1 <0>        -0.0136
     29 C24        -4.1311    1.4770   -4.4143 C.ar      1 <0>        -0.1075
     30 Cl1        -5.9117    0.4453   -6.1716 Cl        1 <0>        -0.0658
     31 H2          1.7342    0.7338    0.3333 H         1 <0>         0.1243
     32 H3         -0.5114   -0.2622    0.2015 H         1 <0>         0.1260
     33 H4         -2.4963    1.1832    0.0564 H         1 <0>         0.1227
     34 H5          0.0351    4.6415    0.1930 H         1 <0>         0.1222
     35 H6          2.0079    3.1787    0.3291 H         1 <0>         0.1252
     36 H7         -2.0979    2.8789    2.7253 H         1 <0>         0.1271
     37 H8         -1.0449    3.2572    4.9153 H         1 <0>         0.1283
     38 H9         -0.7435    5.5471    5.7619 H         1 <0>         0.1264
     39 H10        -1.4848    7.4724    4.4220 H         1 <0>         0.1278
     40 H11        -2.5321    7.1181    2.2252 H         1 <0>         0.1228
     41 H12        -6.2968    4.8978   -3.4137 H         1 <0>         0.2042
     42 H13        -1.8877    2.2606   -2.2130 H         1 <0>         0.4233
     43 H14        -0.7505    1.6128   -4.3822 H         1 <0>         0.1291
     44 H15        -1.0783    0.4195   -6.5089 H         1 <0>         0.1362
     45 H16        -3.3525   -0.0944   -7.2970 H         1 <0>         0.1340
     46 H17        -4.9880    1.7708   -3.8263 H         1 <0>         0.1483
@<TRIPOS>BOND
     1    1    6 ar
     2    1    2 ar
     3    1   31 1
     4    2    3 ar
     5    2   32 1
     6    3    4 ar
     7    3   33 1
     8    4    5 ar
     9    4    7 1
    10    5    6 ar
    11    5   34 1
    12    6   35 1
    13    7   12 2
    14    7    8 1
    15    8   22 ar
    16    8    9 ar
    17    9   10 1
    18    9   19 ar
    19   10   11 1
    20   10   12 1
    21   12   13 1
    22   13   18 ar
    23   13   14 ar
    24   14   15 ar
    25   14   36 1
    26   15   16 ar
    27   15   37 1
    28   16   17 ar
    29   16   38 1
    30   17   18 ar
    31   17   39 1
    32   18   40 1
    33   19   20 ar
    34   20   21 ar
    35   20   41 1
    36   21   22 ar
    37   22   23 1
    38   23   24 1
    39   23   42 1
    40   24   29 ar
    41   24   25 ar
    42   25   26 ar
    43   25   43 1
    44   26   27 ar
    45   26   44 1
    46   27   28 ar
    47   27   45 1
    48   28   29 ar
    49   28   30 1
    50   29   46 1
@<TRIPOS>MOLECULE
ZINC03815272
   44    46     0     0     0
SMALL
USER_CHARGES

@<TRIPOS>ATOM
      1 C1         -0.3774    1.3793   -0.3595 C.3       1 <0>         0.0234
      2 O1         -1.0848    1.9095    0.7631 O.3       1 <0>        -0.3134
      3 C2         -1.9769    1.0866    1.3751 C.ar      1 <0>         0.1212
      4 C3         -2.1666   -0.2100    0.8915 C.ar      1 <0>        -0.1492
      5 C4         -3.0494   -1.0586    1.4880 C.ar      1 <0>        -0.0628
      6 C5         -3.7900   -0.6269    2.5969 C.ar      1 <0>         0.1563
      7 C6         -3.6061    0.6887    3.0883 C.ar      1 <0>        -0.1492
      8 C7         -2.6897    1.5414    2.4635 C.ar      1 <0>        -0.1227
      9 C8         -4.3680    1.0967    4.2103 C.ar      1 <0>         0.4610
     10 N1         -5.2145    0.2255    4.7431 N.ar      1 <0>        -0.5717
     11 C9         -5.3527   -0.9945    4.2492 C.ar      1 <0>         0.3321
     12 N2         -4.6742   -1.4264    3.2130 N.ar      1 <0>        -0.5333
     13 N3         -4.2331    2.3656    4.7351 N.pl3     1 <0>        -0.6366
     14 C10        -5.0763    2.7887    5.7690 C.ar      1 <0>         0.2281
     15 C11        -6.3862    2.3319    5.8269 C.ar      1 <0>        -0.2260
     16 C12        -7.2204    2.7466    6.8531 C.ar      1 <0>         0.1697
     17 C13        -6.7485    3.6278    7.8187 C.ar      1 <0>         0.0133
     18 C14        -5.4388    4.0888    7.7571 C.ar      1 <0>         0.1702
     19 C15        -4.6043    3.6694    6.7329 C.ar      1 <0>        -0.2628
     20 O2         -4.9762    4.9514    8.7011 O.3       1 <0>        -0.2989
     21 C16        -3.6202    5.3845    8.5756 C.3       1 <0>         0.0239
     22 O3         -7.5687    4.0391    8.8248 O.3       1 <0>        -0.3105
     23 C17        -8.3395    5.2196    8.5919 C.3       1 <0>         0.0345
     24 O4         -8.5017    2.2947    6.9128 O.3       1 <0>        -0.2987
     25 C18        -8.9194    1.3912    5.8876 C.3       1 <0>         0.0250
     26 H1          0.1956    0.5058   -0.0484 H         1 <0>         0.0589
     27 H2          0.3003    2.1370   -0.7529 H         1 <0>         0.1048
     28 H3         -1.0883    1.0905   -1.1337 H         1 <0>         0.0589
     29 H4         -1.6016   -0.5462    0.0347 H         1 <0>         0.1426
     30 H5         -3.1818   -2.0596    1.1048 H         1 <0>         0.1477
     31 H6         -2.5425    2.5465    2.8303 H         1 <0>         0.1350
     32 H7         -6.0557   -1.6651    4.7208 H         1 <0>         0.1977
     33 H8         -3.5538    2.9645    4.3875 H         1 <0>         0.4236
     34 H9         -6.7540    1.6503    5.0742 H         1 <0>         0.1520
     35 H10        -3.5865    4.0275    6.6849 H         1 <0>         0.1377
     36 H11        -3.3801    6.0676    9.3903 H         1 <0>         0.1041
     37 H12        -2.9573    4.5204    8.6186 H         1 <0>         0.0581
     38 H13        -3.4890    5.8960    7.6220 H         1 <0>         0.0569
     39 H14        -7.6705    6.0580    8.3982 H         1 <0>         0.0433
     40 H15        -8.9882    5.0657    7.7295 H         1 <0>         0.0436
     41 H16        -8.9479    5.4355    9.4702 H         1 <0>         0.0921
     42 H17        -8.2929    0.4995    5.9117 H         1 <0>         0.0636
     43 H18        -9.9592    1.1093    6.0532 H         1 <0>         0.1029
     44 H19        -8.8246    1.8755    4.9157 H         1 <0>         0.0536
@<TRIPOS>BOND
     1    1    2 1
     2    1   26 1
     3    1   27 1
     4    1   28 1
     5    2    3 1
     6    3    8 ar
     7    3    4 ar
     8    4    5 ar
     9    4   29 1
    10    5    6 ar
    11    5   30 1
    12    6   12 ar
    13    6    7 ar
    14    7    8 ar
    15    7    9 ar
    16    8   31 1
    17    9   10 ar
    18    9   13 1
    19   10   11 ar
    20   11   12 ar
    21   11   32 1
    22   13   14 1
    23   13   33 1
    24   14   19 ar
    25   14   15 ar
    26   15   16 ar
    27   15   34 1
    28   16   17 ar
    29   16   24 1
    30   17   18 ar
    31   17   22 1
    32   18   19 ar
    33   18   20 1
    34   19   35 1
    35   20   21 1
    36   21   36 1
    37   21   37 1
    38   21   38 1
    39   22   23 1
    40   23   39 1
    41   23   40 1
    42   23   41 1
    43   24   25 1
    44   25   42 1
    45   25   43 1
    46   25   44 1
@<TRIPOS>MOLECULE
ZINC03815273
   39    41     0     0     0
SMALL
USER_CHARGES

@<TRIPOS>ATOM
      1 C1         -2.9544    4.0253   -1.2959 C.3       1 <0>         0.0965
      2 N1         -2.4991    3.6455    0.0438 N.pl3     1 <0>        -0.5797
      3 C2         -3.2959    3.9240    1.1579 C.ar      1 <0>         0.2235
      4 C3         -4.5669    4.4591    0.9884 C.ar      1 <0>        -0.1760
      5 C4         -5.3523    4.7328    2.0907 C.ar      1 <0>        -0.0613
      6 C5         -4.8756    4.4747    3.3629 C.ar      1 <0>        -0.1558
      7 C6         -3.6105    3.9413    3.5358 C.ar      1 <0>         0.0112
      8 C7         -2.8212    3.6610    2.4361 C.ar      1 <0>        -0.1707
      9 Cl1        -3.0167    3.6177    5.1347 Cl        1 <0>        -0.0659
     10 C8         -1.2829    3.0125    0.2058 C.ar      1 <0>         0.4466
     11 C9         -0.0840    3.7575    0.3071 C.ar      1 <0>        -0.1458
     12 C10        -0.0740    5.1566    0.2485 C.ar      1 <0>        -0.1481
     13 C11         1.1101    5.8293    0.3507 C.ar      1 <0>         0.1232
     14 C12         2.3172    5.1345    0.5138 C.ar      1 <0>         0.1628
     15 C13         2.3342    3.7590    0.5745 C.ar      1 <0>        -0.1812
     16 C14         1.1315    3.0488    0.4718 C.ar      1 <0>         0.1797
     17 N2          1.0942    1.7081    0.5246 N.ar      1 <0>        -0.5015
     18 C15        -0.0477    1.0702    0.4251 C.ar      1 <0>         0.3107
     19 N3         -1.2064    1.6894    0.2653 N.ar      1 <0>        -0.5284
     20 O1          3.4822    5.8260    0.6136 O.3       1 <0>        -0.2955
     21 C16         4.6782    5.0616    0.7789 C.3       1 <0>         0.0194
     22 O2          1.1187    7.1879    0.2942 O.3       1 <0>        -0.2982
     23 C17        -0.1427    7.8382    0.1269 C.3       1 <0>         0.0222
     24 H1         -3.6060    3.2467   -1.6925 H         1 <0>         0.0637
     25 H2         -3.5037    4.9651   -1.2400 H         1 <0>         0.0808
     26 H3         -2.0924    4.1467   -1.9518 H         1 <0>         0.0731
     27 H4         -4.9402    4.6611   -0.0047 H         1 <0>         0.1337
     28 H5         -6.3402    5.1488    1.9590 H         1 <0>         0.1367
     29 H6         -5.4922    4.6894    4.2232 H         1 <0>         0.1338
     30 H7         -1.8352    3.2413    2.5710 H         1 <0>         0.1228
     31 H8         -0.9983    5.7010    0.1234 H         1 <0>         0.1488
     32 H9          3.2682    3.2316    0.7006 H         1 <0>         0.1580
     33 H10        -0.0414   -0.0088    0.4712 H         1 <0>         0.2014
     34 H11         4.6088    4.4714    1.6926 H         1 <0>         0.0628
     35 H12         4.8049    4.3959   -0.0749 H         1 <0>         0.0626
     36 H13         5.5332    5.7344    0.8450 H         1 <0>         0.1086
     37 H14        -0.6003    7.5091   -0.8061 H         1 <0>         0.0582
     38 H15        -0.7961    7.5839    0.9615 H         1 <0>         0.0593
     39 H16         0.0060    8.9176    0.0977 H         1 <0>         0.1079
@<TRIPOS>BOND
     1    1    2 1
     2    1   24 1
     3    1   25 1
     4    1   26 1
     5    2    3 1
     6    2   10 1
     7    3    8 ar
     8    3    4 ar
     9    4    5 ar
    10    4   27 1
    11    5    6 ar
    12    5   28 1
    13    6    7 ar
    14    6   29 1
    15    7    8 ar
    16    7    9 1
    17    8   30 1
    18   10   19 ar
    19   10   11 ar
    20   11   16 ar
    21   11   12 ar
    22   12   13 ar
    23   12   31 1
    24   13   14 ar
    25   13   22 1
    26   14   15 ar
    27   14   20 1
    28   15   16 ar
    29   15   32 1
    30   16   17 ar
    31   17   18 ar
    32   18   19 ar
    33   18   33 1
    34   20   21 1
    35   21   34 1
    36   21   35 1
    37   21   36 1
    38   22   23 1
    39   23   37 1
    40   23   38 1
    41   23   39 1
@<TRIPOS>MOLECULE
ZINC03815274
   30    32     0     0     0
SMALL
USER_CHARGES

@<TRIPOS>ATOM
      1 C1         -0.0103    1.0762   -0.0255 C.ar      1 <0>        -0.1354
      2 C2          0.9256    1.7694    0.7201 C.ar      1 <0>        -0.1008
      3 C3          0.9125    3.1503    0.7362 C.ar      1 <0>        -0.1488
      4 C4         -0.0492    3.8426    0.0114 C.ar      1 <0>         0.1504
      5 C5         -0.9913    3.1431   -0.7319 C.ar      1 <0>        -0.1103
      6 C6         -0.9691    1.7623   -0.7481 C.ar      1 <0>        -0.1008
      7 N1         -0.0691    5.2402    0.0304 N.pl3     1 <0>        -0.6412
      8 C7         -1.2698    5.9144   -0.0587 C.ar      1 <0>         0.4746
      9 C8         -1.3048    7.3253   -0.1588 C.ar      1 <0>        -0.2375
     10 C9         -0.1359    8.0966   -0.1722 C.ar      1 <0>        -0.0282
     11 C10        -0.2219    9.4517   -0.2705 C.ar      1 <0>        -0.1855
     12 C11        -1.4661   10.0866   -0.3592 C.ar      1 <0>         0.2601
     13 C12        -2.6350    9.3516   -0.3484 C.ar      1 <0>        -0.2133
     14 C13        -2.5699    7.9579   -0.2476 C.ar      1 <0>         0.2337
     15 N2         -3.6747    7.1956   -0.2331 N.ar      1 <0>        -0.5585
     16 C14        -3.5808    5.8905   -0.1384 C.ar      1 <0>         0.3521
     17 N3         -2.4221    5.2563   -0.0583 N.ar      1 <0>        -0.5952
     18 N4         -1.5258   11.4749   -0.4598 N.pl3     1 <0>        -0.8647
     19 H1          0.0048   -0.0036   -0.0398 H         1 <0>         0.1227
     20 H2          1.6700    1.2303    1.2872 H         1 <0>         0.1255
     21 H3          1.6465    3.6911    1.3151 H         1 <0>         0.1230
     22 H4         -1.7406    3.6784   -1.2962 H         1 <0>         0.1377
     23 H5         -1.7016    1.2178   -1.3256 H         1 <0>         0.1254
     24 H6          0.7612    5.7361    0.1062 H         1 <0>         0.4191
     25 H7          0.8300    7.6183   -0.1051 H         1 <0>         0.1267
     26 H8          0.6811   10.0441   -0.2806 H         1 <0>         0.1310
     27 H9         -3.5914    9.8485   -0.4175 H         1 <0>         0.1371
     28 H10        -4.4897    5.3072   -0.1296 H         1 <0>         0.1944
     29 H11        -0.7078   11.9962   -0.4682 H         1 <0>         0.4025
     30 H12        -2.3853   11.9202   -0.5215 H         1 <0>         0.4042
@<TRIPOS>BOND
     1    1    6 ar
     2    1    2 ar
     3    1   19 1
     4    2    3 ar
     5    2   20 1
     6    3    4 ar
     7    3   21 1
     8    4    5 ar
     9    4    7 1
    10    5    6 ar
    11    5   22 1
    12    6   23 1
    13    7    8 1
    14    7   24 1
    15    8   17 ar
    16    8    9 ar
    17    9   14 ar
    18    9   10 ar
    19   10   11 ar
    20   10   25 1
    21   11   12 ar
    22   11   26 1
    23   12   13 ar
    24   12   18 1
    25   13   14 ar
    26   13   27 1
    27   14   15 ar
    28   15   16 ar
    29   16   17 ar
    30   16   28 1
    31   18   29 1
    32   18   30 1
@<TRIPOS>MOLECULE
ZINC03815275
   54    56     0     0     0
SMALL
USER_CHARGES

@<TRIPOS>ATOM
      1 C1          9.5402    4.3522    0.7971 C.3       1 <0>        -0.1532
      2 C2          8.3469    3.4086    0.6338 C.3       1 <0>        -0.1214
      3 C3          7.0657    4.2294    0.4737 C.3       1 <0>        -0.1195
      4 C4          5.8725    3.2858    0.3104 C.3       1 <0>         0.0540
      5 O1          4.6759    4.0526    0.1608 O.3       1 <0>        -0.2977
      6 C5          3.5154    3.3614    0.0039 C.ar      1 <0>         0.1152
      7 C6          3.5385    1.9956   -0.0045 C.ar      1 <0>        -0.1500
      8 C7          2.3443    1.2830   -0.1660 C.ar      1 <0>        -0.1818
      9 C8          1.1206    1.9806   -0.3200 C.ar      1 <0>         0.2018
     10 C9          1.1201    3.3807   -0.3075 C.ar      1 <0>        -0.1847
     11 C10         2.3085    4.0583   -0.1471 C.ar      1 <0>         0.1675
     12 O2          2.3110    5.4167   -0.1347 O.3       1 <0>        -0.2948
     13 C11         1.0496    6.0693   -0.2931 C.3       1 <0>         0.0519
     14 C12         1.2511    7.5854   -0.2533 C.3       1 <0>        -0.1188
     15 C13        -0.0994    8.2840   -0.4230 C.3       1 <0>        -0.1220
     16 C14         0.1021    9.8002   -0.3832 C.3       1 <0>        -0.1528
     17 N1         -0.0100    1.2732   -0.4726 N.ar      1 <0>        -0.5405
     18 C15         0.0218   -0.0382   -0.4786 C.ar      1 <0>         0.3427
     19 N2          1.1403   -0.7318   -0.3387 N.ar      1 <0>        -0.5799
     20 C16         2.3130   -0.1318   -0.1814 C.ar      1 <0>         0.4627
     21 N3          3.4719   -0.8679   -0.0362 N.pl3     1 <0>        -0.6400
     22 C17         3.4074   -2.2607    0.0624 C.ar      1 <0>         0.1595
     23 C18         4.4332   -3.0433   -0.4528 C.ar      1 <0>        -0.1340
     24 C19         4.3671   -4.4190   -0.3535 C.ar      1 <0>        -0.0917
     25 C20         3.2815   -5.0185    0.2584 C.ar      1 <0>        -0.1073
     26 C21         2.2581   -4.2425    0.7730 C.ar      1 <0>        -0.0704
     27 C22         2.3205   -2.8649    0.6807 C.ar      1 <0>        -0.0848
     28 Br1         0.7761   -5.0671    1.6093 Br        1 <0>        -0.0437
     29 H1          9.6238    4.9880   -0.0843 H         1 <0>         0.0567
     30 H2          9.3939    4.9734    1.6807 H         1 <0>         0.0567
     31 H3         10.4529    3.7673    0.9112 H         1 <0>         0.0581
     32 H4          8.2632    2.7727    1.5151 H         1 <0>         0.0650
     33 H5          8.4932    2.7874   -0.2498 H         1 <0>         0.0648
     34 H6          7.1494    4.8653   -0.4077 H         1 <0>         0.0762
     35 H7          6.9194    4.8506    1.3573 H         1 <0>         0.0762
     36 H8          5.7888    2.6500    1.1917 H         1 <0>         0.0634
     37 H9          6.0188    2.6646   -0.5733 H         1 <0>         0.0631
     38 H10         4.4735    1.4680    0.1133 H         1 <0>         0.1379
     39 H11         0.1948    3.9253   -0.4232 H         1 <0>         0.1552
     40 H12         0.6117    5.7859   -1.2503 H         1 <0>         0.0685
     41 H13         0.3818    5.7702    0.5147 H         1 <0>         0.0686
     42 H14         1.6890    7.8687    0.7038 H         1 <0>         0.0756
     43 H15         1.9190    7.8845   -1.0612 H         1 <0>         0.0755
     44 H16        -0.5373    8.0007   -1.3801 H         1 <0>         0.0659
     45 H17        -0.7673    7.9849    0.3848 H         1 <0>         0.0660
     46 H18         0.5400   10.0835    0.5739 H         1 <0>         0.0562
     47 H19         0.7700   10.0993   -1.1911 H         1 <0>         0.0562
     48 H20        -0.8600   10.2979   -0.5041 H         1 <0>         0.0581
     49 H21        -0.9064   -0.5760   -0.6035 H         1 <0>         0.1982
     50 H22         4.3309   -0.4186   -0.0026 H         1 <0>         0.4206
     51 H23         5.2815   -2.5761   -0.9308 H         1 <0>         0.1309
     52 H24         5.1645   -5.0276   -0.7539 H         1 <0>         0.1370
     53 H25         3.2325   -6.0947    0.3350 H         1 <0>         0.1346
     54 H26         1.5236   -2.2591    1.0862 H         1 <0>         0.1485
@<TRIPOS>BOND
     1    1    2 1
     2    1   29 1
     3    1   30 1
     4    1   31 1
     5    2    3 1
     6    2   32 1
     7    2   33 1
     8    3    4 1
     9    3   34 1
    10    3   35 1
    11    4    5 1
    12    4   36 1
    13    4   37 1
    14    5    6 1
    15    6   11 ar
    16    6    7 ar
    17    7    8 ar
    18    7   38 1
    19    8   20 ar
    20    8    9 ar
    21    9   10 ar
    22    9   17 ar
    23   10   11 ar
    24   10   39 1
    25   11   12 1
    26   12   13 1
    27   13   14 1
    28   13   40 1
    29   13   41 1
    30   14   15 1
    31   14   42 1
    32   14   43 1
    33   15   16 1
    34   15   44 1
    35   15   45 1
    36   16   46 1
    37   16   47 1
    38   16   48 1
    39   17   18 ar
    40   18   19 ar
    41   18   49 1
    42   19   20 ar
    43   20   21 1
    44   21   22 1
    45   21   50 1
    46   22   27 ar
    47   22   23 ar
    48   23   24 ar
    49   23   51 1
    50   24   25 ar
    51   24   52 1
    52   25   26 ar
    53   25   53 1
    54   26   27 ar
    55   26   28 1
    56   27   54 1
@<TRIPOS>MOLECULE
ZINC03815276
   30    32     0     0     0
SMALL
USER_CHARGES

@<TRIPOS>ATOM
      1 C1          3.6715   -4.5001   -0.8124 C.ar      1 <0>        -0.0920
      2 C2          3.9028   -3.1471   -0.6580 C.ar      1 <0>        -0.1329
      3 C3          2.8436   -2.2509   -0.7216 C.ar      1 <0>         0.1543
      4 C4          1.5533   -2.7192   -0.9352 C.ar      1 <0>        -0.0823
      5 C5          1.3291   -4.0733   -1.0936 C.ar      1 <0>        -0.0707
      6 C6          2.3872   -4.9632   -1.0296 C.ar      1 <0>        -0.1062
      7 Br1        -0.4258   -4.7120   -1.3909 Br        1 <0>        -0.0435
      8 N1          3.0746   -0.8812   -0.5653 N.pl3     1 <0>        -0.6451
      9 C7          2.1482   -0.0955    0.0894 C.ar      1 <0>         0.4704
     10 C8          2.2796    1.3111    0.1165 C.ar      1 <0>        -0.2167
     11 C9          3.3473    1.9742   -0.5141 C.ar      1 <0>         0.2257
     12 C10         3.4169    3.3537   -0.4508 C.ar      1 <0>        -0.1767
     13 C11         2.4470    4.0811    0.2272 C.ar      1 <0>        -0.0469
     14 C12         1.4023    3.4589    0.8464 C.ar      1 <0>        -0.1359
     15 C13         1.2965    2.0633    0.8044 C.ar      1 <0>         0.2059
     16 N2          0.2856    1.4105    1.3990 N.ar      1 <0>        -0.5463
     17 C14         0.2141    0.1017    1.3413 C.ar      1 <0>         0.3484
     18 N3          1.1094   -0.6408    0.7104 N.ar      1 <0>        -0.5876
     19 N4          4.3218    1.2510   -1.1936 N.pl3     1 <0>        -0.8960
     20 H1          4.4950   -5.1971   -0.7630 H         1 <0>         0.1372
     21 H2          4.9065   -2.7862   -0.4884 H         1 <0>         0.1300
     22 H3          0.7269   -2.0253   -0.9807 H         1 <0>         0.1423
     23 H4          2.2090   -6.0217   -1.1492 H         1 <0>         0.1350
     24 H5          3.8862   -0.4830   -0.9170 H         1 <0>         0.4201
     25 H6          4.2333    3.8706   -0.9331 H         1 <0>         0.1322
     26 H7          2.5208    5.1580    0.2646 H         1 <0>         0.1356
     27 H8          0.6578    4.0422    1.3679 H         1 <0>         0.1407
     28 H9         -0.6128   -0.3917    1.8304 H         1 <0>         0.1972
     29 H10         4.0628    0.5947   -1.8592 H         1 <0>         0.3974
     30 H11         5.2604    1.4029   -1.0018 H         1 <0>         0.4066
@<TRIPOS>BOND
     1    1    6 ar
     2    1    2 ar
     3    1   20 1
     4    2    3 ar
     5    2   21 1
     6    3    4 ar
     7    3    8 1
     8    4    5 ar
     9    4   22 1
    10    5    6 ar
    11    5    7 1
    12    6   23 1
    13    8    9 1
    14    8   24 1
    15    9   18 ar
    16    9   10 ar
    17   10   15 ar
    18   10   11 ar
    19   11   12 ar
    20   11   19 1
    21   12   13 ar
    22   12   25 1
    23   13   14 ar
    24   13   26 1
    25   14   15 ar
    26   14   27 1
    27   15   16 ar
    28   16   17 ar
    29   17   18 ar
    30   17   28 1
    31   19   29 1
    32   19   30 1
@<TRIPOS>MOLECULE
ZINC03815277
   39    42     0     0     0
SMALL
USER_CHARGES

@<TRIPOS>ATOM
      1 C1         -4.8476   -2.9093    0.4596 C.3       1 <0>        -0.1135
      2 C2         -3.5591   -2.1373    0.3381 C.ar      1 <0>        -0.1030
      3 C3         -3.5358   -0.9377   -0.3494 C.ar      1 <0>        -0.1010
      4 C4         -2.3566   -0.2277   -0.4626 C.ar      1 <0>        -0.1059
      5 C5         -1.1932   -0.7199    0.1151 C.ar      1 <0>         0.1493
      6 C6         -1.2190   -1.9278    0.8005 C.ar      1 <0>        -0.1451
      7 C7         -2.4025   -2.6304    0.9140 C.ar      1 <0>        -0.1008
      8 N1          0.0021   -0.0041    0.0020 N.pl3     1 <0>        -0.6460
      9 C8         -0.0159    1.3799    0.0176 C.ar      1 <0>         0.4806
     10 C9          1.1562    2.1167   -0.2147 C.ar      1 <0>        -0.2448
     11 C10         2.5461    1.7918   -0.5026 C.2       1 <0>        -0.1340
     12 C11         3.2099    2.9577   -0.6249 C.2       1 <0>         0.0719
     13 N2          2.3423    3.9995   -0.4379 N.pl3     1 <0>        -0.5619
     14 H1          2.5839    4.9381   -0.4771 H         1 <0>         0.4215
     15 C12         1.0837    3.5232   -0.1866 C.ar      1 <0>         0.3444
     16 N3         -0.0937    4.0954    0.0585 N.ar      1 <0>        -0.5645
     17 C13        -1.1661    3.3641    0.2706 C.ar      1 <0>         0.3562
     18 N4         -1.1448    2.0435    0.2475 N.ar      1 <0>        -0.5838
     19 C14         4.6881    3.0531   -0.9242 C.3       1 <0>        -0.0543
     20 C15         5.3317    1.6912   -0.6410 C.3       1 <0>        -0.1150
     21 C16         4.5307    0.5914   -1.3437 C.3       1 <0>        -0.1197
     22 C17         3.1734    0.4294   -0.6482 C.3       1 <0>        -0.0535
     23 H2         -4.9392   -3.5979   -0.3804 H         1 <0>         0.0688
     24 H3         -4.8471   -3.4726    1.3928 H         1 <0>         0.0650
     25 H4         -5.6885   -2.2158    0.4543 H         1 <0>         0.0657
     26 H5         -4.4406   -0.5557   -0.7986 H         1 <0>         0.1241
     27 H6         -2.3392    0.7093   -0.9994 H         1 <0>         0.1332
     28 H7         -0.3152   -2.3154    1.2470 H         1 <0>         0.1225
     29 H8         -2.4241   -3.5677    1.4500 H         1 <0>         0.1245
     30 H9          0.8441   -0.4772   -0.0874 H         1 <0>         0.4185
     31 H10        -2.1036    3.8637    0.4656 H         1 <0>         0.2014
     32 H11         5.1423    3.8122   -0.2874 H         1 <0>         0.0809
     33 H12         4.8333    3.3157   -1.9721 H         1 <0>         0.0851
     34 H13         5.3355    1.5077    0.4335 H         1 <0>         0.0700
     35 H14         6.3560    1.6890   -1.0135 H         1 <0>         0.0765
     36 H15         5.0804   -0.3485   -1.2922 H         1 <0>         0.0728
     37 H16         4.3744    0.8647   -2.3873 H         1 <0>         0.0680
     38 H17         3.3173   -0.0148    0.3368 H         1 <0>         0.0754
     39 H18         2.5271   -0.2090   -1.2504 H         1 <0>         0.0708
@<TRIPOS>BOND
     1    1    2 1
     2    1   23 1
     3    1   24 1
     4    1   25 1
     5    2    7 ar
     6    2    3 ar
     7    3    4 ar
     8    3   26 1
     9    4    5 ar
    10    4   27 1
    11    5    6 ar
    12    5    8 1
    13    6    7 ar
    14    6   28 1
    15    7   29 1
    16    8    9 1
    17    8   30 1
    18    9   18 ar
    19    9   10 ar
    20   10   15 ar
    21   10   11 1
    22   11   22 1
    23   11   12 2
    24   12   13 1
    25   12   19 1
    26   13   14 1
    27   13   15 1
    28   15   16 ar
    29   16   17 ar
    30   17   18 ar
    31   17   31 1
    32   19   20 1
    33   19   32 1
    34   19   33 1
    35   20   21 1
    36   20   34 1
    37   20   35 1
    38   21   22 1
    39   21   36 1
    40   21   37 1
    41   22   38 1
    42   22   39 1
@<TRIPOS>MOLECULE
ZINC03815278
   36    38     0     0     0
SMALL
USER_CHARGES

@<TRIPOS>ATOM
      1 C1          5.8724    3.2860    0.3106 C.3       1 <0>         0.0213
      2 O1          4.6758    4.0526    0.1605 O.3       1 <0>        -0.2995
      3 C2          3.5154    3.3614    0.0034 C.ar      1 <0>         0.1133
      4 C3          3.5385    1.9956   -0.0045 C.ar      1 <0>        -0.1502
      5 C4          2.3443    1.2830   -0.1661 C.ar      1 <0>        -0.1799
      6 C5          1.1206    1.9805   -0.3202 C.ar      1 <0>         0.2016
      7 C6          1.1202    3.3805   -0.3091 C.ar      1 <0>        -0.1832
      8 C7          2.3086    4.0583   -0.1491 C.ar      1 <0>         0.1645
      9 O2          2.3113    5.4167   -0.1384 O.3       1 <0>        -0.2967
     10 C8          1.0500    6.0692   -0.2983 C.3       1 <0>         0.0198
     11 N1         -0.0099    1.2730   -0.4729 N.ar      1 <0>        -0.5380
     12 C9          0.0219   -0.0383   -0.4789 C.ar      1 <0>         0.3432
     13 N2          1.1404   -0.7319   -0.3385 N.ar      1 <0>        -0.5805
     14 C10         2.3130   -0.1318   -0.1811 C.ar      1 <0>         0.4622
     15 N3          3.4719   -0.8679   -0.0353 N.pl3     1 <0>        -0.6390
     16 C11         3.4074   -2.2607    0.0638 C.ar      1 <0>         0.1698
     17 C12         2.3201   -2.8646    0.6821 C.ar      1 <0>        -0.0701
     18 C13         2.2563   -4.2421    0.7735 C.ar      1 <0>        -0.0662
     19 C14         3.2795   -5.0190    0.2599 C.ar      1 <0>        -0.0791
     20 C15         4.3666   -4.4199   -0.3515 C.ar      1 <0>        -0.0659
     21 C16         4.4331   -3.0431   -0.4509 C.ar      1 <0>        -0.1079
     22 Br1         5.7623   -5.4861   -1.0524 Br        1 <0>        -0.0291
     23 Br2         0.7727   -5.0657    1.6082 Br        1 <0>        -0.0277
     24 H1          6.0189    2.6645   -0.5728 H         1 <0>         0.0576
     25 H2          6.7224    3.9583    0.4269 H         1 <0>         0.1075
     26 H3          5.7885    2.6504    1.1921 H         1 <0>         0.0578
     27 H4          4.4734    1.4680    0.1137 H         1 <0>         0.1395
     28 H5          0.1950    3.9252   -0.4260 H         1 <0>         0.1569
     29 H6          0.3818    5.7712    0.5096 H         1 <0>         0.0626
     30 H7          1.1937    7.1493   -0.2713 H         1 <0>         0.1078
     31 H8          0.6125    5.7847   -1.2553 H         1 <0>         0.0626
     32 H9         -0.9062   -0.5762   -0.6043 H         1 <0>         0.1994
     33 H10         4.3309   -0.4185   -0.0016 H         1 <0>         0.4228
     34 H11         1.5232   -2.2586    1.0871 H         1 <0>         0.1555
     35 H12         3.2295   -6.0952    0.3361 H         1 <0>         0.1453
     36 H13         5.2817   -2.5760   -0.9285 H         1 <0>         0.1419
@<TRIPOS>BOND
     1    1    2 1
     2    1   24 1
     3    1   25 1
     4    1   26 1
     5    2    3 1
     6    3    8 ar
     7    3    4 ar
     8    4    5 ar
     9    4   27 1
    10    5   14 ar
    11    5    6 ar
    12    6    7 ar
    13    6   11 ar
    14    7    8 ar
    15    7   28 1
    16    8    9 1
    17    9   10 1
    18   10   29 1
    19   10   30 1
    20   10   31 1
    21   11   12 ar
    22   12   13 ar
    23   12   32 1
    24   13   14 ar
    25   14   15 1
    26   15   16 1
    27   15   33 1
    28   16   21 ar
    29   16   17 ar
    30   17   18 ar
    31   17   34 1
    32   18   19 ar
    33   18   23 1
    34   19   20 ar
    35   19   35 1
    36   20   21 ar
    37   20   22 1
    38   21   36 1
@<TRIPOS>MOLECULE
ZINC03815279
   52    55     0     0     0
SMALL
USER_CHARGES

@<TRIPOS>ATOM
      1 C1         -4.8546    1.1155    0.7125 C.3       1 <0>        -0.0909
      2 C2         -3.5512    1.8477    0.5222 C.ar      1 <0>         0.3628
      3 N1         -2.4394    1.1513    0.5104 N.ar      1 <0>        -0.5134
      4 C3         -1.2591    1.7620    0.3381 C.ar      1 <0>         0.1005
      5 C4         -0.0430    1.0662    0.3222 C.ar      1 <0>         0.2109
      6 N2          1.0859    1.7167    0.1550 N.ar      1 <0>        -0.4938
      7 C5          1.1391    3.0355    0.0007 C.ar      1 <0>         0.3704
      8 C6         -0.0080    3.8094    0.0076 C.ar      1 <0>        -0.2011
      9 C7         -1.2395    3.1714    0.1818 C.ar      1 <0>        -0.1229
     10 C8         -2.4720    3.8680    0.2040 C.ar      1 <0>         0.4557
     11 N3         -3.5825    3.1632    0.3753 N.ar      1 <0>        -0.5539
     12 N4         -2.5165    5.2387    0.0524 N.pl3     1 <0>        -0.6350
     13 C9         -3.7487    5.8921   -0.0388 C.ar      1 <0>         0.1508
     14 C10        -3.8951    7.1764    0.4706 C.ar      1 <0>        -0.1333
     15 C11        -5.1136    7.8195    0.3792 C.ar      1 <0>        -0.0909
     16 C12        -6.1882    7.1869   -0.2187 C.ar      1 <0>        -0.1014
     17 C13        -6.0464    5.9079   -0.7271 C.ar      1 <0>        -0.0699
     18 C14        -4.8278    5.2611   -0.6438 C.ar      1 <0>        -0.0840
     19 Br1        -7.5188    5.0475   -1.5442 Br        1 <0>        -0.0352
     20 N5          2.3761    3.6521   -0.1710 N.pl3     1 <0>        -0.7283
     21 C15         2.4528    5.1050   -0.3425 C.3       1 <0>         0.1074
     22 C16         3.9152    5.5223   -0.5101 C.3       1 <0>        -0.0157
     23 C17         3.3697    7.3939   -1.9476 C.3       1 <0>        -0.0458
     24 C18         3.4185    8.9202   -2.0581 C.3       1 <0>         0.0353
     25 O1          4.7762    9.3574   -1.9535 O.3       1 <0>        -0.3549
     26 C19         5.4131    8.9712   -0.7327 C.3       1 <0>         0.0345
     27 C20         5.3844    7.4455   -0.6088 C.3       1 <0>        -0.0378
     28 H1         -5.2524    0.8234   -0.2593 H         1 <0>         0.0921
     29 H2         -4.6862    0.2254    1.3187 H         1 <0>         0.0921
     30 H3         -5.5678    1.7683    1.2159 H         1 <0>         0.0892
     31 H4         -0.0341   -0.0070    0.4430 H         1 <0>         0.1876
     32 H5          0.0469    4.8806   -0.1190 H         1 <0>         0.1278
     33 H6         -1.6927    5.7488    0.0090 H         1 <0>         0.4173
     34 H7         -3.0565    7.6712    0.9380 H         1 <0>         0.1286
     35 H8         -5.2274    8.8180    0.7748 H         1 <0>         0.1388
     36 H9         -7.1400    7.6923   -0.2891 H         1 <0>         0.1378
     37 H10        -4.7161    4.2645   -1.0448 H         1 <0>         0.1472
     38 H11         3.1868    3.1196   -0.1772 H         1 <0>         0.4139
     39 H12         1.8879    5.3968   -1.2279 H         1 <0>         0.0819
     40 H13         2.0329    5.5971    0.5348 H         1 <0>         0.0824
     41 H14         4.4801    5.2306    0.3753 H         1 <0>         0.1415
     42 H15         4.3351    5.0303   -1.3874 H         1 <0>         0.1423
     43 H16         3.9126    6.9511   -2.7826 H         1 <0>         0.1440
     44 H17         2.3322    7.0605   -1.9695 H         1 <0>         0.1408
     45 H18         2.8308    9.3623   -1.2536 H         1 <0>         0.0822
     46 H19         3.0096    9.2294   -3.0199 H         1 <0>         0.1434
     47 H20         4.8833    9.4148    0.1104 H         1 <0>         0.0824
     48 H21         6.4468    9.3168   -0.7363 H         1 <0>         0.1441
     49 H22         5.8176    7.1497    0.3467 H         1 <0>         0.1436
     50 H23         5.9596    7.0035   -1.4224 H         1 <0>         0.1429
     51 N6          3.9789    6.9920   -0.6621 N.4       1 <0>        -0.3923
     52 H24         3.4572    7.4299    0.1063 H         1 <0>         0.4284
@<TRIPOS>BOND
     1    1    2 1
     2    1   28 1
     3    1   29 1
     4    1   30 1
     5    2   11 ar
     6    2    3 ar
     7    3    4 ar
     8    4    9 ar
     9    4    5 ar
    10    5    6 ar
    11    5   31 1
    12    6    7 ar
    13    7    8 ar
    14    7   20 1
    15    8    9 ar
    16    8   32 1
    17    9   10 ar
    18   10   11 ar
    19   10   12 1
    20   12   13 1
    21   12   33 1
    22   13   18 ar
    23   13   14 ar
    24   14   15 ar
    25   14   34 1
    26   15   16 ar
    27   15   35 1
    28   16   17 ar
    29   16   36 1
    30   17   18 ar
    31   17   19 1
    32   18   37 1
    33   20   21 1
    34   20   38 1
    35   21   22 1
    36   21   39 1
    37   21   40 1
    38   22   41 1
    39   22   42 1
    40   22   51 1
    41   23   24 1
    42   23   43 1
    43   23   44 1
    44   23   51 1
    45   24   25 1
    46   24   45 1
    47   24   46 1
    48   25   26 1
    49   26   27 1
    50   26   47 1
    51   26   48 1
    52   27   49 1
    53   27   50 1
    54   27   51 1
    55   51   52 1
@<TRIPOS>MOLECULE
ZINC03815280
   32    34     0     0     0
SMALL
USER_CHARGES

@<TRIPOS>ATOM
      1 C1         -0.2824   12.1433   -0.4666 C.3       1 <0>         0.0230
      2 O1         -1.5257   11.4390   -0.4601 O.3       1 <0>        -0.3092
      3 C2         -1.4672   10.0859   -0.3619 C.ar      1 <0>         0.1724
      4 C3         -0.2242    9.4527   -0.2735 C.ar      1 <0>        -0.2052
      5 C4         -0.1367    8.0971   -0.1746 C.ar      1 <0>        -0.0308
      6 C5         -1.3048    7.3252   -0.1611 C.ar      1 <0>        -0.2241
      7 C6         -2.5698    7.9578   -0.2504 C.ar      1 <0>         0.2251
      8 C7         -2.6344    9.3523   -0.3512 C.ar      1 <0>        -0.1566
      9 N1         -3.6742    7.1959   -0.2359 N.ar      1 <0>        -0.5508
     10 C8         -3.5805    5.8905   -0.1407 C.ar      1 <0>         0.3543
     11 N2         -2.4221    5.2563   -0.0602 N.ar      1 <0>        -0.5885
     12 C9         -1.2696    5.9143   -0.0605 C.ar      1 <0>         0.4749
     13 N3         -0.0691    5.2402    0.0290 N.pl3     1 <0>        -0.6388
     14 C10        -0.0492    3.8426    0.0105 C.ar      1 <0>         0.1477
     15 C11        -0.9912    3.1428   -0.7328 C.ar      1 <0>        -0.1097
     16 C12        -0.9690    1.7621   -0.7485 C.ar      1 <0>        -0.1005
     17 C13        -0.0103    1.0762   -0.0255 C.ar      1 <0>        -0.1337
     18 C14         0.9257    1.7696    0.7198 C.ar      1 <0>        -0.1006
     19 C15         0.9124    3.1505    0.7357 C.ar      1 <0>        -0.1473
     20 H1          0.2553   11.9398    0.4595 H         1 <0>         0.0595
     21 H2          0.3174   11.8138   -1.3149 H         1 <0>         0.0596
     22 H3         -0.4715   13.2136   -0.5492 H         1 <0>         0.1058
     23 H4          0.6782   10.0458   -0.2840 H         1 <0>         0.1391
     24 H5          0.8296    7.6196   -0.1072 H         1 <0>         0.1302
     25 H6         -3.5907    9.8495   -0.4203 H         1 <0>         0.1494
     26 H7         -4.4895    5.3074   -0.1323 H         1 <0>         0.1984
     27 H8          0.7611    5.7361    0.1048 H         1 <0>         0.4197
     28 H9         -1.7404    3.6779   -1.2974 H         1 <0>         0.1376
     29 H10        -1.7013    1.2174   -1.3259 H         1 <0>         0.1262
     30 H11         0.0046   -0.0037   -0.0392 H         1 <0>         0.1235
     31 H12         1.6703    1.2308    1.2869 H         1 <0>         0.1262
     32 H13         1.6462    3.6916    1.3146 H         1 <0>         0.1234
@<TRIPOS>BOND
     1    1    2 1
     2    1   20 1
     3    1   21 1
     4    1   22 1
     5    2    3 1
     6    3    8 ar
     7    3    4 ar
     8    4    5 ar
     9    4   23 1
    10    5    6 ar
    11    5   24 1
    12    6   12 ar
    13    6    7 ar
    14    7    8 ar
    15    7    9 ar
    16    8   25 1
    17    9   10 ar
    18   10   11 ar
    19   10   26 1
    20   11   12 ar
    21   12   13 1
    22   13   14 1
    23   13   27 1
    24   14   19 ar
    25   14   15 ar
    26   15   16 ar
    27   15   28 1
    28   16   17 ar
    29   16   29 1
    30   17   18 ar
    31   17   30 1
    32   18   19 ar
    33   18   31 1
    34   19   32 1
@<TRIPOS>MOLECULE
ZINC03815281
   30    32     0     0     0
SMALL
USER_CHARGES

@<TRIPOS>ATOM
      1 C1          2.1570    5.6965    0.3939 C.ar      1 <0>        -0.0850
      2 C2          2.2600    4.3225    0.4909 C.ar      1 <0>        -0.0931
      3 C3          3.3216    3.6622   -0.1143 C.ar      1 <0>         0.1269
      4 C4          4.2802    4.3869   -0.8109 C.ar      1 <0>        -0.1224
      5 C5          4.1691    5.7609   -0.9085 C.ar      1 <0>        -0.0187
      6 C6          3.1093    6.4153   -0.3044 C.ar      1 <0>        -0.1017
      7 Cl1         5.3630    6.6677   -1.7838 Cl        1 <0>        -0.0477
      8 N1          3.4281    2.2717   -0.0177 N.pl3     1 <0>        -0.6077
      9 C7          2.2915    1.4918   -0.0154 C.ar      1 <0>         0.5201
     10 C8          2.3669    0.0966    0.2024 C.ar      1 <0>        -0.2613
     11 C9          3.5748   -0.5693    0.4242 C.ar      1 <0>         0.2659
     12 C10         2.4710   -2.6007    0.6191 C.ar      1 <0>         0.4428
     13 C11         1.2294   -2.0296    0.4078 C.ar      1 <0>        -0.1902
     14 C12         1.1577   -0.6486    0.1926 C.ar      1 <0>         0.3039
     15 N2          0.0030   -0.0056   -0.0212 N.ar      1 <0>        -0.5554
     16 C13        -0.0054    1.2930   -0.2181 C.ar      1 <0>         0.4283
     17 N3          1.0939    2.0290   -0.2180 N.ar      1 <0>        -0.5797
     18 N4          2.5599   -3.9700    0.8342 N.pl3     1 <0>        -0.8271
     19 H1          1.3316    6.2100    0.8644 H         1 <0>         0.1453
     20 H2          1.5154    3.7619    1.0366 H         1 <0>         0.1418
     21 H3          5.1095    3.8769   -1.2785 H         1 <0>         0.1398
     22 H4          3.0266    7.4896   -0.3784 H         1 <0>         0.1438
     23 H5          4.3019    1.8557    0.0477 H         1 <0>         0.4247
     24 H6          4.5023   -0.0162    0.4339 H         1 <0>         0.1976
     25 H7          0.3354   -2.6355    0.4091 H         1 <0>         0.1929
     26 H8         -0.9527    1.7816   -0.3923 H         1 <0>         0.2223
     27 H9          1.7567   -4.5139    0.8350 H         1 <0>         0.4392
     28 H10         3.4251   -4.3823    0.9837 H         1 <0>         0.4199
     29 N5          3.6577   -1.9080    0.6342 N.ar      1 <0>        -0.5394
     30 H11         4.5569   -2.3767    0.7953 H         1 <0>         0.4744
@<TRIPOS>BOND
     1    1    6 ar
     2    1    2 ar
     3    1   19 1
     4    2    3 ar
     5    2   20 1
     6    3    4 ar
     7    3    8 1
     8    4    5 ar
     9    4   21 1
    10    5    6 ar
    11    5    7 1
    12    6   22 1
    13    8    9 1
    14    8   23 1
    15    9   17 ar
    16    9   10 ar
    17   10   14 ar
    18   10   11 ar
    19   11   24 1
    20   11   29 ar
    21   12   13 ar
    22   12   18 1
    23   12   29 ar
    24   13   14 ar
    25   13   25 1
    26   14   15 ar
    27   15   16 ar
    28   16   17 ar
    29   16   26 1
    30   18   27 1
    31   18   28 1
    32   29   30 1
@<TRIPOS>MOLECULE
ZINC03815282
   27    29     0     0     0
SMALL
USER_CHARGES

@<TRIPOS>ATOM
      1 C1          3.9980   -4.5625    0.2270 C.ar      1 <0>        -0.0913
      2 C2          2.7672   -3.9474    0.3481 C.ar      1 <0>        -0.1285
      3 C3          2.5834   -2.6615   -0.1438 C.ar      1 <0>         0.1513
      4 C4          3.6373   -2.0001   -0.7616 C.ar      1 <0>        -0.0834
      5 C5          4.8674   -2.6190   -0.8753 C.ar      1 <0>        -0.0714
      6 C6          5.0468   -3.9002   -0.3835 C.ar      1 <0>        -0.1024
      7 Br1         6.3049   -1.7176   -1.7101 Br        1 <0>        -0.0404
      8 N1          1.3391   -2.0365   -0.0226 N.pl3     1 <0>        -0.6313
      9 C7          1.2674   -0.6692    0.1453 C.ar      1 <0>         0.4687
     10 C8          0.0200    0.0001    0.1537 C.ar      1 <0>        -0.1420
     11 C9         -1.2023   -0.6622   -0.0032 C.ar      1 <0>        -0.1465
     12 C10        -2.3538    0.0768    0.0202 C.ar      1 <0>         0.2837
     13 N2         -2.3344    1.3917    0.1866 N.ar      1 <0>        -0.4804
     14 C11        -1.2218    2.0724    0.3441 C.ar      1 <0>         0.1977
     15 C12         0.0117    1.4066    0.3300 C.ar      1 <0>         0.1231
     16 N3          1.1809    2.0427    0.4813 N.ar      1 <0>        -0.5199
     17 C13         2.3080    1.3712    0.4649 C.ar      1 <0>         0.3499
     18 N4          2.3654    0.0583    0.3034 N.ar      1 <0>        -0.5642
     19 F1         -3.5412   -0.5501   -0.1297 F         1 <0>        -0.1066
     20 H1          4.1412   -5.5624    0.6095 H         1 <0>         0.1391
     21 H2          1.9486   -4.4656    0.8252 H         1 <0>         0.1333
     22 H3          3.4964   -1.0019   -1.1491 H         1 <0>         0.1480
     23 H4          6.0079   -4.3837   -0.4772 H         1 <0>         0.1364
     24 H5          0.5259   -2.5642   -0.0566 H         1 <0>         0.4253
     25 H6         -1.2363   -1.7330   -0.1395 H         1 <0>         0.1516
     26 H7         -1.2570    3.1436    0.4771 H         1 <0>         0.1932
     27 H8          3.2327    1.9151    0.5893 H         1 <0>         0.2069
@<TRIPOS>BOND
     1    1    6 ar
     2    1    2 ar
     3    1   20 1
     4    2    3 ar
     5    2   21 1
     6    3    4 ar
     7    3    8 1
     8    4    5 ar
     9    4   22 1
    10    5    6 ar
    11    5    7 1
    12    6   23 1
    13    8    9 1
    14    8   24 1
    15    9   18 ar
    16    9   10 ar
    17   10   15 ar
    18   10   11 ar
    19   11   12 ar
    20   11   25 1
    21   12   13 ar
    22   12   19 1
    23   13   14 ar
    24   14   15 ar
    25   14   26 1
    26   15   16 ar
    27   16   17 ar
    28   17   18 ar
    29   17   27 1
@<TRIPOS>MOLECULE
ZINC03815283
   36    38     0     0     0
SMALL
USER_CHARGES

@<TRIPOS>ATOM
      1 C1         -0.2208    7.8545    0.5229 C.3       1 <0>         0.0205
      2 O1          1.0287    7.2108    0.7807 O.3       1 <0>        -0.2991
      3 C2          1.0342    5.8509    0.7802 C.ar      1 <0>         0.1133
      4 C3         -0.1257    5.1708    0.5392 C.ar      1 <0>        -0.1497
      5 C4         -0.1211    3.7709    0.5384 C.ar      1 <0>        -0.1801
      6 C5          1.0840    3.0681    0.7870 C.ar      1 <0>         0.2019
      7 C6          2.2612    3.7855    1.0316 C.ar      1 <0>        -0.1834
      8 C7          2.2301    5.1626    1.0273 C.ar      1 <0>         0.1649
      9 O2          3.3708    5.8612    1.2648 O.3       1 <0>        -0.2965
     10 C8          4.5569    5.1028    1.5098 C.3       1 <0>         0.0198
     11 N1          1.0609    1.7260    0.7801 N.ar      1 <0>        -0.5387
     12 C9         -0.0576    1.0814    0.5473 C.ar      1 <0>         0.3395
     13 N2         -1.2050    1.6949    0.3050 N.ar      1 <0>        -0.5781
     14 C10        -1.2946    3.0185    0.2941 C.ar      1 <0>         0.4631
     15 N3         -2.4992    3.6452    0.0455 N.pl3     1 <0>        -0.6353
     16 C11        -3.6724    2.8910   -0.0529 C.ar      1 <0>         0.1852
     17 C12        -3.7426    1.6333    0.5324 C.ar      1 <0>        -0.1227
     18 C13        -4.9043    0.8927    0.4372 C.ar      1 <0>        -0.0800
     19 C14        -5.9943    1.3976   -0.2483 C.ar      1 <0>        -0.1347
     20 C15        -5.9268    2.6469   -0.8369 C.ar      1 <0>        -0.0679
     21 C16        -4.7691    3.3955   -0.7414 C.ar      1 <0>        -0.1319
     22 Br1        -4.6775    5.1043   -1.5461 Br        1 <0>        -0.0500
     23 H1         -0.0853    8.9357    0.5523 H         1 <0>         0.1080
     24 H2         -0.5846    7.5605   -0.4616 H         1 <0>         0.0576
     25 H3         -0.9454    7.5584    1.2814 H         1 <0>         0.0580
     26 H4         -1.0418    5.7105    0.3499 H         1 <0>         0.1383
     27 H5          3.1869    3.2630    1.2225 H         1 <0>         0.1572
     28 H6          4.4108    4.4734    2.3876 H         1 <0>         0.0625
     29 H7          4.7723    4.4755    0.6448 H         1 <0>         0.0625
     30 H8          5.3923    5.7810    1.6839 H         1 <0>         0.1077
     31 H9         -0.0405    0.0015    0.5491 H         1 <0>         0.1998
     32 H10        -2.5318    4.6088   -0.0610 H         1 <0>         0.4204
     33 H11        -2.8906    1.2364    1.0645 H         1 <0>         0.1643
     34 H12        -4.9604   -0.0838    0.8951 H         1 <0>         0.1340
     35 H13        -6.9002    0.8145   -0.3244 H         1 <0>         0.1331
     36 H14        -6.7795    3.0379   -1.3721 H         1 <0>         0.1363
@<TRIPOS>BOND
     1    1    2 1
     2    1   23 1
     3    1   24 1
     4    1   25 1
     5    2    3 1
     6    3    8 ar
     7    3    4 ar
     8    4    5 ar
     9    4   26 1
    10    5   14 ar
    11    5    6 ar
    12    6    7 ar
    13    6   11 ar
    14    7    8 ar
    15    7   27 1
    16    8    9 1
    17    9   10 1
    18   10   28 1
    19   10   29 1
    20   10   30 1
    21   11   12 ar
    22   12   13 ar
    23   12   31 1
    24   13   14 ar
    25   14   15 1
    26   15   16 1
    27   15   32 1
    28   16   21 ar
    29   16   17 ar
    30   17   18 ar
    31   17   33 1
    32   18   19 ar
    33   18   34 1
    34   19   20 ar
    35   19   35 1
    36   20   21 ar
    37   20   36 1
    38   21   22 1
@<TRIPOS>MOLECULE
ZINC03815284
   34    36     0     0     0
SMALL
USER_CHARGES

@<TRIPOS>ATOM
      1 C1          2.0341   -2.0912    2.1542 C.3       1 <0>         0.0239
      2 O1          1.4454   -1.7296    3.4051 O.3       1 <0>        -0.3117
      3 C2          0.9174   -0.4811    3.5004 C.ar      1 <0>         0.1502
      4 C3          0.9654    0.3783    2.4113 C.ar      1 <0>        -0.2032
      5 C4          0.4286    1.6479    2.5065 C.ar      1 <0>        -0.0569
      6 C5         -0.1571    2.0666    3.6857 C.ar      1 <0>        -0.1679
      7 C6         -0.2076    1.2111    4.7791 C.ar      1 <0>         0.1525
      8 C7          0.3258   -0.0671    4.6832 C.ar      1 <0>        -0.1356
      9 N1         -0.8005    1.6344    5.9721 N.pl3     1 <0>        -0.6055
     10 C8         -0.3183    1.1794    7.1808 C.ar      1 <0>         0.5181
     11 C9         -0.9728    1.5005    8.3925 C.ar      1 <0>        -0.2609
     12 C10        -2.1279    2.2846    8.4426 C.ar      1 <0>         0.2652
     13 C11        -2.2077    2.0994   10.7539 C.ar      1 <0>         0.4420
     14 C12        -1.0691    1.3162   10.8036 C.ar      1 <0>        -0.1906
     15 C13        -0.4236    0.9996    9.6029 C.ar      1 <0>         0.3038
     16 N2          0.6840    0.2493    9.5492 N.ar      1 <0>        -0.5564
     17 C14         1.2491   -0.0159    8.3936 C.ar      1 <0>         0.4285
     18 N3          0.7712    0.4224    7.2404 N.ar      1 <0>        -0.5760
     19 N4         -2.8606    2.4225   11.9364 N.pl3     1 <0>        -0.8281
     20 H1          2.8532   -1.4088    1.9273 H         1 <0>         0.0606
     21 H2          1.2820   -2.0304    1.3676 H         1 <0>         0.0599
     22 H3          2.4162   -3.1103    2.2135 H         1 <0>         0.1068
     23 H4          1.4225    0.0539    1.4882 H         1 <0>         0.1372
     24 H5          0.4666    2.3142    1.6574 H         1 <0>         0.1380
     25 H6         -0.5756    3.0596    3.7576 H         1 <0>         0.1309
     26 H7          0.2833   -0.7360    5.5300 H         1 <0>         0.1466
     27 H8         -1.5512    2.2482    5.9495 H         1 <0>         0.4251
     28 H9         -2.5573    2.6722    7.5305 H         1 <0>         0.1976
     29 H10        -0.6865    0.9572   11.7476 H         1 <0>         0.1924
     30 H11         2.1414   -0.6242    8.3839 H         1 <0>         0.2218
     31 H12        -3.6604    2.9710   11.9146 H         1 <0>         0.4194
     32 H13        -2.5169    2.0997   12.7841 H         1 <0>         0.4388
     33 N5         -2.7632    2.5987    9.6005 N.ar      1 <0>        -0.5401
     34 H14        -3.6115    3.1771    9.6136 H         1 <0>         0.4739
@<TRIPOS>BOND
     1    1    2 1
     2    1   20 1
     3    1   21 1
     4    1   22 1
     5    2    3 1
     6    3    8 ar
     7    3    4 ar
     8    4    5 ar
     9    4   23 1
    10    5    6 ar
    11    5   24 1
    12    6    7 ar
    13    6   25 1
    14    7    8 ar
    15    7    9 1
    16    8   26 1
    17    9   10 1
    18    9   27 1
    19   10   18 ar
    20   10   11 ar
    21   11   15 ar
    22   11   12 ar
    23   12   28 1
    24   12   33 ar
    25   13   14 ar
    26   13   19 1
    27   13   33 ar
    28   14   15 ar
    29   14   29 1
    30   15   16 ar
    31   16   17 ar
    32   17   18 ar
    33   17   30 1
    34   19   31 1
    35   19   32 1
    36   33   34 1
@<TRIPOS>MOLECULE
ZINC03815285
   35    38     0     0     0
SMALL
USER_CHARGES

@<TRIPOS>ATOM
      1 C1          0.6995    6.2836    0.5331 C.3       1 <0>         0.0732
      2 N1         -0.0351    5.1707   -0.0735 N.pl3     1 <0>        -0.4920
      3 C2          0.3892    3.8559   -0.0851 C.ar      1 <0>         0.1619
      4 C3          1.5273    3.2334    0.4207 C.ar      1 <0>        -0.1491
      5 C4          1.6986    1.8759    0.2631 C.ar      1 <0>        -0.0640
      6 C5          0.7446    1.1161   -0.3979 C.ar      1 <0>        -0.1553
      7 C6         -0.3854    1.7133   -0.9107 C.ar      1 <0>        -0.0331
      8 C7         -0.5757    3.0857   -0.7541 C.ar      1 <0>        -0.1109
      9 C8         -1.6409    4.0140   -1.1635 C.ar      1 <0>         0.1746
     10 C9         -1.2528    5.2839   -0.7169 C.ar      1 <0>        -0.0118
     11 C10        -2.1053    6.3635   -0.9830 C.ar      1 <0>         0.4342
     12 N2         -3.2362    6.1361   -1.6428 N.ar      1 <0>        -0.5445
     13 C11        -3.5619    4.9218   -2.0451 C.ar      1 <0>         0.3118
     14 N3         -2.7938    3.8778   -1.8178 N.ar      1 <0>        -0.5064
     15 N4         -1.7754    7.6448   -0.5655 N.pl3     1 <0>        -0.6555
     16 C12        -2.5516    8.7336   -0.9718 C.ar      1 <0>         0.1600
     17 C13        -1.9574    9.9715   -1.1842 C.ar      1 <0>        -0.1383
     18 C14        -2.7267   11.0455   -1.5861 C.ar      1 <0>        -0.0921
     19 C15        -4.0875   10.8905   -1.7774 C.ar      1 <0>        -0.1101
     20 C16        -4.6829    9.6594   -1.5669 C.ar      1 <0>        -0.0709
     21 C17        -3.9175    8.5793   -1.1697 C.ar      1 <0>        -0.0943
     22 Br1        -6.5440    9.4526   -1.8304 Br        1 <0>        -0.0445
     23 H1          1.1103    6.9186   -0.2519 H         1 <0>         0.0753
     24 H2          0.0233    6.8684    1.1567 H         1 <0>         0.0735
     25 H3          1.5115    5.8920    1.1457 H         1 <0>         0.0981
     26 H4          2.2765    3.8156    0.9367 H         1 <0>         0.1273
     27 H5          2.5837    1.3988    0.6574 H         1 <0>         0.1339
     28 H6          0.8908    0.0524   -0.5149 H         1 <0>         0.1325
     29 H7         -1.1240    1.1198   -1.4290 H         1 <0>         0.1341
     30 H8         -4.4903    4.7803   -2.5785 H         1 <0>         0.2052
     31 H9         -1.0061    7.7848    0.0085 H         1 <0>         0.4162
     32 H10        -0.8948   10.0937   -1.0348 H         1 <0>         0.1285
     33 H11        -2.2649   12.0077   -1.7516 H         1 <0>         0.1360
     34 H12        -4.6867   11.7321   -2.0921 H         1 <0>         0.1337
     35 H13        -4.3818    7.6174   -1.0094 H         1 <0>         0.1628
@<TRIPOS>BOND
     1    1    2 1
     2    1   23 1
     3    1   24 1
     4    1   25 1
     5    2   10 1
     6    2    3 1
     7    3    8 ar
     8    3    4 ar
     9    4    5 ar
    10    4   26 1
    11    5    6 ar
    12    5   27 1
    13    6    7 ar
    14    6   28 1
    15    7    8 ar
    16    7   29 1
    17    8    9 1
    18    9   14 ar
    19    9   10 ar
    20   10   11 ar
    21   11   12 ar
    22   11   15 1
    23   12   13 ar
    24   13   14 ar
    25   13   30 1
    26   15   16 1
    27   15   31 1
    28   16   21 ar
    29   16   17 ar
    30   17   18 ar
    31   17   32 1
    32   18   19 ar
    33   18   33 1
    34   19   20 ar
    35   19   34 1
    36   20   21 ar
    37   20   22 1
    38   21   35 1
@<TRIPOS>MOLECULE
ZINC03815286
   32    34     0     0     0
SMALL
USER_CHARGES

@<TRIPOS>ATOM
      1 C1          4.7299    3.8717    0.4439 C.3       1 <0>         0.0213
      2 O1          3.5378    3.0840    0.4672 O.3       1 <0>        -0.2897
      3 C2          2.3593    3.7439    0.3190 C.ar      1 <0>         0.1488
      4 C3          2.3441    5.1121    0.1561 C.ar      1 <0>        -0.1865
      5 C4          1.1436    5.7983    0.0035 C.ar      1 <0>        -0.0809
      6 C5         -0.0490    5.1364    0.0119 C.ar      1 <0>        -0.1184
      7 C6         -0.0710    3.7470    0.1755 C.ar      1 <0>        -0.1525
      8 C7          1.1438    3.0373    0.3313 C.ar      1 <0>         0.1665
      9 N1          1.0981    1.7061    0.4863 N.ar      1 <0>        -0.5187
     10 C8         -0.0525    1.0764    0.4928 C.ar      1 <0>         0.3333
     11 N2         -1.2132    1.6960    0.3458 N.ar      1 <0>        -0.5725
     12 C9         -1.2815    3.0111    0.1911 C.ar      1 <0>         0.4579
     13 N3         -2.4984    3.6452    0.0438 N.pl3     1 <0>        -0.6374
     14 C10        -3.6717    2.8919   -0.0545 C.ar      1 <0>         0.1589
     15 C11        -4.8629    3.3884    0.4600 C.ar      1 <0>        -0.1329
     16 C12        -6.0205    2.6420    0.3615 C.ar      1 <0>        -0.0919
     17 C13        -5.9954    1.4011   -0.2485 C.ar      1 <0>        -0.1070
     18 C14        -4.8111    0.9033   -0.7620 C.ar      1 <0>        -0.0706
     19 C15        -3.6502    1.6480   -0.6717 C.ar      1 <0>        -0.0853
     20 Br1        -4.7823   -0.7938   -1.5957 Br        1 <0>        -0.0437
     21 H1          4.6991    4.6014    1.2530 H         1 <0>         0.0585
     22 H2          5.5965    3.2232    0.5723 H         1 <0>         0.1059
     23 H3          4.8033    4.3913   -0.5115 H         1 <0>         0.0585
     24 H4          3.2756    5.6585    0.1464 H         1 <0>         0.1400
     25 H5          1.1561    6.8707   -0.1231 H         1 <0>         0.1351
     26 H6         -0.9729    5.6828   -0.1078 H         1 <0>         0.1281
     27 H7         -0.0528    0.0039    0.6194 H         1 <0>         0.1999
     28 H8         -2.5395    4.6137    0.0084 H         1 <0>         0.4235
     29 H9         -4.8835    4.3572    0.9368 H         1 <0>         0.1318
     30 H10        -6.9467    3.0279    0.7610 H         1 <0>         0.1372
     31 H11        -6.9023    0.8196   -0.3244 H         1 <0>         0.1346
     32 H12        -2.7268    1.2612   -1.0766 H         1 <0>         0.1482
@<TRIPOS>BOND
     1    1    2 1
     2    1   21 1
     3    1   22 1
     4    1   23 1
     5    2    3 1
     6    3    8 ar
     7    3    4 ar
     8    4    5 ar
     9    4   24 1
    10    5    6 ar
    11    5   25 1
    12    6    7 ar
    13    6   26 1
    14    7   12 ar
    15    7    8 ar
    16    8    9 ar
    17    9   10 ar
    18   10   11 ar
    19   10   27 1
    20   11   12 ar
    21   12   13 1
    22   13   14 1
    23   13   28 1
    24   14   19 ar
    25   14   15 ar
    26   15   16 ar
    27   15   29 1
    28   16   17 ar
    29   16   30 1
    30   17   18 ar
    31   17   31 1
    32   18   19 ar
    33   18   20 1
    34   19   32 1
@<TRIPOS>MOLECULE
ZINC03815287
   36    39     0     0     0
SMALL
USER_CHARGES

@<TRIPOS>ATOM
      1 C1         -6.9363    4.9522    0.8028 C.ar      1 <0>        -0.1470
      2 C2         -6.3450    6.1991    0.9358 C.ar      1 <0>        -0.0892
      3 C3         -4.9767    6.3396    0.8423 C.ar      1 <0>        -0.1411
      4 C4         -4.1763    5.2254    0.6122 C.ar      1 <0>         0.1293
      5 C5         -4.7760    3.9642    0.4778 C.ar      1 <0>        -0.0800
      6 C6         -6.1598    3.8362    0.5754 C.ar      1 <0>        -0.0625
      7 C7         -3.6826    3.0036    0.2457 C.ar      1 <0>        -0.1605
      8 C8         -2.4921    3.7447    0.2546 C.ar      1 <0>         0.2007
      9 N1         -2.8069    5.0739    0.4754 N.pl3     1 <0>        -0.6174
     10 H1         -2.1611    5.7957    0.5275 H         1 <0>         0.4171
     11 C9         -1.2787    3.0920    0.0634 C.ar      1 <0>        -0.2341
     12 C10        -1.2507    1.7220   -0.1448 C.ar      1 <0>         0.2627
     13 C11        -2.4308    0.9855   -0.1544 C.ar      1 <0>        -0.2233
     14 C12        -3.6464    1.6196    0.0401 C.ar      1 <0>         0.2466
     15 N2         -4.8305    0.8818    0.0307 N.pl3     1 <0>        -0.6969
     16 C13        -5.6981    0.9674   -1.0609 C.ar      1 <0>         0.2211
     17 C14        -5.3278    1.6880   -2.1899 C.ar      1 <0>        -0.1606
     18 C15        -6.1855    1.7668   -3.2692 C.ar      1 <0>        -0.0689
     19 C16        -7.4164    1.1380   -3.2239 C.ar      1 <0>        -0.1423
     20 C17        -7.7910    0.4240   -2.0995 C.ar      1 <0>        -0.0446
     21 C18        -6.9351    0.3373   -1.0177 C.ar      1 <0>        -0.1644
     22 Br1        -9.4755   -0.4333   -2.0425 Br        1 <0>        -0.0516
     23 N3         -0.0285    1.0755   -0.3407 N.pl3     1 <0>        -0.8713
     24 H2         -8.0093    4.8548    0.8780 H         1 <0>         0.1243
     25 H3         -6.9615    7.0677    1.1138 H         1 <0>         0.1273
     26 H4         -4.5260    7.3155    0.9473 H         1 <0>         0.1220
     27 H5         -6.6228    2.8660    0.4720 H         1 <0>         0.1209
     28 H6         -0.3568    3.6544    0.0735 H         1 <0>         0.1239
     29 H7         -2.3989   -0.0822   -0.3133 H         1 <0>         0.1291
     30 H8         -5.0513    0.3094    0.7820 H         1 <0>         0.4113
     31 H9         -4.3685    2.1828   -2.2246 H         1 <0>         0.1265
     32 H10        -5.8965    2.3239   -4.1481 H         1 <0>         0.1300
     33 H11        -8.0869    1.2048   -4.0679 H         1 <0>         0.1294
     34 H12        -7.2280   -0.2195   -0.1399 H         1 <0>         0.1314
     35 H13        -0.0046    0.1163   -0.4828 H         1 <0>         0.4017
     36 H14         0.7961    1.5863   -0.3387 H         1 <0>         0.4006
@<TRIPOS>BOND
     1    1    6 ar
     2    1    2 ar
     3    1   24 1
     4    2    3 ar
     5    2   25 1
     6    3    4 ar
     7    3   26 1
     8    4    9 1
     9    4    5 ar
    10    5    6 ar
    11    5    7 1
    12    6   27 1
    13    7   14 ar
    14    7    8 ar
    15    8    9 1
    16    8   11 ar
    17    9   10 1
    18   11   12 ar
    19   11   28 1
    20   12   13 ar
    21   12   23 1
    22   13   14 ar
    23   13   29 1
    24   14   15 1
    25   15   16 1
    26   15   30 1
    27   16   21 ar
    28   16   17 ar
    29   17   18 ar
    30   17   31 1
    31   18   19 ar
    32   18   32 1
    33   19   20 ar
    34   19   33 1
    35   20   21 ar
    36   20   22 1
    37   21   34 1
    38   23   35 1
    39   23   36 1
@<TRIPOS>MOLECULE
ZINC03815288
   42    45     0     0     0
SMALL
USER_CHARGES

@<TRIPOS>ATOM
      1 C1          0.8590   10.0323    0.4454 C.3       1 <0>         0.0699
      2 N1          2.1520    9.3435    0.4335 N.am      1 <0>        -0.5058
      3 C2          2.1922    7.9764    0.3242 C.ar      1 <0>         0.4661
      4 C3          3.4297    7.2973    0.3112 C.ar      1 <0>        -0.2752
      5 C4          4.6396    8.0215    0.4105 C.2       1 <0>         0.0304
      6 C5          4.5897    9.3854    0.5187 C.2       1 <0>        -0.1632
      7 C6          3.2892   10.0588    0.5296 C.2       1 <0>         0.5569
      8 O1          3.2358   11.2720    0.6256 O.2       1 <0>        -0.5011
      9 C7          5.8401   10.1731    0.6244 C.ar      1 <0>        -0.0104
     10 C8          6.3880   10.4532    1.8768 C.ar      1 <0>        -0.0064
     11 C9          7.5560   11.1847    1.9682 C.ar      1 <0>        -0.1063
     12 C10         8.1775   11.6472    0.8222 C.ar      1 <0>        -0.0872
     13 C11         7.6370   11.3770   -0.4221 C.ar      1 <0>        -0.1063
     14 C12         6.4718   10.6429   -0.5277 C.ar      1 <0>        -0.0064
     15 Cl1         5.7945   10.3060   -2.0902 Cl        1 <0>        -0.0503
     16 Cl2         5.6064    9.8789    3.3166 Cl        1 <0>        -0.0501
     17 C13         3.4266    5.8989    0.1984 C.ar      1 <0>         0.2650
     18 N2          2.2669    5.2745    0.1139 N.ar      1 <0>        -0.5662
     19 C14         1.1213    5.9471    0.1244 C.ar      1 <0>         0.6075
     20 N3          1.0737    7.2663    0.2291 N.ar      1 <0>        -0.5952
     21 N4         -0.0643    5.2439    0.0281 N.pl3     1 <0>        -0.6260
     22 C15        -0.0425    3.8650   -0.2009 C.ar      1 <0>         0.1731
     23 C16        -1.0219    3.0516    0.3562 C.ar      1 <0>        -0.1529
     24 C17        -0.9997    1.6892    0.1306 C.ar      1 <0>        -0.0813
     25 C18        -0.0044    1.1313   -0.6495 C.ar      1 <0>        -0.1594
     26 C19         0.9791    1.9380   -1.2044 C.ar      1 <0>         0.1254
     27 C20         0.9576    3.3064   -0.9844 C.ar      1 <0>        -0.1379
     28 O2          1.9599    1.3872   -1.9669 O.3       1 <0>        -0.4959
     29 H1          0.5036   10.1202    1.4720 H         1 <0>         0.0747
     30 H2          0.9731   11.0267    0.0140 H         1 <0>         0.0924
     31 H3          0.1384    9.4623   -0.1411 H         1 <0>         0.0950
     32 H4          5.5890    7.5068    0.4007 H         1 <0>         0.1510
     33 H5          7.9830   11.3994    2.9367 H         1 <0>         0.1439
     34 H6          9.0886   12.2219    0.8993 H         1 <0>         0.1455
     35 H7          8.1269   11.7413   -1.3130 H         1 <0>         0.1439
     36 H8          4.3535    5.3446    0.1854 H         1 <0>         0.1887
     37 H9         -0.9117    5.7071    0.1193 H         1 <0>         0.4279
     38 H10        -1.8007    3.4851    0.9661 H         1 <0>         0.1291
     39 H11        -1.7612    1.0585    0.5650 H         1 <0>         0.1331
     40 H12         0.0105    0.0656   -0.8237 H         1 <0>         0.1306
     41 H13         1.7198    3.9362   -1.4189 H         1 <0>         0.1418
     42 H14         1.7457    1.3391   -2.9087 H         1 <0>         0.3917
@<TRIPOS>BOND
     1    1    2 1
     2    1   29 1
     3    1   30 1
     4    1   31 1
     5    2    7 am
     6    2    3 1
     7    3   20 ar
     8    3    4 ar
     9    4    5 1
    10    4   17 ar
    11    5    6 2
    12    5   32 1
    13    6    7 1
    14    6    9 1
    15    7    8 2
    16    9   14 ar
    17    9   10 ar
    18   10   11 ar
    19   10   16 1
    20   11   12 ar
    21   11   33 1
    22   12   13 ar
    23   12   34 1
    24   13   14 ar
    25   13   35 1
    26   14   15 1
    27   17   18 ar
    28   17   36 1
    29   18   19 ar
    30   19   20 ar
    31   19   21 1
    32   21   22 1
    33   21   37 1
    34   22   27 ar
    35   22   23 ar
    36   23   24 ar
    37   23   38 1
    38   24   25 ar
    39   24   39 1
    40   25   26 ar
    41   25   40 1
    42   26   27 ar
    43   26   28 1
    44   27   41 1
    45   28   42 1
@<TRIPOS>MOLECULE
ZINC03815289
   73    76     0     0     0
SMALL
USER_CHARGES

@<TRIPOS>ATOM
      1 C1         -4.5476    1.9598   -6.0779 C.3       1 <0>        -0.1653
      2 C2         -3.1554    1.3302   -5.9996 C.3       1 <0>         0.1875
      3 C3         -2.2965    1.8463   -7.1558 C.3       1 <0>        -0.1577
      4 C4         -3.2778   -0.1919   -6.0951 C.3       1 <0>        -0.1654
      5 N1         -2.5274    1.6906   -4.7260 N.am      1 <0>        -0.7322
      6 C5         -3.1104    1.3372   -3.5634 C.2       1 <0>         0.6944
      7 O1         -4.1574    0.7194   -3.5715 O.2       1 <0>        -0.5077
      8 N2         -2.5327    1.6688   -2.3917 N.am      1 <0>        -0.6579
      9 C6         -3.1328    1.3050   -1.1949 C.ar      1 <0>         0.4915
     10 C7         -2.5145    1.6602    0.0229 C.ar      1 <0>        -0.1503
     11 C8         -3.1075    1.2934    1.2205 C.ar      1 <0>         0.0442
     12 C9         -4.3191    0.5850    1.1654 C.ar      1 <0>        -0.2852
     13 C10        -4.9944    0.1771    2.3285 C.ar      1 <0>         0.2685
     14 N3         -6.1242   -0.4885    2.1986 N.ar      1 <0>        -0.5792
     15 C11        -6.6263   -0.7753    0.9994 C.ar      1 <0>         0.5852
     16 N4         -6.0355   -0.4176   -0.1249 N.ar      1 <0>        -0.5542
     17 C12        -4.8825    0.2626   -0.0970 C.ar      1 <0>         0.4293
     18 N5         -4.2670    0.6354   -1.2206 N.ar      1 <0>        -0.4750
     19 N6         -7.8150   -1.4767    0.9293 N.pl3     1 <0>        -0.7062
     20 C13        -8.4959   -1.8890    2.1592 C.3       1 <0>         0.1459
     21 C14        -9.7785   -2.6436    1.8036 C.3       1 <0>        -0.1686
     22 C15       -10.4896   -3.0741    3.0880 C.3       1 <0>        -0.0008
     23 C16       -12.6921   -2.9089    2.0947 C.3       1 <0>        -0.0333
     24 C17       -13.9253   -3.7171    1.6845 C.3       1 <0>        -0.0263
     25 C18       -13.5403   -5.2394    3.5265 C.3       1 <0>        -0.0268
     26 C19       -12.3071   -4.4312    3.9367 C.3       1 <0>        -0.0261
     27 C20       -15.7428   -5.0741    2.5331 C.3       1 <0>        -0.0461
     28 C21        -1.2380    2.4142    0.0210 C.ar      1 <0>        -0.0511
     29 C22        -1.2484    3.8090    0.0341 C.ar      1 <0>        -0.0122
     30 C23        -0.0556    4.5057    0.0264 C.ar      1 <0>        -0.1024
     31 C24         1.1473    3.8231    0.0117 C.ar      1 <0>        -0.0780
     32 C25         1.1644    2.4401    0.0040 C.ar      1 <0>        -0.1023
     33 C26        -0.0215    1.7317    0.0116 C.ar      1 <0>        -0.0125
     34 Cl1         0.0021   -0.0041    0.0020 Cl        1 <0>        -0.0438
     35 Cl2        -2.7571    4.6675    0.0520 Cl        1 <0>        -0.0442
     36 H1         -4.4604    3.0441   -6.0098 H         1 <0>         0.0540
     37 H2         -5.0148    1.6916   -7.0255 H         1 <0>         0.0653
     38 H3         -5.1595    1.5921   -5.2542 H         1 <0>         0.0787
     39 H4         -1.3046    1.3978   -7.1000 H         1 <0>         0.0641
     40 H5         -2.7637    1.5782   -8.1034 H         1 <0>         0.0785
     41 H6         -2.2092    2.9307   -7.0877 H         1 <0>         0.0641
     42 H7         -3.8897   -0.5596   -5.2714 H         1 <0>         0.0787
     43 H8         -3.7450   -0.4601   -7.0427 H         1 <0>         0.0653
     44 H9         -2.2859   -0.6404   -6.0393 H         1 <0>         0.0541
     45 H10        -1.6920    2.1835   -4.7195 H         1 <0>         0.3964
     46 H11        -1.6973    2.1617   -2.3852 H         1 <0>         0.4151
     47 H12        -2.6541    1.5480    2.1670 H         1 <0>         0.1552
     48 H13        -4.5967    0.4044    3.3065 H         1 <0>         0.1829
     49 H14        -8.1984   -1.6961    0.0657 H         1 <0>         0.4165
     50 H15        -7.8397   -2.5398    2.7371 H         1 <0>         0.0797
     51 H16        -8.7449   -1.0073    2.7496 H         1 <0>         0.0787
     52 H17       -10.4346   -1.9927    1.2257 H         1 <0>         0.0952
     53 H18        -9.5295   -3.5253    1.2131 H         1 <0>         0.0997
     54 H19        -9.8335   -3.7250    3.6659 H         1 <0>         0.1482
     55 H20       -10.7386   -2.1924    3.6785 H         1 <0>         0.1461
     56 H21       -12.9873   -2.1219    2.7887 H         1 <0>         0.1581
     57 H22       -12.2390   -2.4624    1.2096 H         1 <0>         0.1751
     58 H23       -13.6345   -4.4867    0.9696 H         1 <0>         0.1560
     59 H24       -14.6593   -3.0540    1.2265 H         1 <0>         0.1754
     60 H25       -13.2451   -6.0264    2.8325 H         1 <0>         0.1559
     61 H26       -13.9932   -5.6862    4.4116 H         1 <0>         0.1758
     62 H27       -11.5733   -5.0946    4.3945 H         1 <0>         0.1760
     63 H28       -12.5979   -3.6615    4.6516 H         1 <0>         0.1573
     64 H29       -16.1918   -5.4757    3.4416 H         1 <0>         0.1362
     65 H30       -16.4440   -4.3923    2.0520 H         1 <0>         0.1361
     66 H31       -15.5063   -5.8920    1.8525 H         1 <0>         0.1328
     67 H32        -0.0624    5.5856    0.0323 H         1 <0>         0.1481
     68 H33         2.0771    4.3724    0.0058 H         1 <0>         0.1504
     69 H34         2.1069    1.9129   -0.0075 H         1 <0>         0.1482
     70 N7        -11.7151   -3.8190    2.7284 N.4       1 <0>        -0.4062
     71 H35       -11.4708   -4.5620    2.0633 H         1 <0>         0.4383
     72 N8        -14.5173   -4.3291    2.8925 N.4       1 <0>        -0.4065
     73 H36       -14.7616   -3.5860    3.5576 H         1 <0>         0.4405
@<TRIPOS>BOND
     1    1    2 1
     2    1   36 1
     3    1   37 1
     4    1   38 1
     5    2    3 1
     6    2    4 1
     7    2    5 1
     8    3   39 1
     9    3   40 1
    10    3   41 1
    11    4   42 1
    12    4   43 1
    13    4   44 1
    14    5    6 am
    15    5   45 1
    16    6    7 2
    17    6    8 am
    18    8    9 1
    19    8   46 1
    20    9   18 ar
    21    9   10 ar
    22   10   11 ar
    23   10   28 1
    24   11   12 ar
    25   11   47 1
    26   12   17 ar
    27   12   13 ar
    28   13   14 ar
    29   13   48 1
    30   14   15 ar
    31   15   16 ar
    32   15   19 1
    33   16   17 ar
    34   17   18 ar
    35   19   20 1
    36   19   49 1
    37   20   21 1
    38   20   50 1
    39   20   51 1
    40   21   22 1
    41   21   52 1
    42   21   53 1
    43   22   54 1
    44   22   55 1
    45   22   70 1
    46   23   24 1
    47   23   56 1
    48   23   57 1
    49   23   70 1
    50   24   58 1
    51   24   59 1
    52   24   72 1
    53   25   26 1
    54   25   60 1
    55   25   61 1
    56   25   72 1
    57   26   62 1
    58   26   63 1
    59   26   70 1
    60   27   64 1
    61   27   65 1
    62   27   66 1
    63   27   72 1
    64   28   33 ar
    65   28   29 ar
    66   29   30 ar
    67   29   35 1
    68   30   31 ar
    69   30   67 1
    70   31   32 ar
    71   31   68 1
    72   32   33 ar
    73   32   69 1
    74   33   34 1
    75   70   71 1
    76   72   73 1
@<TRIPOS>MOLECULE
ZINC03815290
   39    41     0     0     0
SMALL
USER_CHARGES

@<TRIPOS>ATOM
      1 C1         -2.9549    4.0261   -1.2937 C.3       1 <0>         0.0964
      2 N1         -2.4991    3.6455    0.0456 N.pl3     1 <0>        -0.5800
      3 C2         -3.2955    3.9232    1.1601 C.ar      1 <0>         0.2170
      4 C3         -4.5665    4.4585    0.9916 C.ar      1 <0>        -0.1653
      5 C4         -5.3513    4.7315    2.0944 C.ar      1 <0>        -0.0677
      6 C5         -4.8738    4.4728    3.3662 C.ar      1 <0>        -0.1364
      7 C6         -3.6088    3.9394    3.5381 C.ar      1 <0>        -0.0445
      8 C7         -2.8202    3.6595    2.4381 C.ar      1 <0>        -0.1502
      9 Br1        -2.9607    3.5869    5.2793 Br        1 <0>        -0.0465
     10 C8         -1.2828    3.0124    0.2067 C.ar      1 <0>         0.4463
     11 C9         -0.0839    3.7573    0.3080 C.ar      1 <0>        -0.1458
     12 C10        -0.0739    5.1564    0.2504 C.ar      1 <0>        -0.1483
     13 C11         1.1103    5.8291    0.3526 C.ar      1 <0>         0.1234
     14 C12         2.3174    5.1342    0.5148 C.ar      1 <0>         0.1628
     15 C13         2.3344    3.7586    0.5749 C.ar      1 <0>        -0.1811
     16 C14         1.1317    3.0485    0.4723 C.ar      1 <0>         0.1798
     17 N2          1.0943    1.7078    0.5246 N.ar      1 <0>        -0.5013
     18 C15        -0.0476    1.0699    0.4251 C.ar      1 <0>         0.3107
     19 N3         -1.2063    1.6892    0.2654 N.ar      1 <0>        -0.5284
     20 O1          3.4825    5.8256    0.6141 O.3       1 <0>        -0.2955
     21 C16         4.6786    5.0610    0.7784 C.3       1 <0>         0.0193
     22 O2          1.1188    7.1877    0.2969 O.3       1 <0>        -0.2981
     23 C17        -0.1427    7.8381    0.1306 C.3       1 <0>         0.0223
     24 H1         -3.6067    3.2478   -1.6905 H         1 <0>         0.0636
     25 H2         -3.5042    4.9660   -1.2370 H         1 <0>         0.0806
     26 H3         -2.0931    4.1479   -1.9499 H         1 <0>         0.0732
     27 H4         -4.9402    4.6612   -0.0012 H         1 <0>         0.1340
     28 H5         -6.3395    5.1472    1.9636 H         1 <0>         0.1365
     29 H6         -5.4897    4.6872    4.2271 H         1 <0>         0.1333
     30 H7         -1.8343    3.2396    2.5723 H         1 <0>         0.1224
     31 H8         -0.9983    5.7010    0.1260 H         1 <0>         0.1487
     32 H9          3.2684    3.2312    0.7007 H         1 <0>         0.1581
     33 H10        -0.0415   -0.0091    0.4712 H         1 <0>         0.2014
     34 H11         4.6096    4.4705    1.6920 H         1 <0>         0.0628
     35 H12         4.8047    4.3956   -0.0756 H         1 <0>         0.0626
     36 H13         5.5337    5.7338    0.8443 H         1 <0>         0.1086
     37 H14        -0.6006    7.5096   -0.8024 H         1 <0>         0.0581
     38 H15        -0.7957    7.5833    0.9653 H         1 <0>         0.0593
     39 H16         0.0060    8.9175    0.1020 H         1 <0>         0.1079
@<TRIPOS>BOND
     1    1    2 1
     2    1   24 1
     3    1   25 1
     4    1   26 1
     5    2    3 1
     6    2   10 1
     7    3    8 ar
     8    3    4 ar
     9    4    5 ar
    10    4   27 1
    11    5    6 ar
    12    5   28 1
    13    6    7 ar
    14    6   29 1
    15    7    8 ar
    16    7    9 1
    17    8   30 1
    18   10   19 ar
    19   10   11 ar
    20   11   16 ar
    21   11   12 ar
    22   12   13 ar
    23   12   31 1
    24   13   14 ar
    25   13   22 1
    26   14   15 ar
    27   14   20 1
    28   15   16 ar
    29   15   32 1
    30   16   17 ar
    31   17   18 ar
    32   18   19 ar
    33   18   33 1
    34   20   21 1
    35   21   34 1
    36   21   35 1
    37   21   36 1
    38   22   23 1
    39   23   37 1
    40   23   38 1
    41   23   39 1
@<TRIPOS>MOLECULE
ZINC03815291
   33    36     0     0     0
SMALL
USER_CHARGES

@<TRIPOS>ATOM
      1 C1         -0.1959    1.2428   -0.0987 C.ar      1 <0>        -0.0904
      2 C2          0.9777    1.9330   -0.3320 C.ar      1 <0>        -0.1288
      3 C3          1.1689    3.1868    0.2342 C.ar      1 <0>         0.1566
      4 C4          0.1785    3.7430    1.0339 C.ar      1 <0>        -0.0855
      5 C5         -0.9932    3.0477    1.2634 C.ar      1 <0>        -0.0706
      6 C6         -1.1823    1.8008    0.6932 C.ar      1 <0>        -0.1038
      7 Br1        -2.3425    3.8033    2.3517 Br        1 <0>        -0.0420
      8 N1          2.3552    3.8876   -0.0005 N.pl3     1 <0>        -0.6411
      9 C7          2.3357    5.2711   -0.0980 C.ar      1 <0>         0.4921
     10 C8          3.5162    5.9940   -0.2114 C.ar      1 <0>        -0.3009
     11 C9          3.4977    7.3903   -0.3104 C.ar      1 <0>         0.2196
     12 C10         4.8142    8.0478   -0.4262 C.ar      1 <0>        -0.0855
     13 C11         5.0754    9.4315   -0.5389 C.ar      1 <0>         0.0105
     14 C12         6.3619    9.8940   -0.6392 C.ar      1 <0>        -0.1313
     15 C13         7.4422    9.0233   -0.6333 C.ar      1 <0>        -0.0010
     16 C14         7.2196    7.6652   -0.5244 C.ar      1 <0>        -0.0177
     17 C15         5.9270    7.1905   -0.4229 C.ar      1 <0>        -0.0548
     18 S1          5.2337    5.5637   -0.2703 S.3       1 <0>         0.1853
     19 N2          8.3609    6.7225   -0.5170 N.pl3     1 <0>         0.0301
     20 O1          9.4999    7.1445   -0.6067 O.2       1 <0>        -0.1459
     21 O2          8.1609    5.5249   -0.4213 O.3       1 <0>        -0.1553
     22 N3          2.2770    7.9714   -0.2878 N.ar      1 <0>        -0.5250
     23 C16         1.1845    7.2583   -0.1793 C.ar      1 <0>         0.3499
     24 N4          1.1837    5.9406   -0.0910 N.ar      1 <0>        -0.5420
     25 H1         -0.3450    0.2680   -0.5391 H         1 <0>         0.1391
     26 H2          1.7460    1.4978   -0.9538 H         1 <0>         0.1337
     27 H3          0.3240    4.7179    1.4753 H         1 <0>         0.1442
     28 H4         -2.1006    1.2608    0.8706 H         1 <0>         0.1361
     29 H5          3.1921    3.4065   -0.0952 H         1 <0>         0.4253
     30 H6          4.2533   10.1319   -0.5465 H         1 <0>         0.1570
     31 H7          6.5379   10.9562   -0.7240 H         1 <0>         0.1616
     32 H8          8.4494    9.4050   -0.7128 H         1 <0>         0.1710
     33 H9          0.2353    7.7735   -0.1663 H         1 <0>         0.2096
@<TRIPOS>BOND
     1    1    6 ar
     2    1    2 ar
     3    1   25 1
     4    2    3 ar
     5    2   26 1
     6    3    4 ar
     7    3    8 1
     8    4    5 ar
     9    4   27 1
    10    5    6 ar
    11    5    7 1
    12    6   28 1
    13    8    9 1
    14    8   29 1
    15    9   24 ar
    16    9   10 ar
    17   10   18 1
    18   10   11 ar
    19   11   12 1
    20   11   22 ar
    21   12   17 ar
    22   12   13 ar
    23   13   14 ar
    24   13   30 1
    25   14   15 ar
    26   14   31 1
    27   15   16 ar
    28   15   32 1
    29   16   17 ar
    30   16   19 1
    31   17   18 1
    32   19   20 2
    33   19   21 1
    34   22   23 ar
    35   23   24 ar
    36   23   33 1
@<TRIPOS>MOLECULE
ZINC03815292
   38    40     0     0     0
SMALL
USER_CHARGES

@<TRIPOS>ATOM
      1 C1          4.2819    5.6261    1.4087 C.3       1 <0>         0.0238
      2 N1          3.5537    5.8097    0.1462 N.pl3     1 <0>        -0.5101
      3 C2          4.3812    5.4140   -1.0013 C.3       1 <0>         0.0243
      4 C3          2.3477    5.1088    0.1582 C.ar      1 <0>         0.0782
      5 C4          2.3556    3.7396    0.3206 C.ar      1 <0>        -0.0946
      6 C5          1.1437    3.0389    0.3313 C.ar      1 <0>         0.1497
      7 C6         -0.0735    3.7480    0.1755 C.ar      1 <0>        -0.1331
      8 C7         -0.0565    5.1388    0.0125 C.ar      1 <0>        -0.1808
      9 C8          1.1369    5.8051    0.0047 C.ar      1 <0>         0.2397
     10 N2          1.1531    7.1948   -0.1582 N.pl3     1 <0>        -0.8620
     11 C9         -1.2815    3.0118    0.1911 C.ar      1 <0>         0.4486
     12 N3         -1.2128    1.6959    0.3458 N.ar      1 <0>        -0.5727
     13 C10        -0.0525    1.0764    0.4927 C.ar      1 <0>         0.3236
     14 N4          1.0982    1.7062    0.4862 N.ar      1 <0>        -0.5314
     15 N5         -2.4996    3.6455    0.0442 N.pl3     1 <0>        -0.6400
     16 C11        -3.6724    2.8914   -0.0542 C.ar      1 <0>         0.1622
     17 C12        -4.8639    3.3870    0.4607 C.ar      1 <0>        -0.1354
     18 C13        -6.0211    2.6400    0.3617 C.ar      1 <0>        -0.0919
     19 C14        -5.9954    1.3998   -0.2496 C.ar      1 <0>        -0.1092
     20 C15        -4.8109    0.9031   -0.7639 C.ar      1 <0>        -0.0702
     21 C16        -3.6502    1.6478   -0.6718 C.ar      1 <0>        -0.0860
     22 Br1        -4.7815   -0.7928   -1.5998 Br        1 <0>        -0.0451
     23 H1          4.4947    4.5671    1.5547 H         1 <0>         0.0368
     24 H2          5.2181    6.1831    1.3724 H         1 <0>         0.0775
     25 H3          3.6733    5.9918    2.2357 H         1 <0>         0.0717
     26 H4          3.8447    5.6255   -1.9262 H         1 <0>         0.0716
     27 H5          5.3153    5.9755   -0.9864 H         1 <0>         0.0776
     28 H6          4.5975    4.3473   -0.9425 H         1 <0>         0.0366
     29 H7          3.2902    3.2114    0.4386 H         1 <0>         0.1403
     30 H8         -0.9821    5.6823   -0.1069 H         1 <0>         0.1268
     31 H9          0.3201    7.6803   -0.2648 H         1 <0>         0.3980
     32 H10         1.9972    7.6726   -0.1644 H         1 <0>         0.4096
     33 H11        -0.0528    0.0038    0.6191 H         1 <0>         0.1950
     34 H12        -2.5414    4.6140    0.0092 H         1 <0>         0.4218
     35 H13        -4.8850    4.3554    0.9382 H         1 <0>         0.1308
     36 H14        -6.9474    3.0251    0.7618 H         1 <0>         0.1363
     37 H15        -6.9020    0.8178   -0.3259 H         1 <0>         0.1338
     38 H16        -2.7265    1.2617   -1.0770 H         1 <0>         0.1482
@<TRIPOS>BOND
     1    1    2 1
     2    1   23 1
     3    1   24 1
     4    1   25 1
     5    2    3 1
     6    2    4 1
     7    3   26 1
     8    3   27 1
     9    3   28 1
    10    4    9 ar
    11    4    5 ar
    12    5    6 ar
    13    5   29 1
    14    6   14 ar
    15    6    7 ar
    16    7    8 ar
    17    7   11 ar
    18    8    9 ar
    19    8   30 1
    20    9   10 1
    21   10   31 1
    22   10   32 1
    23   11   12 ar
    24   11   15 1
    25   12   13 ar
    26   13   14 ar
    27   13   33 1
    28   15   16 1
    29   15   34 1
    30   16   21 ar
    31   16   17 ar
    32   17   18 ar
    33   17   35 1
    34   18   19 ar
    35   18   36 1
    36   19   20 ar
    37   19   37 1
    38   20   21 ar
    39   20   22 1
    40   21   38 1
@<TRIPOS>MOLECULE
ZINC03815293
   27    29     0     0     0
SMALL
USER_CHARGES

@<TRIPOS>ATOM
      1 C1          4.0988    6.0826    0.3370 C.ar      1 <0>        -0.0758
      2 C2          3.2689    4.9827    0.4343 C.ar      1 <0>        -0.1552
      3 C3          1.9734    5.0452   -0.0632 C.ar      1 <0>         0.1794
      4 C4          1.5180    6.2131   -0.6622 C.ar      1 <0>        -0.1379
      5 C5          2.3514    7.3118   -0.7518 C.ar      1 <0>        -0.0035
      6 C6          3.6417    7.2454   -0.2548 C.ar      1 <0>        -0.1365
      7 Cl1         1.7818    8.7743   -1.4936 Cl        1 <0>        -0.0628
      8 N1          1.1321    3.9341    0.0334 N.pl3     1 <0>        -0.6371
      9 C7         -0.2538    4.1064    0.0441 C.2       1 <0>         0.3746
     10 C8         -1.2563    3.0454    0.0241 C.ar      1 <0>        -0.3510
     11 C9         -1.2174    1.6414   -0.0089 C.ar      1 <0>         0.5212
     12 N2         -2.3696    0.9783   -0.0133 N.ar      1 <0>        -0.6074
     13 C10        -3.5257    1.6180    0.0072 C.ar      1 <0>         0.3959
     14 N3         -3.6117    2.9297    0.0328 N.ar      1 <0>        -0.5767
     15 C11        -2.5121    3.6834    0.0393 C.ar      1 <0>         0.3985
     16 N4         -2.2727    5.0237    0.0636 N.pl3     1 <0>        -0.4750
     17 H1         -2.9743    5.7362    0.0728 H         1 <0>         0.4570
     18 N5         -0.8918    5.2483    0.0737 N.2       1 <0>        -0.2867
     19 N6         -0.0123    0.9669   -0.0304 N.pl3     1 <0>        -0.8231
     20 H2          5.1061    6.0340    0.7234 H         1 <0>         0.1383
     21 H3          3.6269    4.0749    0.8971 H         1 <0>         0.1323
     22 H4          0.5127    6.2636   -1.0537 H         1 <0>         0.1520
     23 H5          4.2929    8.1038   -0.3299 H         1 <0>         0.1355
     24 H6          1.5106    3.0430    0.0932 H         1 <0>         0.4167
     25 H7         -4.4377    1.0394    0.0030 H         1 <0>         0.2078
     26 H8          0.0004   -0.0029   -0.0490 H         1 <0>         0.4164
     27 H9          0.8212    1.4630   -0.0309 H         1 <0>         0.4031
@<TRIPOS>BOND
     1    1    6 ar
     2    1    2 ar
     3    1   20 1
     4    2    3 ar
     5    2   21 1
     6    3    4 ar
     7    3    8 1
     8    4    5 ar
     9    4   22 1
    10    5    6 ar
    11    5    7 1
    12    6   23 1
    13    8    9 1
    14    8   24 1
    15    9   18 2
    16    9   10 1
    17   10   15 ar
    18   10   11 ar
    19   11   12 ar
    20   11   19 1
    21   12   13 ar
    22   13   14 ar
    23   13   25 1
    24   14   15 ar
    25   15   16 1
    26   16   17 1
    27   16   18 1
    28   19   26 1
    29   19   27 1
@<TRIPOS>MOLECULE
ZINC03815293
   27    29     0     0     0
SMALL
USER_CHARGES

@<TRIPOS>ATOM
      1 C1          4.0988    6.0826    0.3370 C.ar      1 <0>        -0.0758
      2 C2          3.2689    4.9827    0.4343 C.ar      1 <0>        -0.1552
      3 C3          1.9734    5.0452   -0.0632 C.ar      1 <0>         0.1794
      4 C4          1.5180    6.2131   -0.6622 C.ar      1 <0>        -0.1379
      5 C5          2.3514    7.3118   -0.7518 C.ar      1 <0>        -0.0035
      6 C6          3.6417    7.2454   -0.2548 C.ar      1 <0>        -0.1365
      7 Cl1         1.7818    8.7743   -1.4936 Cl        1 <0>        -0.0628
      8 N1          1.1321    3.9341    0.0334 N.pl3     1 <0>        -0.6371
      9 C7         -0.2538    4.1064    0.0441 C.2       1 <0>         0.3746
     10 C8         -1.2563    3.0454    0.0241 C.ar      1 <0>        -0.3510
     11 C9         -1.2174    1.6414   -0.0089 C.ar      1 <0>         0.5212
     12 N2         -2.3696    0.9783   -0.0133 N.ar      1 <0>        -0.6074
     13 C10        -3.5257    1.6180    0.0072 C.ar      1 <0>         0.3959
     14 N3         -3.6117    2.9297    0.0328 N.ar      1 <0>        -0.5767
     15 C11        -2.5121    3.6834    0.0393 C.ar      1 <0>         0.3985
     16 N4         -2.2727    5.0237    0.0636 N.pl3     1 <0>        -0.4750
     17 H1         -2.9743    5.7362    0.0728 H         1 <0>         0.4570
     18 N5         -0.8918    5.2483    0.0737 N.2       1 <0>        -0.2867
     19 N6         -0.0123    0.9669   -0.0304 N.pl3     1 <0>        -0.8231
     20 H2          5.1061    6.0340    0.7234 H         1 <0>         0.1383
     21 H3          3.6269    4.0749    0.8971 H         1 <0>         0.1323
     22 H4          0.5127    6.2636   -1.0537 H         1 <0>         0.1520
     23 H5          4.2929    8.1038   -0.3299 H         1 <0>         0.1355
     24 H6          1.5106    3.0430    0.0932 H         1 <0>         0.4167
     25 H7         -4.4377    1.0394    0.0030 H         1 <0>         0.2078
     26 H8          0.0004   -0.0029   -0.0490 H         1 <0>         0.4164
     27 H9          0.8212    1.4630   -0.0309 H         1 <0>         0.4031
@<TRIPOS>BOND
     1    1    6 ar
     2    1    2 ar
     3    1   20 1
     4    2    3 ar
     5    2   21 1
     6    3    4 ar
     7    3    8 1
     8    4    5 ar
     9    4   22 1
    10    5    6 ar
    11    5    7 1
    12    6   23 1
    13    8    9 1
    14    8   24 1
    15    9   18 2
    16    9   10 1
    17   10   15 ar
    18   10   11 ar
    19   11   12 ar
    20   11   19 1
    21   12   13 ar
    22   13   14 ar
    23   13   25 1
    24   14   15 ar
    25   15   16 1
    26   16   17 1
    27   16   18 1
    28   19   26 1
    29   19   27 1
@<TRIPOS>MOLECULE
ZINC03815294
   41    43     0     0     0
SMALL
USER_CHARGES

@<TRIPOS>ATOM
      1 C1          1.0130    4.4233    4.5590 C.3       1 <0>         0.0218
      2 O1         -0.1574    3.6263    4.3662 O.3       1 <0>        -0.2976
      3 C2         -0.3631    3.1229    3.1198 C.ar      1 <0>         0.1303
      4 C3          0.5334    3.3909    2.1257 C.ar      1 <0>        -0.1631
      5 C4          0.3241    2.8727    0.8393 C.ar      1 <0>        -0.0974
      6 C5         -0.8148    2.0738    0.5758 C.ar      1 <0>         0.1671
      7 C6         -1.7217    1.8125    1.6141 C.ar      1 <0>        -0.1761
      8 C7         -1.4935    2.3333    2.8676 C.ar      1 <0>         0.1561
      9 O2         -2.3730    2.0790    3.8713 O.3       1 <0>        -0.2957
     10 C8         -3.5051    1.2676    3.5518 C.3       1 <0>         0.0192
     11 N1         -1.0231    1.5790   -0.6533 N.ar      1 <0>        -0.4592
     12 C9         -0.1930    1.8009   -1.6402 C.ar      1 <0>         0.1788
     13 C10         0.9615    2.5818   -1.4693 C.ar      1 <0>        -0.0841
     14 C11         1.2365    3.1342   -0.2092 C.ar      1 <0>         0.2560
     15 N2          2.3609    3.9073    0.0004 N.pl3     1 <0>        -0.6995
     16 C12         3.5582    3.3058    0.4009 C.ar      1 <0>         0.1946
     17 C13         3.5868    1.9521    0.7118 C.ar      1 <0>        -0.1206
     18 C14         4.7713    1.3593    1.1019 C.ar      1 <0>        -0.1046
     19 C15         5.9279    2.1156    1.1944 C.ar      1 <0>         0.1076
     20 C16         5.9006    3.4660    0.8901 C.ar      1 <0>        -0.1749
     21 C17         4.7193    4.0621    0.4939 C.ar      1 <0>        -0.1068
     22 C18         7.1610    4.2860    0.9908 C.3       1 <0>         0.5131
     23 F1          6.8850    5.6108    0.6360 F         1 <0>        -0.1728
     24 F2          7.6402    4.2452    2.3045 F         1 <0>        -0.1698
     25 F3          8.1279    3.7633    0.1253 F         1 <0>        -0.1693
     26 F4          7.0844    1.5346    1.5817 F         1 <0>        -0.1241
     27 C19         1.8485    2.8123   -2.5696 C.1       1 <0>         0.2512
     28 N3          2.5522    2.9952   -3.4425 N.1       1 <0>        -0.3903
     29 H1          1.8984    3.8291    4.3332 H         1 <0>         0.0596
     30 H2          0.9770    5.2879    3.8962 H         1 <0>         0.0591
     31 H3          1.0562    4.7608    5.5945 H         1 <0>         0.1080
     32 H4          1.4015    4.0002    2.3293 H         1 <0>         0.1486
     33 H5         -2.5954    1.2048    1.4305 H         1 <0>         0.1583
     34 H6         -4.1248    1.1427    4.4397 H         1 <0>         0.1081
     35 H7         -4.0878    1.7498    2.7669 H         1 <0>         0.0632
     36 H8         -3.1661    0.2914    3.2050 H         1 <0>         0.0633
     37 H9         -0.4032    1.3769   -2.6109 H         1 <0>         0.1749
     38 H10         2.3205    4.8676   -0.1300 H         1 <0>         0.4220
     39 H11         2.6842    1.3630    0.6440 H         1 <0>         0.1407
     40 H12         4.7948    0.3060    1.3397 H         1 <0>         0.1529
     41 H13         4.6985    5.1156    0.2570 H         1 <0>         0.1514
@<TRIPOS>BOND
     1    1    2 1
     2    1   29 1
     3    1   30 1
     4    1   31 1
     5    2    3 1
     6    3    8 ar
     7    3    4 ar
     8    4    5 ar
     9    4   32 1
    10    5   14 ar
    11    5    6 ar
    12    6    7 ar
    13    6   11 ar
    14    7    8 ar
    15    7   33 1
    16    8    9 1
    17    9   10 1
    18   10   34 1
    19   10   35 1
    20   10   36 1
    21   11   12 ar
    22   12   13 ar
    23   12   37 1
    24   13   14 ar
    25   13   27 1
    26   14   15 1
    27   15   16 1
    28   15   38 1
    29   16   21 ar
    30   16   17 ar
    31   17   18 ar
    32   17   39 1
    33   18   19 ar
    34   18   40 1
    35   19   20 ar
    36   19   26 1
    37   20   21 ar
    38   20   22 1
    39   21   41 1
    40   22   23 1
    41   22   24 1
    42   22   25 1
    43   27   28 3
@<TRIPOS>MOLECULE
ZINC03815295
   36    38     0     0     0
SMALL
USER_CHARGES

@<TRIPOS>ATOM
      1 C1         -2.2712    6.7784    3.8966 C.3       1 <0>         0.0578
      2 N1         -2.1736    5.3238    3.7517 N.pl3     1 <0>        -0.4990
      3 C2         -2.7087    4.5370    4.7128 C.2       1 <0>         0.1747
      4 C3         -2.6588    3.1781    4.6512 C.2       1 <0>        -0.2373
      5 C4         -2.0028    2.5367    3.5036 C.2       1 <0>         0.4300
      6 O1         -1.9360    1.3223    3.4086 O.2       1 <0>        -0.4591
      7 C5         -1.4354    3.4160    2.4719 C.ar      1 <0>        -0.2402
      8 C6         -1.5408    4.8096    2.6417 C.ar      1 <0>         0.2491
      9 C7         -1.0048    5.6549    1.6780 C.ar      1 <0>        -0.2482
     10 C8         -0.3709    5.1255    0.5664 C.ar      1 <0>         0.2155
     11 C9         -0.2616    3.7485    0.3995 C.ar      1 <0>        -0.2847
     12 C10        -0.7872    2.8898    1.3459 C.ar      1 <0>         0.2358
     13 O2         -0.6816    1.5467    1.1837 O.3       1 <0>        -0.2780
     14 C11        -0.0127    1.0858    0.0080 C.3       1 <0>         0.0195
     15 O3          0.1499    5.9589   -0.3702 O.3       1 <0>        -0.4944
     16 C12        -3.2594    2.3554    5.7286 C.ar      1 <0>         0.0013
     17 C13        -4.1340    1.3170    5.4110 C.ar      1 <0>        -0.0859
     18 C14        -4.6865    0.5512    6.4171 C.ar      1 <0>        -0.1041
     19 C15        -4.3823    0.8180    7.7400 C.ar      1 <0>        -0.1122
     20 C16        -3.5189    1.8509    8.0621 C.ar      1 <0>        -0.0335
     21 C17        -2.9563    2.6208    7.0626 C.ar      1 <0>        -0.1085
     22 Cl1        -3.1428    2.1794    9.7248 Cl        1 <0>        -0.0715
     23 H1         -3.1900    7.1295    3.4270 H         1 <0>         0.0793
     24 H2         -2.2819    7.0382    4.9552 H         1 <0>         0.0916
     25 H3         -1.4142    7.2497    3.4156 H         1 <0>         0.0925
     26 H4         -3.1922    5.0030    5.5587 H         1 <0>         0.1653
     27 H5         -1.0829    6.7256    1.7958 H         1 <0>         0.1441
     28 H6          0.2351    3.3496   -0.4726 H         1 <0>         0.1437
     29 H7          0.0021   -0.0041    0.0020 H         1 <0>         0.1073
     30 H8          1.0099    1.4631    0.0003 H         1 <0>         0.0603
     31 H9         -0.5399    1.4469   -0.8751 H         1 <0>         0.0597
     32 H10        -0.4681    6.1921   -1.0765 H         1 <0>         0.4015
     33 H11        -4.3756    1.1100    4.3790 H         1 <0>         0.1293
     34 H12        -5.3614   -0.2554    6.1715 H         1 <0>         0.1339
     35 H13        -4.8204    0.2185    8.5243 H         1 <0>         0.1331
     36 H14        -2.2826    3.4265    7.3145 H         1 <0>         0.1313
@<TRIPOS>BOND
     1    1    2 1
     2    1   23 1
     3    1   24 1
     4    1   25 1
     5    2    8 1
     6    2    3 1
     7    3    4 2
     8    3   26 1
     9    4    5 1
    10    4   16 1
    11    5    6 2
    12    5    7 1
    13    7   12 ar
    14    7    8 ar
    15    8    9 ar
    16    9   10 ar
    17    9   27 1
    18   10   11 ar
    19   10   15 1
    20   11   12 ar
    21   11   28 1
    22   12   13 1
    23   13   14 1
    24   14   29 1
    25   14   30 1
    26   14   31 1
    27   15   32 1
    28   16   21 ar
    29   16   17 ar
    30   17   18 ar
    31   17   33 1
    32   18   19 ar
    33   18   34 1
    34   19   20 ar
    35   19   35 1
    36   20   21 ar
    37   20   22 1
    38   21   36 1
@<TRIPOS>MOLECULE
ZINC03815296
   32    34     0     0     0
SMALL
USER_CHARGES

@<TRIPOS>ATOM
      1 C1          4.3515   -1.6234    0.1549 C.3       1 <0>        -0.0848
      2 C2          3.7504   -0.2548   -0.0370 C.2       1 <0>        -0.1405
      3 C3          4.4171    0.9084   -0.1177 C.2       1 <0>         0.0761
      4 N1          3.5316    1.9403   -0.2923 N.pl3     1 <0>        -0.5642
      5 H1          3.7765    2.8750   -0.3777 H         1 <0>         0.4233
      6 C4          2.2520    1.4583   -0.3288 C.ar      1 <0>         0.3478
      7 C5          2.3299    0.0620   -0.1707 C.ar      1 <0>        -0.2448
      8 C6          1.1408   -0.6828   -0.1722 C.ar      1 <0>         0.4768
      9 N2         -0.0102   -0.0336   -0.3235 N.ar      1 <0>        -0.5839
     10 C7         -0.0377    1.2787   -0.4689 C.ar      1 <0>         0.3581
     11 N3          1.0515    2.0166   -0.4736 N.ar      1 <0>        -0.5589
     12 N4          1.1649   -2.0584   -0.0197 N.pl3     1 <0>        -0.6436
     13 C8         -0.0327   -2.7700    0.0939 C.ar      1 <0>         0.1868
     14 C9         -1.1297   -2.1908    0.7188 C.ar      1 <0>        -0.1036
     15 C10        -2.3146   -2.8947    0.8246 C.ar      1 <0>        -0.0021
     16 C11        -2.4049   -4.1798    0.3193 C.ar      1 <0>        -0.1227
     17 C12        -1.3118   -4.7615   -0.2987 C.ar      1 <0>        -0.0015
     18 C13        -0.1264   -4.0599   -0.4128 C.ar      1 <0>        -0.1414
     19 Cl1        -1.4297   -6.3737   -0.9317 Cl        1 <0>        -0.0518
     20 Cl2        -3.6882   -2.1688    1.5991 Cl        1 <0>        -0.0505
     21 C14         5.9142    1.0568   -0.0300 C.3       1 <0>        -0.0929
     22 H2          4.5674   -2.0651   -0.8179 H         1 <0>         0.0720
     23 H3          5.2747   -1.5376    0.7280 H         1 <0>         0.0749
     24 H4          3.6471   -2.2573    0.6935 H         1 <0>         0.0590
     25 H5         -0.9935    1.7658   -0.5934 H         1 <0>         0.2038
     26 H6          2.0129   -2.5285    0.0084 H         1 <0>         0.4235
     27 H7         -1.0582   -1.1896    1.1176 H         1 <0>         0.1549
     28 H8         -3.3303   -4.7297    0.4071 H         1 <0>         0.1454
     29 H9          0.7262   -4.5140   -0.8958 H         1 <0>         0.1415
     30 H10         6.3459    0.9814   -1.0281 H         1 <0>         0.0819
     31 H11         6.1584    2.0286    0.3990 H         1 <0>         0.0724
     32 H12         6.3211    0.2678    0.6024 H         1 <0>         0.0892
@<TRIPOS>BOND
     1    1    2 1
     2    1   22 1
     3    1   23 1
     4    1   24 1
     5    2    7 1
     6    2    3 2
     7    3    4 1
     8    3   21 1
     9    4    5 1
    10    4    6 1
    11    6   11 ar
    12    6    7 ar
    13    7    8 ar
    14    8    9 ar
    15    8   12 1
    16    9   10 ar
    17   10   11 ar
    18   10   25 1
    19   12   13 1
    20   12   26 1
    21   13   18 ar
    22   13   14 ar
    23   14   15 ar
    24   14   27 1
    25   15   16 ar
    26   15   20 1
    27   16   17 ar
    28   16   28 1
    29   17   18 ar
    30   17   19 1
    31   18   29 1
    32   21   30 1
    33   21   31 1
    34   21   32 1
@<TRIPOS>MOLECULE
ZINC03815297
   42    44     0     0     0
SMALL
USER_CHARGES

@<TRIPOS>ATOM
      1 C1         -2.5139    0.9796    0.0192 C.3       1 <0>        -0.1178
      2 C2         -1.2192    1.7508    0.0173 C.ar      1 <0>        -0.0867
      3 C3         -0.0126    1.0758    0.0080 C.ar      1 <0>        -0.1104
      4 C4          1.1748    1.7831    0.0004 C.ar      1 <0>        -0.1169
      5 C5          1.1561    3.1655    0.0076 C.ar      1 <0>        -0.1053
      6 C6         -0.0501    3.8402    0.0223 C.ar      1 <0>        -0.1117
      7 C7         -1.2379    3.1327    0.0299 C.ar      1 <0>        -0.1005
      8 C8         -0.0705    5.3471    0.0297 C.3       1 <0>         0.1709
      9 N1         -0.0904    5.8419   -1.3491 N.pl3     1 <0>        -0.6945
     10 C9         -0.1112    7.1993   -1.5946 C.ar      1 <0>         0.4741
     11 C10        -0.1305    7.6978   -2.9189 C.ar      1 <0>        -0.1915
     12 C11        -0.1286    6.8464   -4.0308 C.ar      1 <0>        -0.1422
     13 C12        -0.1473    7.3772   -5.2889 C.ar      1 <0>         0.1028
     14 C13        -0.1685    8.7661   -5.4803 C.ar      1 <0>         0.1621
     15 C14        -0.1709    9.6245   -4.4037 C.ar      1 <0>        -0.1861
     16 C15        -0.1519    9.1020   -3.1044 C.ar      1 <0>         0.2019
     17 N2         -0.1529    9.8954   -2.0217 N.ar      1 <0>        -0.5536
     18 C16        -0.1344    9.3767   -0.8171 C.ar      1 <0>         0.3478
     19 N3         -0.1192    8.0718   -0.5955 N.ar      1 <0>        -0.5964
     20 O1         -0.1873    9.2703   -6.7416 O.3       1 <0>        -0.2986
     21 C17        -0.2089   10.6932   -6.8713 C.3       1 <0>         0.0208
     22 O2         -0.1454    6.5497   -6.3680 O.3       1 <0>        -0.3018
     23 C18        -0.1234    5.1447   -6.1080 C.3       1 <0>         0.0228
     24 H1         -2.8212    0.7881    1.0473 H         1 <0>         0.0729
     25 H2         -3.2839    1.5611   -0.4878 H         1 <0>         0.0672
     26 H3         -2.3731    0.0319   -0.5005 H         1 <0>         0.0680
     27 H4          0.0021   -0.0041    0.0020 H         1 <0>         0.1242
     28 H5          2.1173    1.2559   -0.0114 H         1 <0>         0.1255
     29 H6          2.0839    3.7182    0.0014 H         1 <0>         0.1240
     30 H7         -2.1804    3.6599    0.0410 H         1 <0>         0.1239
     31 H8         -0.9604    5.6958    0.5537 H         1 <0>         0.0808
     32 H9          0.8193    5.7200    0.5368 H         1 <0>         0.0811
     33 H10        -0.0889    5.2151   -2.0894 H         1 <0>         0.4098
     34 H11        -0.1122    5.7753   -3.8939 H         1 <0>         0.1375
     35 H12        -0.1876   10.6930   -4.5600 H         1 <0>         0.1541
     36 H13        -0.1358   10.0442    0.0319 H         1 <0>         0.1946
     37 H14        -1.1002   11.0889   -6.3843 H         1 <0>         0.0615
     38 H15         0.6795   11.1144   -6.4007 H         1 <0>         0.0615
     39 H16        -0.2225   10.9617   -7.9276 H         1 <0>         0.1063
     40 H17         0.7753    4.8935   -5.5446 H         1 <0>         0.0562
     41 H18        -1.0044    4.8685   -5.5286 H         1 <0>         0.0561
     42 H19        -0.1242    4.6004   -7.0523 H         1 <0>         0.1057
@<TRIPOS>BOND
     1    1    2 1
     2    1   24 1
     3    1   25 1
     4    1   26 1
     5    2    7 ar
     6    2    3 ar
     7    3    4 ar
     8    3   27 1
     9    4    5 ar
    10    4   28 1
    11    5    6 ar
    12    5   29 1
    13    6    7 ar
    14    6    8 1
    15    7   30 1
    16    8    9 1
    17    8   31 1
    18    8   32 1
    19    9   10 1
    20    9   33 1
    21   10   19 ar
    22   10   11 ar
    23   11   16 ar
    24   11   12 ar
    25   12   13 ar
    26   12   34 1
    27   13   14 ar
    28   13   22 1
    29   14   15 ar
    30   14   20 1
    31   15   16 ar
    32   15   35 1
    33   16   17 ar
    34   17   18 ar
    35   18   19 ar
    36   18   36 1
    37   20   21 1
    38   21   37 1
    39   21   38 1
    40   21   39 1
    41   22   23 1
    42   23   40 1
    43   23   41 1
    44   23   42 1
@<TRIPOS>MOLECULE
ZINC03815298
   38    40     0     0     0
SMALL
USER_CHARGES

@<TRIPOS>ATOM
      1 C1          1.0126    4.4238    4.5586 C.3       1 <0>         0.0223
      2 O1         -0.1575    3.6265    4.3660 O.3       1 <0>        -0.2983
      3 C2         -0.3631    3.1229    3.1197 C.ar      1 <0>         0.1275
      4 C3          0.5336    3.3906    2.1256 C.ar      1 <0>        -0.1592
      5 C4          0.3243    2.8725    0.8392 C.ar      1 <0>        -0.0986
      6 C5         -0.8147    2.0736    0.5757 C.ar      1 <0>         0.1667
      7 C6         -1.7216    1.8123    1.6140 C.ar      1 <0>        -0.1767
      8 C7         -1.4932    2.3330    2.8676 C.ar      1 <0>         0.1556
      9 O2         -2.3725    2.0782    3.8714 O.3       1 <0>        -0.2962
     10 C8         -3.5043    1.2664    3.5520 C.3       1 <0>         0.0194
     11 N1         -1.0230    1.5789   -0.6534 N.ar      1 <0>        -0.4616
     12 C9         -0.1929    1.8010   -1.6403 C.ar      1 <0>         0.1791
     13 C10         0.9615    2.5819   -1.4694 C.ar      1 <0>        -0.0878
     14 C11         1.2366    3.1342   -0.2092 C.ar      1 <0>         0.2635
     15 N2          2.3612    3.9073    0.0004 N.pl3     1 <0>        -0.7036
     16 C12         3.5575    3.3063    0.4005 C.ar      1 <0>         0.2153
     17 C13         3.5864    1.9523    0.7115 C.ar      1 <0>        -0.1762
     18 C14         4.7711    1.3598    1.1016 C.ar      1 <0>        -0.0603
     19 C15         5.9263    2.1144    1.1936 C.ar      1 <0>        -0.1535
     20 C16         5.9005    3.4643    0.8898 C.ar      1 <0>         0.0097
     21 C17         4.7188    4.0622    0.4937 C.ar      1 <0>        -0.1725
     22 Cl1         7.3532    4.4076    1.0069 Cl        1 <0>        -0.0636
     23 C18         1.8485    2.8126   -2.5697 C.1       1 <0>         0.2538
     24 N3          2.5522    2.9955   -3.4425 N.1       1 <0>        -0.3936
     25 H1          1.0557    4.7615    5.5941 H         1 <0>         0.1073
     26 H2          1.8982    3.8298    4.3330 H         1 <0>         0.0596
     27 H3          0.9764    5.2883    3.8957 H         1 <0>         0.0584
     28 H4          1.4017    3.9999    2.3292 H         1 <0>         0.1484
     29 H5         -2.5953    1.2046    1.4304 H         1 <0>         0.1577
     30 H6         -3.1651    0.2904    3.2050 H         1 <0>         0.0629
     31 H7         -4.1238    1.1412    4.4400 H         1 <0>         0.1077
     32 H8         -4.0874    1.7485    2.7673 H         1 <0>         0.0628
     33 H9         -0.4032    1.3771   -2.6111 H         1 <0>         0.1741
     34 H10         2.3208    4.8676   -0.1300 H         1 <0>         0.4190
     35 H11         2.6838    1.3630    0.6446 H         1 <0>         0.1259
     36 H12         4.7946    0.3065    1.3393 H         1 <0>         0.1355
     37 H13         6.8507    1.6492    1.5029 H         1 <0>         0.1343
     38 H14         4.6986    5.1158    0.2573 H         1 <0>         0.1351
@<TRIPOS>BOND
     1    1    2 1
     2    1   25 1
     3    1   26 1
     4    1   27 1
     5    2    3 1
     6    3    8 ar
     7    3    4 ar
     8    4    5 ar
     9    4   28 1
    10    5   14 ar
    11    5    6 ar
    12    6    7 ar
    13    6   11 ar
    14    7    8 ar
    15    7   29 1
    16    8    9 1
    17    9   10 1
    18   10   30 1
    19   10   31 1
    20   10   32 1
    21   11   12 ar
    22   12   13 ar
    23   12   33 1
    24   13   14 ar
    25   13   23 1
    26   14   15 1
    27   15   16 1
    28   15   34 1
    29   16   21 ar
    30   16   17 ar
    31   17   18 ar
    32   17   35 1
    33   18   19 ar
    34   18   36 1
    35   19   20 ar
    36   19   37 1
    37   20   21 ar
    38   20   22 1
    39   21   38 1
    40   23   24 3
@<TRIPOS>MOLECULE
ZINC03815299
   43    46     0     0     0
SMALL
USER_CHARGES

@<TRIPOS>ATOM
      1 C1          0.0695    1.0902    0.1128 C.3       1 <0>         0.0712
      2 N1         -0.4234    1.5836    1.4011 N.am      1 <0>        -0.5066
      3 C2         -0.5357    2.9345    1.6130 C.ar      1 <0>         0.4680
      4 C3         -1.0136    3.4263    2.8471 C.ar      1 <0>        -0.2917
      5 C4         -1.3712    2.5296    3.8797 C.2       1 <0>         0.0437
      6 C5         -1.2509    1.1835    3.6609 C.2       1 <0>        -0.1832
      7 C6         -0.7566    0.7065    2.3675 C.2       1 <0>         0.5610
      8 O1         -0.6465   -0.4896    2.1646 O.2       1 <0>        -0.5134
      9 C7         -1.6171    0.2179    4.7234 C.ar      1 <0>        -0.0012
     10 C8         -0.6581   -0.2099    5.6423 C.ar      1 <0>        -0.0075
     11 C9         -1.0070   -1.1072    6.6326 C.ar      1 <0>        -0.1079
     12 C10        -2.3015   -1.5886    6.7091 C.ar      1 <0>        -0.0914
     13 C11        -3.2558   -1.1722    5.7984 C.ar      1 <0>        -0.1081
     14 C12        -2.9211   -0.2719    4.8059 C.ar      1 <0>        -0.0074
     15 Cl1        -4.1199    0.2486    3.6632 Cl        1 <0>        -0.0501
     16 Cl2         0.9686    0.3884    5.5442 Cl        1 <0>        -0.0492
     17 C13        -1.1184    4.8145    3.0209 C.ar      1 <0>         0.2656
     18 N2         -0.7703    5.6043    2.0224 N.ar      1 <0>        -0.5606
     19 C14        -0.3288    5.1057    0.8729 C.ar      1 <0>         0.6141
     20 N3         -0.2122    3.8036    0.6621 N.ar      1 <0>        -0.6014
     21 N4          0.0221    5.9779   -0.1397 N.pl3     1 <0>        -0.6133
     22 C15        -0.1985    7.3504    0.0118 C.ar      1 <0>         0.1206
     23 C16        -1.3062    7.8023    0.7201 C.ar      1 <0>        -0.1078
     24 C17        -1.5263    9.1577    0.8769 C.ar      1 <0>        -0.1235
     25 C18        -0.6538   10.0721    0.3226 C.ar      1 <0>        -0.0830
     26 C19         0.4589    9.6289   -0.3951 C.ar      1 <0>        -0.0962
     27 C20         0.6840    8.2603   -0.5489 C.ar      1 <0>        -0.1013
     28 C21         1.3944   10.6055   -0.9900 C.2       1 <0>         0.4898
     29 O2          2.3615   10.2176   -1.6144 O.co2     1 <0>        -0.6307
     30 H1          0.0962    0.0006    0.1271 H         1 <0>         0.0981
     31 H2          1.0736    1.4760   -0.0639 H         1 <0>         0.0797
     32 H3         -0.5944    1.4270   -0.6834 H         1 <0>         0.0795
     33 H4         -1.7342    2.9008    4.8267 H         1 <0>         0.1474
     34 H5         -0.2666   -1.4366    7.3465 H         1 <0>         0.1419
     35 H6         -2.5683   -2.2930    7.4831 H         1 <0>         0.1431
     36 H7         -4.2647   -1.5521    5.8634 H         1 <0>         0.1418
     37 H8         -1.4761    5.2281    3.9523 H         1 <0>         0.1857
     38 H9          0.4216    5.6381   -0.9558 H         1 <0>         0.4250
     39 H10        -1.9951    7.0917    1.1524 H         1 <0>         0.1267
     40 H11        -2.3864    9.5026    1.4317 H         1 <0>         0.1212
     41 H12        -0.8318   11.1304    0.4436 H         1 <0>         0.1326
     42 H13         1.5427    7.9114   -1.1033 H         1 <0>         0.1297
     43 O3          1.1749   11.9261   -0.8401 O.co2     1 <0>        -0.7510
@<TRIPOS>BOND
     1    1    2 1
     2    1   30 1
     3    1   31 1
     4    1   32 1
     5    2    7 am
     6    2    3 1
     7    3   20 ar
     8    3    4 ar
     9    4    5 1
    10    4   17 ar
    11    5    6 2
    12    5   33 1
    13    6    7 1
    14    6    9 1
    15    7    8 2
    16    9   14 ar
    17    9   10 ar
    18   10   11 ar
    19   10   16 1
    20   11   12 ar
    21   11   34 1
    22   12   13 ar
    23   12   35 1
    24   13   14 ar
    25   13   36 1
    26   14   15 1
    27   17   18 ar
    28   17   37 1
    29   18   19 ar
    30   19   20 ar
    31   19   21 1
    32   21   22 1
    33   21   38 1
    34   22   27 ar
    35   22   23 ar
    36   23   24 ar
    37   23   39 1
    38   24   25 ar
    39   24   40 1
    40   25   26 ar
    41   25   41 1
    42   26   27 ar
    43   26   28 1
    44   27   42 1
    45   28   29 2
    46   28   43 1
@<TRIPOS>MOLECULE
ZINC03815300
   38    40     0     0     0
SMALL
USER_CHARGES

@<TRIPOS>ATOM
      1 C1          1.0135    4.4224    4.5595 C.3       1 <0>         0.0223
      2 O1         -0.1567    3.6251    4.3669 O.3       1 <0>        -0.2983
      3 C2         -0.3625    3.1219    3.1204 C.ar      1 <0>         0.1275
      4 C3          0.5340    3.3899    2.1263 C.ar      1 <0>        -0.1593
      5 C4          0.3244    2.8722    0.8397 C.ar      1 <0>        -0.0987
      6 C5         -0.8146    2.0734    0.5762 C.ar      1 <0>         0.1667
      7 C6         -1.7213    1.8118    1.6146 C.ar      1 <0>        -0.1767
      8 C7         -1.4927    2.3321    2.8683 C.ar      1 <0>         0.1556
      9 O2         -2.3718    2.0770    3.8722 O.3       1 <0>        -0.2961
     10 C8         -3.5037    1.2653    3.5527 C.3       1 <0>         0.0194
     11 N1         -1.0234    1.5795   -0.6531 N.ar      1 <0>        -0.4615
     12 C9         -0.1933    1.8016   -1.6400 C.ar      1 <0>         0.1791
     13 C10         0.9612    2.5824   -1.4690 C.ar      1 <0>        -0.0878
     14 C11         1.2365    3.1342   -0.2088 C.ar      1 <0>         0.2634
     15 N2          2.3612    3.9073    0.0009 N.pl3     1 <0>        -0.7039
     16 C12         3.5576    3.3062    0.4006 C.ar      1 <0>         0.2091
     17 C13         3.5866    1.9521    0.7112 C.ar      1 <0>        -0.1654
     18 C14         4.7713    1.3597    1.1013 C.ar      1 <0>        -0.0668
     19 C15         5.9265    2.1145    1.1933 C.ar      1 <0>        -0.1339
     20 C16         5.9005    3.4642    0.8899 C.ar      1 <0>        -0.0461
     21 C17         4.7190    4.0620    0.4938 C.ar      1 <0>        -0.1522
     22 Br1         7.4826    4.4920    1.0180 Br        1 <0>        -0.0439
     23 C18         1.8480    2.8134   -2.5694 C.1       1 <0>         0.2536
     24 N3          2.5515    2.9966   -3.4424 N.1       1 <0>        -0.3934
     25 H1          1.0568    4.7598    5.5951 H         1 <0>         0.1074
     26 H2          1.8991    3.8285    4.3336 H         1 <0>         0.0595
     27 H3          0.9771    5.2871    3.8969 H         1 <0>         0.0585
     28 H4          1.4022    3.9992    2.3300 H         1 <0>         0.1484
     29 H5         -2.5950    1.2041    1.4310 H         1 <0>         0.1577
     30 H6         -3.1645    0.2894    3.2054 H         1 <0>         0.0629
     31 H7         -4.1230    1.1398    4.4408 H         1 <0>         0.1077
     32 H8         -4.0868    1.7477    2.7683 H         1 <0>         0.0628
     33 H9         -0.4035    1.3776   -2.6108 H         1 <0>         0.1741
     34 H10         2.3208    4.8676   -0.1292 H         1 <0>         0.4190
     35 H11         2.6842    1.3626    0.6436 H         1 <0>         0.1261
     36 H12         4.7950    0.3065    1.3391 H         1 <0>         0.1352
     37 H13         6.8509    1.6494    1.5023 H         1 <0>         0.1337
     38 H14         4.6988    5.1156    0.2574 H         1 <0>         0.1344
@<TRIPOS>BOND
     1    1    2 1
     2    1   25 1
     3    1   26 1
     4    1   27 1
     5    2    3 1
     6    3    8 ar
     7    3    4 ar
     8    4    5 ar
     9    4   28 1
    10    5   14 ar
    11    5    6 ar
    12    6    7 ar
    13    6   11 ar
    14    7    8 ar
    15    7   29 1
    16    8    9 1
    17    9   10 1
    18   10   30 1
    19   10   31 1
    20   10   32 1
    21   11   12 ar
    22   12   13 ar
    23   12   33 1
    24   13   14 ar
    25   13   23 1
    26   14   15 1
    27   15   16 1
    28   15   34 1
    29   16   21 ar
    30   16   17 ar
    31   17   18 ar
    32   17   35 1
    33   18   19 ar
    34   18   36 1
    35   19   20 ar
    36   19   37 1
    37   20   21 ar
    38   20   22 1
    39   21   38 1
    40   23   24 3
@<TRIPOS>MOLECULE
ZINC03815301
   34    37     0     0     0
SMALL
USER_CHARGES

@<TRIPOS>ATOM
      1 C1          7.3318    9.9397   -0.0102 C.ar      1 <0>        -0.1086
      2 C2          6.6406    9.8221   -1.2016 C.ar      1 <0>        -0.1217
      3 C3          5.2811    9.5721   -1.1902 C.ar      1 <0>        -0.0985
      4 C4          4.6127    9.4401    0.0126 C.ar      1 <0>        -0.1166
      5 C5          5.3028    9.5633    1.2040 C.ar      1 <0>        -0.0985
      6 C6          6.6634    9.8077    1.1925 C.ar      1 <0>        -0.1217
      7 C7          3.1305    9.1680    0.0250 C.3       1 <0>         0.1716
      8 N1          2.8996    7.7214    0.0185 N.pl3     1 <0>        -0.6990
      9 C8          1.6049    7.2261    0.0278 C.ar      1 <0>         0.4938
     10 C9          1.3653    5.8580    0.0214 C.ar      1 <0>        -0.2866
     11 C10         0.0585    5.3566    0.0308 C.ar      1 <0>         0.2187
     12 C11        -0.0700    3.8862    0.0237 C.ar      1 <0>        -0.0901
     13 C12        -1.2626    3.1289    0.0301 C.ar      1 <0>        -0.0438
     14 C13        -1.2204    1.7588    0.0174 C.ar      1 <0>        -0.1292
     15 C14        -0.0126    1.0758    0.0080 C.ar      1 <0>        -0.0731
     16 C15         1.1702    1.7877    0.0005 C.ar      1 <0>        -0.0869
     17 C16         1.1371    3.1680    0.0083 C.ar      1 <0>        -0.0805
     18 S1          2.3972    4.4181    0.0035 S.3       1 <0>         0.0739
     19 N2         -0.9311    6.2780    0.0458 N.ar      1 <0>        -0.5380
     20 C17        -0.6686    7.5604    0.0510 C.ar      1 <0>         0.3449
     21 N3          0.5581    8.0501    0.0427 N.ar      1 <0>        -0.5605
     22 H1          8.3941   10.1343   -0.0192 H         1 <0>         0.1249
     23 H2          7.1629    9.9252   -2.1413 H         1 <0>         0.1256
     24 H3          4.7412    9.4803   -2.1210 H         1 <0>         0.1243
     25 H4          4.7798    9.4646    2.1437 H         1 <0>         0.1243
     26 H5          7.2034    9.8992    2.1233 H         1 <0>         0.1256
     27 H6          2.6720    9.6131   -0.8580 H         1 <0>         0.0804
     28 H7          2.6889    9.6024    0.9218 H         1 <0>         0.0804
     29 H8          3.6526    7.1100    0.0077 H         1 <0>         0.4128
     30 H9         -2.2169    3.6344    0.0420 H         1 <0>         0.1359
     31 H10        -2.1448    1.2003    0.0183 H         1 <0>         0.1348
     32 H11         0.0021   -0.0041    0.0020 H         1 <0>         0.1408
     33 H12         2.1166    1.2676   -0.0117 H         1 <0>         0.1386
     34 H13        -1.4970    8.2532    0.0630 H         1 <0>         0.2020
@<TRIPOS>BOND
     1    1    6 ar
     2    1    2 ar
     3    1   22 1
     4    2    3 ar
     5    2   23 1
     6    3    4 ar
     7    3   24 1
     8    4    5 ar
     9    4    7 1
    10    5    6 ar
    11    5   25 1
    12    6   26 1
    13    7    8 1
    14    7   27 1
    15    7   28 1
    16    8    9 1
    17    8   29 1
    18    9   21 ar
    19    9   10 ar
    20   10   18 1
    21   10   11 ar
    22   11   12 1
    23   11   19 ar
    24   12   17 ar
    25   12   13 ar
    26   13   14 ar
    27   13   30 1
    28   14   15 ar
    29   14   31 1
    30   15   16 ar
    31   15   32 1
    32   16   17 ar
    33   16   33 1
    34   17   18 1
    35   19   20 ar
    36   20   21 ar
    37   20   34 1
@<TRIPOS>MOLECULE
ZINC03815302
   44    47     0     0     0
SMALL
USER_CHARGES

@<TRIPOS>ATOM
      1 C1         -0.2303    0.9301    0.1276 C.3       1 <0>        -0.1625
      2 C2         -0.7905    1.6082    1.3795 C.3       1 <0>         0.0973
      3 N1         -2.1926    1.2228    1.5577 N.am      1 <0>        -0.5029
      4 C3         -3.1832    1.9813    0.9868 C.ar      1 <0>         0.4682
      5 C4         -4.5390    1.6210    1.1448 C.ar      1 <0>        -0.2780
      6 C5         -4.8881    0.4799    1.9026 C.2       1 <0>         0.0304
      7 C6         -3.8931   -0.2679    2.4729 C.2       1 <0>        -0.1647
      8 C7         -2.4965    0.1305    2.2849 C.2       1 <0>         0.5579
      9 O1         -1.6050   -0.5294    2.7885 O.2       1 <0>        -0.5013
     10 C8         -4.2264   -1.4693    3.2733 C.ar      1 <0>        -0.0096
     11 C9         -4.4384   -1.3586    4.6481 C.ar      1 <0>        -0.0066
     12 C10        -4.7549   -2.4814    5.3875 C.ar      1 <0>        -0.1065
     13 C11        -4.8501   -3.7156    4.7701 C.ar      1 <0>        -0.0876
     14 C12        -4.6351   -3.8332    3.4087 C.ar      1 <0>        -0.1065
     15 C13        -4.3240   -2.7172    2.6567 C.ar      1 <0>        -0.0066
     16 Cl1        -4.0545   -2.8669    0.9483 Cl        1 <0>        -0.0503
     17 Cl2        -4.3117    0.1881    5.4261 Cl        1 <0>        -0.0503
     18 C14        -5.5207    2.4204    0.5401 C.ar      1 <0>         0.2637
     19 N2         -5.1367    3.4741   -0.1560 N.ar      1 <0>        -0.5676
     20 C15        -3.8507    3.7801   -0.2875 C.ar      1 <0>         0.6082
     21 N3         -2.8888    3.0566    0.2647 N.ar      1 <0>        -0.5949
     22 N4         -3.5041    4.8945   -1.0272 N.pl3     1 <0>        -0.6264
     23 C16        -4.4879    5.6099   -1.7162 C.ar      1 <0>         0.1548
     24 C17        -5.5746    4.9439   -2.2683 C.ar      1 <0>        -0.1097
     25 C18        -6.5475    5.6543   -2.9437 C.ar      1 <0>        -0.1006
     26 C19        -6.4352    7.0259   -3.0796 C.ar      1 <0>        -0.1329
     27 C20        -5.3517    7.6914   -2.5360 C.ar      1 <0>        -0.0995
     28 C21        -4.3780    6.9877   -1.8549 C.ar      1 <0>        -0.1438
     29 H1         -0.2982   -0.1520    0.2393 H         1 <0>         0.0607
     30 H2          0.8129    1.2169   -0.0049 H         1 <0>         0.0770
     31 H3         -0.8064    1.2424   -0.7434 H         1 <0>         0.0596
     32 H4         -0.2143    1.2960    2.2505 H         1 <0>         0.0978
     33 H5         -0.7225    2.6904    1.2679 H         1 <0>         0.1007
     34 H6         -5.9240    0.2021    2.0295 H         1 <0>         0.1500
     35 H7         -4.9243   -2.3963    6.4507 H         1 <0>         0.1437
     36 H8         -5.0931   -4.5913    5.3536 H         1 <0>         0.1453
     37 H9         -4.7109   -4.7997    2.9327 H         1 <0>         0.1436
     38 H10        -6.5683    2.1789    0.6423 H         1 <0>         0.1876
     39 H11        -2.5781    5.1804   -1.0685 H         1 <0>         0.4261
     40 H12        -5.6608    3.8722   -2.1661 H         1 <0>         0.1341
     41 H13        -7.3948    5.1376   -3.3698 H         1 <0>         0.1261
     42 H14        -7.1953    7.5786   -3.6118 H         1 <0>         0.1238
     43 H15        -5.2670    8.7626   -2.6439 H         1 <0>         0.1269
     44 H16        -3.5319    7.5079   -1.4309 H         1 <0>         0.1250
@<TRIPOS>BOND
     1    1    2 1
     2    1   29 1
     3    1   30 1
     4    1   31 1
     5    2    3 1
     6    2   32 1
     7    2   33 1
     8    3    8 am
     9    3    4 1
    10    4   21 ar
    11    4    5 ar
    12    5    6 1
    13    5   18 ar
    14    6    7 2
    15    6   34 1
    16    7    8 1
    17    7   10 1
    18    8    9 2
    19   10   15 ar
    20   10   11 ar
    21   11   12 ar
    22   11   17 1
    23   12   13 ar
    24   12   35 1
    25   13   14 ar
    26   13   36 1
    27   14   15 ar
    28   14   37 1
    29   15   16 1
    30   18   19 ar
    31   18   38 1
    32   19   20 ar
    33   20   21 ar
    34   20   22 1
    35   22   23 1
    36   22   39 1
    37   23   28 ar
    38   23   24 ar
    39   24   25 ar
    40   24   40 1
    41   25   26 ar
    42   25   41 1
    43   26   27 ar
    44   26   42 1
    45   27   28 ar
    46   27   43 1
    47   28   44 1
@<TRIPOS>MOLECULE
ZINC03815303
   35    37     0     0     0
SMALL
USER_CHARGES

@<TRIPOS>ATOM
      1 C1          6.1938   -2.0934   -7.9310 C.3       1 <0>         0.0237
      2 O1          7.0323   -2.5630   -6.8733 O.3       1 <0>        -0.3103
      3 C2          6.6122   -2.3289   -5.6034 C.ar      1 <0>         0.1713
      4 C3          5.4067   -1.6550   -5.3876 C.ar      1 <0>        -0.2108
      5 C4          4.9621   -1.4068   -4.1245 C.ar      1 <0>        -0.0274
      6 C5          5.7198   -1.8307   -3.0260 C.ar      1 <0>        -0.2304
      7 C6          6.9433   -2.5146   -3.2343 C.ar      1 <0>         0.2257
      8 C7          7.3797   -2.7582   -4.5417 C.ar      1 <0>        -0.1590
      9 N1          7.6512   -2.9100   -2.1652 N.ar      1 <0>        -0.5599
     10 C8          7.2154   -2.6663   -0.9518 C.ar      1 <0>         0.3594
     11 N2          6.0826   -2.0272   -0.7090 N.ar      1 <0>        -0.6041
     12 C9          5.3037   -1.5979   -1.6938 C.ar      1 <0>         0.4826
     13 N3          4.1233   -0.9376   -1.4260 N.pl3     1 <0>        -0.6931
     14 C10         3.7112   -0.7071   -0.0392 C.3       1 <0>         0.1697
     15 C11         2.3960    0.0285   -0.0217 C.ar      1 <0>        -0.1168
     16 C12         1.2084   -0.6789   -0.0136 C.ar      1 <0>        -0.0991
     17 C13         0.0021   -0.0041    0.0020 C.ar      1 <0>        -0.1217
     18 C14        -0.0167    1.3781    0.0096 C.ar      1 <0>        -0.1090
     19 C15         1.1709    2.0855    0.0021 C.ar      1 <0>        -0.1218
     20 C16         2.3773    1.4107   -0.0141 C.ar      1 <0>        -0.0991
     21 H1          5.2143   -2.5654   -7.8549 H         1 <0>         0.0589
     22 H2          6.0830   -1.0118   -7.8538 H         1 <0>         0.0589
     23 H3          6.6447   -2.3449   -8.8910 H         1 <0>         0.1049
     24 H4          4.8203   -1.3273   -6.2333 H         1 <0>         0.1369
     25 H5          4.0292   -0.8848   -3.9708 H         1 <0>         0.1284
     26 H6          8.3100   -3.2779   -4.7174 H         1 <0>         0.1475
     27 H7          7.8103   -2.9982   -0.1138 H         1 <0>         0.1955
     28 H8          3.5657   -0.6257   -2.1559 H         1 <0>         0.4113
     29 H9          4.4679   -0.1107    0.4703 H         1 <0>         0.0817
     30 H10         3.5990   -1.6641    0.4703 H         1 <0>         0.0816
     31 H11         1.2231   -1.7587   -0.0199 H         1 <0>         0.1245
     32 H12        -0.9258   -0.5567    0.0079 H         1 <0>         0.1254
     33 H13        -0.9592    1.9054    0.0170 H         1 <0>         0.1247
     34 H14         1.1563    3.1654    0.0077 H         1 <0>         0.1254
     35 H15         3.3051    1.9634   -0.0207 H         1 <0>         0.1245
@<TRIPOS>BOND
     1    1    2 1
     2    1   21 1
     3    1   22 1
     4    1   23 1
     5    2    3 1
     6    3    8 ar
     7    3    4 ar
     8    4    5 ar
     9    4   24 1
    10    5    6 ar
    11    5   25 1
    12    6   12 ar
    13    6    7 ar
    14    7    8 ar
    15    7    9 ar
    16    8   26 1
    17    9   10 ar
    18   10   11 ar
    19   10   27 1
    20   11   12 ar
    21   12   13 1
    22   13   14 1
    23   13   28 1
    24   14   15 1
    25   14   29 1
    26   14   30 1
    27   15   20 ar
    28   15   16 ar
    29   16   17 ar
    30   16   31 1
    31   17   18 ar
    32   17   32 1
    33   18   19 ar
    34   18   33 1
    35   19   20 ar
    36   19   34 1
    37   20   35 1
@<TRIPOS>MOLECULE
ZINC03815304
   33    35     0     0     0
SMALL
USER_CHARGES

@<TRIPOS>ATOM
      1 C1          4.3513   -1.6229    0.1569 C.3       1 <0>        -0.0843
      2 C2          3.7503   -0.2546   -0.0367 C.2       1 <0>        -0.1399
      3 C3          4.4168    0.9087   -0.1175 C.2       1 <0>         0.0745
      4 N1          3.5313    1.9403   -0.2937 N.pl3     1 <0>        -0.5645
      5 H1          3.7763    2.8750   -0.3797 H         1 <0>         0.4228
      6 C4          2.2519    1.4582   -0.3311 C.ar      1 <0>         0.3470
      7 C5          2.3298    0.0619   -0.1719 C.ar      1 <0>        -0.2465
      8 C6          1.1408   -0.6829   -0.1733 C.ar      1 <0>         0.4777
      9 N2         -0.0102   -0.0339   -0.3255 N.ar      1 <0>        -0.5860
     10 C7         -0.0377    1.2783   -0.4719 C.ar      1 <0>         0.3578
     11 N3          1.0514    2.0163   -0.4767 N.ar      1 <0>        -0.5608
     12 N4          1.1649   -2.0584   -0.0197 N.pl3     1 <0>        -0.6457
     13 C8         -0.0330   -2.7702    0.0939 C.ar      1 <0>         0.1581
     14 C9         -0.1254   -4.0612   -0.4137 C.ar      1 <0>        -0.1217
     15 C10        -1.3070   -4.7694   -0.3036 C.ar      1 <0>        -0.0964
     16 C11        -2.4036   -4.2001    0.3116 C.ar      1 <0>        -0.0897
     17 C12        -2.3216   -2.9041    0.8248 C.ar      1 <0>        -0.0071
     18 C13        -1.1269   -2.1908    0.7179 C.ar      1 <0>        -0.0682
     19 C14        -3.4576   -2.3111    1.4640 C.1       1 <0>         0.2546
     20 N5         -4.3588   -1.8407    1.9710 N.1       1 <0>        -0.4125
     21 C15         5.9138    1.0574   -0.0288 C.3       1 <0>        -0.0926
     22 H2          4.5682   -2.0653   -0.8154 H         1 <0>         0.0716
     23 H3          5.2740   -1.5366    0.7307 H         1 <0>         0.0742
     24 H4          3.6465   -2.2565    0.6953 H         1 <0>         0.0596
     25 H5         -0.9936    1.7652   -0.5973 H         1 <0>         0.2024
     26 H6          2.0130   -2.5284    0.0090 H         1 <0>         0.4221
     27 H7          0.7292   -4.5121   -0.8961 H         1 <0>         0.1323
     28 H8         -1.3725   -5.7719   -0.6999 H         1 <0>         0.1384
     29 H9         -3.3250   -4.7572    0.3962 H         1 <0>         0.1341
     30 H10        -1.0560   -1.1896    1.1165 H         1 <0>         0.1463
     31 H11         6.3463    0.9814   -1.0265 H         1 <0>         0.0815
     32 H12         6.1576    2.0295    0.3998 H         1 <0>         0.0720
     33 H13         6.3204    0.2688    0.6044 H         1 <0>         0.0889
@<TRIPOS>BOND
     1    1    2 1
     2    1   22 1
     3    1   23 1
     4    1   24 1
     5    2    7 1
     6    2    3 2
     7    3    4 1
     8    3   21 1
     9    4    5 1
    10    4    6 1
    11    6   11 ar
    12    6    7 ar
    13    7    8 ar
    14    8    9 ar
    15    8   12 1
    16    9   10 ar
    17   10   11 ar
    18   10   25 1
    19   12   13 1
    20   12   26 1
    21   13   18 ar
    22   13   14 ar
    23   14   15 ar
    24   14   27 1
    25   15   16 ar
    26   15   28 1
    27   16   17 ar
    28   16   29 1
    29   17   18 ar
    30   17   19 1
    31   18   30 1
    32   19   20 3
    33   21   31 1
    34   21   32 1
    35   21   33 1
@<TRIPOS>MOLECULE
ZINC03815305
   41    44     0     0     0
SMALL
USER_CHARGES

@<TRIPOS>ATOM
      1 C1         -0.1628    7.8489    0.0420 C.3       1 <0>         0.0210
      2 O1          1.1115    7.2025    0.0268 O.3       1 <0>        -0.2997
      3 C2          1.1139    5.8427    0.0204 C.ar      1 <0>         0.1146
      4 C3         -0.0722    5.1652    0.0286 C.ar      1 <0>        -0.1540
      5 C4         -0.0709    3.7651    0.0220 C.ar      1 <0>        -0.1762
      6 C5          1.1582    3.0597    0.0070 C.ar      1 <0>         0.1967
      7 C6          2.3621    3.7747   -0.0012 C.ar      1 <0>        -0.1798
      8 C7          2.3336    5.1517    0.0060 C.ar      1 <0>         0.1596
      9 O2          3.5002    5.8479   -0.0015 O.3       1 <0>        -0.2977
     10 C8          4.7096    5.0870   -0.0161 C.3       1 <0>         0.0202
     11 N1          1.1313    1.7179    0.0005 N.ar      1 <0>        -0.5383
     12 C9         -0.0126    1.0758    0.0080 C.ar      1 <0>         0.3334
     13 N2         -1.1839    1.6921    0.0170 N.ar      1 <0>        -0.5157
     14 C10        -1.2708    3.0155    0.0295 C.ar      1 <0>         0.4486
     15 N3         -2.5006    3.6454    0.0441 N.pl3     1 <0>        -0.6195
     16 C11        -3.6651    2.8927    0.0513 C.ar      1 <0>         0.3972
     17 C12        -4.9238    3.5335    0.0721 C.ar      1 <0>        -0.1260
     18 C13        -5.0478    4.9290    0.0755 C.ar      1 <0>        -0.0939
     19 C14        -6.2883    5.4933    0.0899 C.ar      1 <0>        -0.1187
     20 C15        -7.4362    4.7044    0.0962 C.ar      1 <0>        -0.0946
     21 C16        -7.3525    3.3442    0.0885 C.ar      1 <0>        -0.1106
     22 C17        -6.0922    2.7307    0.0736 C.ar      1 <0>         0.0007
     23 C18        -5.9395    1.3304    0.0652 C.ar      1 <0>        -0.1940
     24 C19        -4.6836    0.8070    0.0508 C.ar      1 <0>         0.1190
     25 N4         -3.6022    1.5751    0.0441 N.ar      1 <0>        -0.4706
     26 H1         -0.7277    7.5592   -0.8440 H         1 <0>         0.0572
     27 H2         -0.7107    7.5509    0.9359 H         1 <0>         0.0572
     28 H3         -0.0218    8.9298    0.0457 H         1 <0>         0.1072
     29 H4         -1.0064    5.7069    0.0397 H         1 <0>         0.1364
     30 H5          3.3061    3.2502   -0.0123 H         1 <0>         0.1563
     31 H6          5.5644    5.7633   -0.0208 H         1 <0>         0.1071
     32 H7          4.7517    4.4544    0.8706 H         1 <0>         0.0621
     33 H8          4.7354    4.4627   -0.9093 H         1 <0>         0.0620
     34 H9          0.0021   -0.0041    0.0020 H         1 <0>         0.1979
     35 H10        -2.5492    4.6142    0.0494 H         1 <0>         0.4248
     36 H11        -4.1664    5.5532    0.0705 H         1 <0>         0.1204
     37 H12        -6.3828    6.5691    0.0970 H         1 <0>         0.1287
     38 H13        -8.4070    5.1776    0.1076 H         1 <0>         0.1294
     39 H14        -8.2501    2.7436    0.0942 H         1 <0>         0.1349
     40 H15        -6.8043    0.6834    0.0697 H         1 <0>         0.1388
     41 H16        -4.5636   -0.2663    0.0443 H         1 <0>         0.1580
@<TRIPOS>BOND
     1    1    2 1
     2    1   26 1
     3    1   27 1
     4    1   28 1
     5    2    3 1
     6    3    8 ar
     7    3    4 ar
     8    4    5 ar
     9    4   29 1
    10    5   14 ar
    11    5    6 ar
    12    6    7 ar
    13    6   11 ar
    14    7    8 ar
    15    7   30 1
    16    8    9 1
    17    9   10 1
    18   10   31 1
    19   10   32 1
    20   10   33 1
    21   11   12 ar
    22   12   13 ar
    23   12   34 1
    24   13   14 ar
    25   14   15 1
    26   15   16 1
    27   15   35 1
    28   16   25 ar
    29   16   17 ar
    30   17   22 ar
    31   17   18 ar
    32   18   19 ar
    33   18   36 1
    34   19   20 ar
    35   19   37 1
    36   20   21 ar
    37   20   38 1
    38   21   22 ar
    39   21   39 1
    40   22   23 ar
    41   23   24 ar
    42   23   40 1
    43   24   25 ar
    44   24   41 1
@<TRIPOS>MOLECULE
ZINC03815306
   46    49     0     0     0
SMALL
USER_CHARGES

@<TRIPOS>ATOM
      1 C1          3.6032   -4.6788   -3.9553 C.3       1 <0>        -0.0423
      2 C2          4.5500   -4.0501   -1.8173 C.3       1 <0>        -0.0515
      3 C3          2.3637   -3.2322   -2.4608 C.3       1 <0>        -0.0299
      4 C4          1.8965   -3.0792   -1.0119 C.3       1 <0>         0.0876
      5 N1          0.9486   -1.9660   -0.9195 N.pl3     1 <0>        -0.5027
      6 C5          1.2615   -0.6419   -0.6696 C.ar      1 <0>         0.1162
      7 C6          2.4473    0.0263   -0.4443 C.ar      1 <0>        -0.1204
      8 C7          2.4314    1.4043   -0.2172 C.ar      1 <0>         0.2150
      9 C8          1.1968    2.1057   -0.2201 C.ar      1 <0>        -0.1908
     10 C9          0.0029    1.4233   -0.4486 C.ar      1 <0>         0.0166
     11 C10         0.0310    0.0532   -0.6731 C.ar      1 <0>         0.0314
     12 N2         -0.9412   -0.8667   -0.9196 N.2       1 <0>        -0.4379
     13 C11        -0.4045   -2.0436   -1.0630 C.2       1 <0>         0.3280
     14 Cl1        -1.2856   -3.5032   -1.3902 Cl        1 <0>         0.0621
     15 C12         1.2227    3.5044    0.0139 C.ar      1 <0>         0.4879
     16 N3          2.3967    4.0836    0.2230 N.ar      1 <0>        -0.5851
     17 C13         3.5234    3.3876    0.2163 C.ar      1 <0>         0.3713
     18 N4          3.5630    2.0944    0.0060 N.ar      1 <0>        -0.5572
     19 N5          0.0572    4.2422    0.0242 N.pl3     1 <0>        -0.6288
     20 C14         0.1124    5.6344    0.1362 C.ar      1 <0>         0.1454
     21 C15         1.1486    6.3404   -0.4623 C.ar      1 <0>        -0.0898
     22 C16         1.2007    7.7157   -0.3500 C.ar      1 <0>        -0.0929
     23 C17         0.2228    8.3910    0.3573 C.ar      1 <0>        -0.0960
     24 C18        -0.8106    7.6915    0.9547 C.ar      1 <0>        -0.0727
     25 C19        -0.8715    6.3153    0.8411 C.ar      1 <0>        -0.1128
     26 Br1        -2.1452    8.6196    1.9208 Br        1 <0>        -0.0368
     27 H1          4.0351   -3.8098   -4.4518 H         1 <0>         0.1257
     28 H2          4.3093   -5.5082   -3.9951 H         1 <0>         0.1287
     29 H3          2.6796   -4.9634   -4.4594 H         1 <0>         0.1238
     30 H4          4.3147   -3.8777   -0.7671 H         1 <0>         0.1219
     31 H5          5.2360   -4.8929   -1.9024 H         1 <0>         0.1302
     32 H6          5.0162   -3.1584   -2.2363 H         1 <0>         0.1283
     33 H7          1.5043   -3.4327   -3.1005 H         1 <0>         0.1375
     34 H8          2.8508   -2.3124   -2.7845 H         1 <0>         0.1425
     35 H9          2.7559   -2.8786   -0.3722 H         1 <0>         0.1210
     36 H10         1.4093   -3.9990   -0.6882 H         1 <0>         0.1181
     37 H11         3.3828   -0.5132   -0.4438 H         1 <0>         0.1414
     38 H12        -0.9362    1.9567   -0.4553 H         1 <0>         0.1452
     39 H13         4.4523    3.9096    0.3926 H         1 <0>         0.2037
     40 H14        -0.8007    3.7950   -0.0462 H         1 <0>         0.4243
     41 H15         1.9129    5.8139   -1.0146 H         1 <0>         0.1404
     42 H16         2.0059    8.2647   -0.8155 H         1 <0>         0.1396
     43 H17         0.2658    9.4667    0.4433 H         1 <0>         0.1381
     44 H18        -1.6807    5.7699    1.3037 H         1 <0>         0.1365
     45 N6          3.3020   -4.3714   -2.5413 N.4       1 <0>        -0.3940
     46 H19         2.8666   -5.1935   -2.1067 H         1 <0>         0.4336
@<TRIPOS>BOND
     1    1   27 1
     2    1   28 1
     3    1   29 1
     4    1   45 1
     5    2   30 1
     6    2   31 1
     7    2   32 1
     8    2   45 1
     9    3    4 1
    10    3   33 1
    11    3   34 1
    12    3   45 1
    13    4    5 1
    14    4   35 1
    15    4   36 1
    16    5   13 1
    17    5    6 1
    18    6   11 ar
    19    6    7 ar
    20    7    8 ar
    21    7   37 1
    22    8   18 ar
    23    8    9 ar
    24    9   10 ar
    25    9   15 ar
    26   10   11 ar
    27   10   38 1
    28   11   12 1
    29   12   13 2
    30   13   14 1
    31   15   16 ar
    32   15   19 1
    33   16   17 ar
    34   17   18 ar
    35   17   39 1
    36   19   20 1
    37   19   40 1
    38   20   25 ar
    39   20   21 ar
    40   21   22 ar
    41   21   41 1
    42   22   23 ar
    43   22   42 1
    44   23   24 ar
    45   23   43 1
    46   24   25 ar
    47   24   26 1
    48   25   44 1
    49   45   46 1
@<TRIPOS>MOLECULE
ZINC03815307
   62    65     0     0     0
SMALL
USER_CHARGES

@<TRIPOS>ATOM
      1 C1         -2.2664    2.6406    5.7207 C.3       1 <0>         0.0696
      2 N1         -1.0652    1.8152    5.8687 N.am      1 <0>        -0.5066
      3 C2         -0.4094    1.3640    4.7512 C.ar      1 <0>         0.4682
      4 C3          0.7497    0.5679    4.8763 C.ar      1 <0>        -0.2690
      5 C4          1.2453    0.2291    6.1562 C.2       1 <0>         0.0178
      6 C5          0.5843    0.6839    7.2655 C.2       1 <0>        -0.1458
      7 C6         -0.6156    1.5073    7.1005 C.2       1 <0>         0.5529
      8 O1         -1.2098    1.9161    8.0821 O.2       1 <0>        -0.4897
      9 C7          1.0781    0.3458    8.6209 C.ar      1 <0>        -0.0200
     10 C8          0.6245   -0.8061    9.2648 C.ar      1 <0>        -0.0056
     11 C9          1.0925   -1.1181   10.5262 C.ar      1 <0>        -0.1044
     12 C10         2.0012   -0.2863   11.1554 C.ar      1 <0>        -0.0827
     13 C11         2.4509    0.8598   10.5247 C.ar      1 <0>        -0.1045
     14 C12         1.9945    1.1808    9.2613 C.ar      1 <0>        -0.0056
     15 Cl1         2.5591    2.6202    8.4720 Cl        1 <0>        -0.0520
     16 Cl2        -0.5209   -1.8478    8.4796 Cl        1 <0>        -0.0516
     17 C13         1.3899    0.1267    3.7087 C.ar      1 <0>         0.2644
     18 N2          0.8797    0.4693    2.5405 N.ar      1 <0>        -0.5871
     19 C14        -0.2103    1.2245    2.4609 C.ar      1 <0>         0.6055
     20 N3         -0.8488    1.6644    3.5342 N.ar      1 <0>        -0.5994
     21 N4         -0.6984    1.5583    1.2133 N.pl3     1 <0>        -0.6990
     22 C15        -0.0127    1.0858    0.0080 C.3       1 <0>         0.1395
     23 C16        -0.7527    1.5927   -1.2315 C.3       1 <0>        -0.1350
     24 C17        -0.0366    1.0992   -2.4903 C.3       1 <0>        -0.1464
     25 C18        -0.7766    1.6061   -3.7298 C.3       1 <0>        -0.0067
     26 C19         1.2439    1.7395   -5.0583 C.3       1 <0>        -0.0328
     27 C20         1.9566    1.1616   -6.2833 C.3       1 <0>        -0.0263
     28 C21        -0.1814    0.8170   -7.3645 C.3       1 <0>        -0.0268
     29 C22        -0.8941    1.3949   -6.1395 C.3       1 <0>        -0.0263
     30 C23         1.8391    0.9504   -8.6929 C.3       1 <0>        -0.0462
     31 H1         -3.1464    1.9984    5.6843 H         1 <0>         0.0755
     32 H2         -2.3472    3.3201    6.5692 H         1 <0>         0.0946
     33 H3         -2.1993    3.2176    4.7983 H         1 <0>         0.0932
     34 H4          2.1320   -0.3790    6.2574 H         1 <0>         0.1521
     35 H5          0.7451   -2.0112   11.0242 H         1 <0>         0.1460
     36 H6          2.3610   -0.5326   12.1435 H         1 <0>         0.1484
     37 H7          3.1601    1.5053   11.0215 H         1 <0>         0.1460
     38 H8          2.2790   -0.4839    3.7644 H         1 <0>         0.1871
     39 H9         -1.4954    2.1056    1.1349 H         1 <0>         0.4172
     40 H10         0.0021   -0.0041    0.0020 H         1 <0>         0.0738
     41 H11         1.0099    1.4631    0.0003 H         1 <0>         0.0726
     42 H12        -1.7753    1.2154   -1.2238 H         1 <0>         0.0865
     43 H13        -0.7675    2.6825   -1.2255 H         1 <0>         0.0853
     44 H14         0.9860    1.4765   -2.4981 H         1 <0>         0.0923
     45 H15        -0.0218    0.0093   -2.4963 H         1 <0>         0.0968
     46 H16        -1.7991    1.2288   -3.7221 H         1 <0>         0.1442
     47 H17        -0.7913    2.6960   -3.7239 H         1 <0>         0.1421
     48 H18         1.1429    2.8189   -5.1719 H         1 <0>         0.1570
     49 H19         1.8251    1.5206   -4.1625 H         1 <0>         0.1757
     50 H20         2.0818    0.0862   -6.1574 H         1 <0>         0.1561
     51 H21         2.9341    1.6318   -6.3908 H         1 <0>         0.1754
     52 H22        -0.0804   -0.2624   -7.2509 H         1 <0>         0.1559
     53 H23        -0.7628    1.0356   -8.2602 H         1 <0>         0.1755
     54 H24        -1.8715    0.9247   -6.0320 H         1 <0>         0.1750
     55 H25        -1.0193    2.4703   -6.2654 H         1 <0>         0.1563
     56 H26         1.2531    1.2172   -9.5725 H         1 <0>         0.1362
     57 H27         2.8229    1.4153   -8.7571 H         1 <0>         0.1363
     58 H28         1.9514   -0.1327   -8.6461 H         1 <0>         0.1329
     59 N5         -0.0853    1.1047   -4.9368 N.4       1 <0>        -0.4066
     60 H29         0.0365    0.0886   -4.8536 H         1 <0>         0.4382
     61 N6          1.1480    1.4519   -7.4859 N.4       1 <0>        -0.4066
     62 H30         1.0263    2.4680   -7.5691 H         1 <0>         0.4405
@<TRIPOS>BOND
     1    1    2 1
     2    1   31 1
     3    1   32 1
     4    1   33 1
     5    2    7 am
     6    2    3 1
     7    3   20 ar
     8    3    4 ar
     9    4    5 1
    10    4   17 ar
    11    5    6 2
    12    5   34 1
    13    6    7 1
    14    6    9 1
    15    7    8 2
    16    9   14 ar
    17    9   10 ar
    18   10   11 ar
    19   10   16 1
    20   11   12 ar
    21   11   35 1
    22   12   13 ar
    23   12   36 1
    24   13   14 ar
    25   13   37 1
    26   14   15 1
    27   17   18 ar
    28   17   38 1
    29   18   19 ar
    30   19   20 ar
    31   19   21 1
    32   21   22 1
    33   21   39 1
    34   22   23 1
    35   22   40 1
    36   22   41 1
    37   23   24 1
    38   23   42 1
    39   23   43 1
    40   24   25 1
    41   24   44 1
    42   24   45 1
    43   25   46 1
    44   25   47 1
    45   25   59 1
    46   26   27 1
    47   26   48 1
    48   26   49 1
    49   26   59 1
    50   27   50 1
    51   27   51 1
    52   27   61 1
    53   28   29 1
    54   28   52 1
    55   28   53 1
    56   28   61 1
    57   29   54 1
    58   29   55 1
    59   29   59 1
    60   30   56 1
    61   30   57 1
    62   30   58 1
    63   30   61 1
    64   59   60 1
    65   61   62 1
@<TRIPOS>MOLECULE
ZINC03815308
   46    49     0     0     0
SMALL
USER_CHARGES

@<TRIPOS>ATOM
      1 C1         -9.4546   -4.6479   -0.9492 C.3       1 <0>         0.0715
      2 N1         -8.9344   -4.1755   -2.2347 N.am      1 <0>        -0.5064
      3 C2         -7.8393   -3.3493   -2.2619 C.ar      1 <0>         0.4677
      4 C3         -7.3255   -2.8851   -3.4921 C.ar      1 <0>        -0.2900
      5 C4         -7.9362   -3.2683   -4.7080 C.2       1 <0>         0.0423
      6 C5         -9.0282   -4.0933   -4.6711 C.2       1 <0>        -0.1814
      7 C6         -9.5359   -4.5568   -3.3779 C.2       1 <0>         0.5599
      8 O1        -10.5068   -5.2913   -3.3361 O.2       1 <0>        -0.5115
      9 C7         -9.6908   -4.5129   -5.9281 C.ar      1 <0>        -0.0020
     10 C8        -10.7328   -3.7517   -6.4589 C.ar      1 <0>        -0.0073
     11 C9        -11.3436   -4.1463   -7.6331 C.ar      1 <0>        -0.1077
     12 C10       -10.9306   -5.2984   -8.2778 C.ar      1 <0>        -0.0910
     13 C11        -9.9015   -6.0601   -7.7544 C.ar      1 <0>        -0.1080
     14 C12        -9.2793   -5.6743   -6.5832 C.ar      1 <0>        -0.0074
     15 Cl1        -7.9887   -6.6323   -5.9273 Cl        1 <0>        -0.0503
     16 Cl2       -11.2566   -2.3087   -5.6482 Cl        1 <0>        -0.0491
     17 C13        -6.2039   -2.0424   -3.4758 C.ar      1 <0>         0.2662
     18 N2         -5.6746   -1.7178   -2.3111 N.ar      1 <0>        -0.5604
     19 C14        -6.1852   -2.1737   -1.1726 C.ar      1 <0>         0.6130
     20 N3         -7.2389   -2.9749   -1.1378 N.ar      1 <0>        -0.6033
     21 N4         -5.5914   -1.8029    0.0188 N.pl3     1 <0>        -0.6143
     22 C15        -4.5481   -0.8724    0.0199 C.ar      1 <0>         0.1193
     23 C16        -4.5383    0.1635   -0.9055 C.ar      1 <0>        -0.1003
     24 C17        -3.5058    1.0807   -0.9019 C.ar      1 <0>        -0.0981
     25 C18        -2.4826    0.9687    0.0215 C.ar      1 <0>        -0.0327
     26 C19        -2.4865   -0.0644    0.9407 C.ar      1 <0>        -0.0977
     27 C20        -3.5187   -0.9820    0.9460 C.ar      1 <0>        -0.1342
     28 C21        -1.3573    1.9712    0.0221 C.3       1 <0>        -0.1322
     29 C22        -1.7105    3.1223    0.9283 C.2       1 <0>         0.4652
     30 O2         -2.7675    3.1280    1.5137 O.co2     1 <0>        -0.6307
     31 H1        -10.2009   -3.9451   -0.5788 H         1 <0>         0.0728
     32 H2         -9.9125   -5.6283   -1.0808 H         1 <0>         0.0895
     33 H3         -8.6374   -4.7219   -0.2317 H         1 <0>         0.0949
     34 H4         -7.5472   -2.9157   -5.6518 H         1 <0>         0.1479
     35 H5        -12.1478   -3.5560   -8.0470 H         1 <0>         0.1421
     36 H6        -11.4141   -5.6047   -9.1937 H         1 <0>         0.1433
     37 H7         -9.5840   -6.9588   -8.2624 H         1 <0>         0.1419
     38 H8         -5.7824   -1.6676   -4.3968 H         1 <0>         0.1862
     39 H9         -5.8986   -2.1882    0.8543 H         1 <0>         0.4233
     40 H10        -5.3369    0.2513   -1.6271 H         1 <0>         0.1278
     41 H11        -3.4978    1.8866   -1.6209 H         1 <0>         0.1208
     42 H12        -1.6836   -0.1516    1.6577 H         1 <0>         0.1218
     43 H13        -3.5235   -1.7860    1.6671 H         1 <0>         0.1187
     44 H14        -1.2000    2.3414   -0.9910 H         1 <0>         0.0765
     45 H15        -0.4453    1.4935    0.3800 H         1 <0>         0.0760
     46 O3         -0.8485    4.1385    1.0896 O.co2     1 <0>        -0.7725
@<TRIPOS>BOND
     1    1    2 1
     2    1   31 1
     3    1   32 1
     4    1   33 1
     5    2    7 am
     6    2    3 1
     7    3   20 ar
     8    3    4 ar
     9    4    5 1
    10    4   17 ar
    11    5    6 2
    12    5   34 1
    13    6    7 1
    14    6    9 1
    15    7    8 2
    16    9   14 ar
    17    9   10 ar
    18   10   11 ar
    19   10   16 1
    20   11   12 ar
    21   11   35 1
    22   12   13 ar
    23   12   36 1
    24   13   14 ar
    25   13   37 1
    26   14   15 1
    27   17   18 ar
    28   17   38 1
    29   18   19 ar
    30   19   20 ar
    31   19   21 1
    32   21   22 1
    33   21   39 1
    34   22   27 ar
    35   22   23 ar
    36   23   24 ar
    37   23   40 1
    38   24   25 ar
    39   24   41 1
    40   25   26 ar
    41   25   28 1
    42   26   27 ar
    43   26   42 1
    44   27   43 1
    45   28   29 1
    46   28   44 1
    47   28   45 1
    48   29   30 2
    49   29   46 1
@<TRIPOS>MOLECULE
ZINC03815309
   45    48     0     0     0
SMALL
USER_CHARGES

@<TRIPOS>ATOM
      1 C1          2.0709    8.2772    0.4276 C.3       1 <0>         0.0701
      2 N1          3.3654    7.5914    0.4148 N.am      1 <0>        -0.5061
      3 C2          3.4085    6.2243    0.3059 C.ar      1 <0>         0.4674
      4 C3          4.6476    5.5480    0.2920 C.ar      1 <0>        -0.2786
      5 C4          5.8559    6.2749    0.3904 C.2       1 <0>         0.0317
      6 C5          5.8030    7.6388    0.4983 C.2       1 <0>        -0.1655
      7 C6          4.5011    8.3093    0.5096 C.2       1 <0>         0.5571
      8 O1          4.4450    9.5224    0.6049 O.2       1 <0>        -0.5021
      9 C7          7.0517    8.4293    0.6026 C.ar      1 <0>        -0.0096
     10 C8          7.5999    8.7114    1.8545 C.ar      1 <0>        -0.0065
     11 C9          8.7669    9.4447    1.9445 C.ar      1 <0>        -0.1065
     12 C10         9.3865    9.9078    0.7978 C.ar      1 <0>        -0.0876
     13 C11         8.8455    9.6361   -0.4460 C.ar      1 <0>        -0.1065
     14 C12         7.6816    8.8998   -0.5502 C.ar      1 <0>        -0.0066
     15 Cl1         7.0036    8.5609   -2.1120 Cl        1 <0>        -0.0504
     16 Cl2         6.8202    8.1368    3.2951 Cl        1 <0>        -0.0501
     17 C13         4.6477    4.1496    0.1787 C.ar      1 <0>         0.2652
     18 N2          3.4895    3.5229    0.0897 N.ar      1 <0>        -0.5689
     19 C14         2.3421    4.1926    0.1060 C.ar      1 <0>         0.6089
     20 N3          2.2918    5.5122    0.2062 N.ar      1 <0>        -0.5976
     21 N4          1.1585    3.4870    0.0093 N.pl3     1 <0>        -0.6231
     22 C15         1.1757    2.0869    0.0133 C.ar      1 <0>         0.1171
     23 C16         2.1234    1.4060    0.7660 C.ar      1 <0>        -0.0674
     24 C17         2.1394    0.0252    0.7698 C.ar      1 <0>        -0.1319
     25 C18         1.2089   -0.6817    0.0223 C.ar      1 <0>         0.1168
     26 C19         0.2619   -0.0022   -0.7299 C.ar      1 <0>        -0.1885
     27 C20         0.2448    1.3786   -0.7351 C.ar      1 <0>        -0.1008
     28 O2          1.2253   -2.0414    0.0266 O.3       1 <0>        -0.3168
     29 C21         0.2382   -2.7046   -0.7658 C.3       1 <0>         0.0262
     30 H1          1.7162    8.3647    1.4546 H         1 <0>         0.0744
     31 H2          2.1823    9.2718   -0.0042 H         1 <0>         0.0919
     32 H3          1.3510    7.7055   -0.1580 H         1 <0>         0.0949
     33 H4          6.8065    5.7624    0.3799 H         1 <0>         0.1503
     34 H5          9.1942    9.6606    2.9126 H         1 <0>         0.1437
     35 H6         10.2966   10.4843    0.8739 H         1 <0>         0.1453
     36 H7          9.3340   10.0009   -1.3374 H         1 <0>         0.1436
     37 H8          5.5758    3.5975    0.1643 H         1 <0>         0.1882
     38 H9          0.3154    3.9615   -0.0615 H         1 <0>         0.4259
     39 H10         2.8449    1.9561    1.3519 H         1 <0>         0.1418
     40 H11         2.8763   -0.5046    1.3552 H         1 <0>         0.1357
     41 H12        -0.4620   -0.5533   -1.3119 H         1 <0>         0.1330
     42 H13        -0.4923    1.9074   -1.3211 H         1 <0>         0.1289
     43 H14        -0.7558   -2.4226   -0.4188 H         1 <0>         0.0559
     44 H15         0.3547   -2.4136   -1.8098 H         1 <0>         0.0560
     45 H16         0.3629   -3.7835   -0.6733 H         1 <0>         0.1010
@<TRIPOS>BOND
     1    1    2 1
     2    1   30 1
     3    1   31 1
     4    1   32 1
     5    2    7 am
     6    2    3 1
     7    3   20 ar
     8    3    4 ar
     9    4    5 1
    10    4   17 ar
    11    5    6 2
    12    5   33 1
    13    6    7 1
    14    6    9 1
    15    7    8 2
    16    9   14 ar
    17    9   10 ar
    18   10   11 ar
    19   10   16 1
    20   11   12 ar
    21   11   34 1
    22   12   13 ar
    23   12   35 1
    24   13   14 ar
    25   13   36 1
    26   14   15 1
    27   17   18 ar
    28   17   37 1
    29   18   19 ar
    30   19   20 ar
    31   19   21 1
    32   21   22 1
    33   21   38 1
    34   22   27 ar
    35   22   23 ar
    36   23   24 ar
    37   23   39 1
    38   24   25 ar
    39   24   40 1
    40   25   26 ar
    41   25   28 1
    42   26   27 ar
    43   26   41 1
    44   27   42 1
    45   28   29 1
    46   29   43 1
    47   29   44 1
    48   29   45 1
@<TRIPOS>MOLECULE
ZINC03815310
   29    31     0     0     0
SMALL
USER_CHARGES

@<TRIPOS>ATOM
      1 C1          2.2048    1.4101   -0.6575 C.ar      1 <0>        -0.0747
      2 C2          2.2305    0.0291   -0.6524 C.ar      1 <0>        -0.1393
      3 C3          1.2137   -0.6812   -0.0267 C.ar      1 <0>         0.1822
      4 C4          0.1734    0.0005    0.5924 C.ar      1 <0>        -0.1542
      5 C5          0.1534    1.3823    0.5838 C.ar      1 <0>        -0.0055
      6 C6          1.1686    2.0863   -0.0408 C.ar      1 <0>        -0.1367
      7 Cl1        -1.1454    2.2358    1.3573 Cl        1 <0>        -0.0649
      8 N1          1.2369   -2.0779   -0.0204 N.pl3     1 <0>        -0.6381
      9 C7          2.4515   -2.7566   -0.1411 C.2       1 <0>         0.3847
     10 C8          2.6253   -4.2007   -0.2663 C.ar      1 <0>        -0.3892
     11 C9          1.7566   -5.3053   -0.3078 C.ar      1 <0>         0.5538
     12 N2          2.2816   -6.5189   -0.4336 N.ar      1 <0>        -0.6435
     13 C10         3.5956   -6.6912   -0.5200 C.ar      1 <0>         0.6514
     14 N3          4.4483   -5.6817   -0.4855 N.ar      1 <0>        -0.6279
     15 C11         4.0119   -4.4283   -0.3607 C.ar      1 <0>         0.4376
     16 N4          4.6166   -3.2097   -0.2962 N.pl3     1 <0>        -0.4806
     17 H1          5.6032   -3.0512   -0.3343 H         1 <0>         0.4542
     18 N5          3.6420   -2.2144   -0.1683 N.2       1 <0>        -0.2978
     19 N6          4.0910   -7.9766   -0.6506 N.pl3     1 <0>        -0.8119
     20 N7          0.3893   -5.1326   -0.2190 N.pl3     1 <0>        -0.8230
     21 H2          2.9976    1.9624   -1.1400 H         1 <0>         0.1366
     22 H3          3.0403   -0.4981   -1.1348 H         1 <0>         0.1484
     23 H4         -0.6185   -0.5487    1.0800 H         1 <0>         0.1356
     24 H5          1.1511    3.1662   -0.0463 H         1 <0>         0.1346
     25 H6          0.4095   -2.5764    0.0677 H         1 <0>         0.4149
     26 H7          5.0477   -8.1235   -0.7149 H         1 <0>         0.4174
     27 H8          3.4816   -8.7308   -0.6778 H         1 <0>         0.4173
     28 H9          0.0180   -4.2413   -0.1268 H         1 <0>         0.4040
     29 H10        -0.1997   -5.9027   -0.2488 H         1 <0>         0.4147
@<TRIPOS>BOND
     1    1    6 ar
     2    1    2 ar
     3    1   21 1
     4    2    3 ar
     5    2   22 1
     6    3    4 ar
     7    3    8 1
     8    4    5 ar
     9    4   23 1
    10    5    6 ar
    11    5    7 1
    12    6   24 1
    13    8    9 1
    14    8   25 1
    15    9   18 2
    16    9   10 1
    17   10   15 ar
    18   10   11 ar
    19   11   12 ar
    20   11   20 1
    21   12   13 ar
    22   13   14 ar
    23   13   19 1
    24   14   15 ar
    25   15   16 1
    26   16   17 1
    27   16   18 1
    28   19   26 1
    29   19   27 1
    30   20   28 1
    31   20   29 1
@<TRIPOS>MOLECULE
ZINC03815310
   29    31     0     0     0
SMALL
USER_CHARGES

@<TRIPOS>ATOM
      1 C1          2.2048    1.4101   -0.6575 C.ar      1 <0>        -0.0747
      2 C2          2.2305    0.0291   -0.6524 C.ar      1 <0>        -0.1393
      3 C3          1.2137   -0.6812   -0.0267 C.ar      1 <0>         0.1822
      4 C4          0.1734    0.0005    0.5924 C.ar      1 <0>        -0.1542
      5 C5          0.1534    1.3823    0.5838 C.ar      1 <0>        -0.0055
      6 C6          1.1686    2.0863   -0.0408 C.ar      1 <0>        -0.1367
      7 Cl1        -1.1454    2.2358    1.3573 Cl        1 <0>        -0.0649
      8 N1          1.2369   -2.0779   -0.0204 N.pl3     1 <0>        -0.6381
      9 C7          2.4515   -2.7566   -0.1411 C.2       1 <0>         0.3847
     10 C8          2.6253   -4.2007   -0.2663 C.ar      1 <0>        -0.3892
     11 C9          1.7566   -5.3053   -0.3078 C.ar      1 <0>         0.5538
     12 N2          2.2816   -6.5189   -0.4336 N.ar      1 <0>        -0.6435
     13 C10         3.5956   -6.6912   -0.5200 C.ar      1 <0>         0.6514
     14 N3          4.4483   -5.6817   -0.4855 N.ar      1 <0>        -0.6279
     15 C11         4.0119   -4.4283   -0.3607 C.ar      1 <0>         0.4376
     16 N4          4.6166   -3.2097   -0.2962 N.pl3     1 <0>        -0.4806
     17 H1          5.6032   -3.0512   -0.3343 H         1 <0>         0.4542
     18 N5          3.6420   -2.2144   -0.1683 N.2       1 <0>        -0.2978
     19 N6          4.0910   -7.9766   -0.6506 N.pl3     1 <0>        -0.8119
     20 N7          0.3893   -5.1326   -0.2190 N.pl3     1 <0>        -0.8230
     21 H2          2.9976    1.9624   -1.1400 H         1 <0>         0.1366
     22 H3          3.0403   -0.4981   -1.1348 H         1 <0>         0.1484
     23 H4         -0.6185   -0.5487    1.0800 H         1 <0>         0.1356
     24 H5          1.1511    3.1662   -0.0463 H         1 <0>         0.1346
     25 H6          0.4095   -2.5764    0.0677 H         1 <0>         0.4149
     26 H7          5.0477   -8.1235   -0.7149 H         1 <0>         0.4174
     27 H8          3.4816   -8.7308   -0.6778 H         1 <0>         0.4173
     28 H9          0.0180   -4.2413   -0.1268 H         1 <0>         0.4040
     29 H10        -0.1997   -5.9027   -0.2488 H         1 <0>         0.4147
@<TRIPOS>BOND
     1    1    6 ar
     2    1    2 ar
     3    1   21 1
     4    2    3 ar
     5    2   22 1
     6    3    4 ar
     7    3    8 1
     8    4    5 ar
     9    4   23 1
    10    5    6 ar
    11    5    7 1
    12    6   24 1
    13    8    9 1
    14    8   25 1
    15    9   18 2
    16    9   10 1
    17   10   15 ar
    18   10   11 ar
    19   11   12 ar
    20   11   20 1
    21   12   13 ar
    22   13   14 ar
    23   13   19 1
    24   14   15 ar
    25   15   16 1
    26   16   17 1
    27   16   18 1
    28   19   26 1
    29   19   27 1
    30   20   28 1
    31   20   29 1
@<TRIPOS>MOLECULE
ZINC03815310
   30    32     0     0     0
SMALL
USER_CHARGES

@<TRIPOS>ATOM
      1 C1          2.2048    1.4101   -0.6575 C.ar      1 <0>        -0.0735
      2 C2          2.2305    0.0291   -0.6524 C.ar      1 <0>        -0.1350
      3 C3          1.2137   -0.6812   -0.0267 C.ar      1 <0>         0.1566
      4 C4          0.1734    0.0005    0.5924 C.ar      1 <0>        -0.1399
      5 C5          0.1534    1.3823    0.5838 C.ar      1 <0>        -0.0069
      6 C6          1.1686    2.0863   -0.0408 C.ar      1 <0>        -0.1197
      7 Cl1        -1.1454    2.2358    1.3573 Cl        1 <0>        -0.0494
      8 N1          1.2369   -2.0779   -0.0204 N.pl3     1 <0>        -0.6264
      9 C7          2.4515   -2.7566   -0.1411 C.2       1 <0>         0.4136
     10 C8          2.6253   -4.2007   -0.2663 C.ar      1 <0>        -0.3374
     11 C9          1.7566   -5.3053   -0.3078 C.ar      1 <0>         0.5973
     12 N2          2.2816   -6.5189   -0.4336 N.ar      1 <0>        -0.5813
     13 C10         3.5956   -6.6912   -0.5200 C.ar      1 <0>         0.7038
     14 C11         4.0119   -4.4283   -0.3607 C.ar      1 <0>         0.4110
     15 N3          4.6166   -3.2097   -0.2962 N.pl3     1 <0>        -0.4378
     16 H1          5.6032   -3.0512   -0.3343 H         1 <0>         0.4705
     17 N4          3.6420   -2.2144   -0.1683 N.2       1 <0>        -0.2716
     18 N5          4.0910   -7.9766   -0.6506 N.pl3     1 <0>        -0.7830
     19 N6          0.3893   -5.1326   -0.2190 N.pl3     1 <0>        -0.7729
     20 H2          2.9976    1.9624   -1.1400 H         1 <0>         0.1422
     21 H3          3.0403   -0.4981   -1.1348 H         1 <0>         0.1449
     22 H4         -0.6185   -0.5487    1.0800 H         1 <0>         0.1402
     23 H5          1.1511    3.1662   -0.0463 H         1 <0>         0.1418
     24 H6          0.4095   -2.5764    0.0677 H         1 <0>         0.4195
     25 H7          5.0477   -8.1235   -0.7149 H         1 <0>         0.4317
     26 H8          3.4816   -8.7308   -0.6778 H         1 <0>         0.4467
     27 H9          0.0180   -4.2413   -0.1268 H         1 <0>         0.4216
     28 H10        -0.1997   -5.9027   -0.2488 H         1 <0>         0.4348
     29 N7          4.5195   -5.6948   -0.4905 N.ar      1 <0>        -0.5991
     30 H11         5.4928   -5.9131   -0.5614 H         1 <0>         0.4577
@<TRIPOS>BOND
     1    1    6 ar
     2    1    2 ar
     3    1   20 1
     4    2    3 ar
     5    2   21 1
     6    3    4 ar
     7    3    8 1
     8    4    5 ar
     9    4   22 1
    10    5    6 ar
    11    5    7 1
    12    6   23 1
    13    8    9 1
    14    8   24 1
    15    9   17 2
    16    9   10 1
    17   10   14 ar
    18   10   11 ar
    19   11   12 ar
    20   11   19 1
    21   12   13 ar
    22   13   18 1
    23   13   29 ar
    24   14   15 1
    25   14   29 ar
    26   15   16 1
    27   15   17 1
    28   18   25 1
    29   18   26 1
    30   19   27 1
    31   19   28 1
    32   29   30 1
@<TRIPOS>MOLECULE
ZINC03815311
   39    42     0     0     0
SMALL
USER_CHARGES

@<TRIPOS>ATOM
      1 C1         -4.4017   -2.2269    0.4383 C.3       1 <0>        -0.0934
      2 C2         -2.9461   -1.9162    0.2023 C.2       1 <0>         0.0970
      3 C3         -2.3970   -0.6768    0.2319 C.2       1 <0>        -0.1082
      4 C4         -0.9653   -0.8480   -0.0456 C.ar      1 <0>        -0.2368
      5 C5         -0.7651   -2.2267   -0.2348 C.ar      1 <0>         0.3480
      6 N1         -1.9777   -2.8416   -0.0752 N.pl3     1 <0>        -0.5614
      7 H1         -2.1286   -3.7970   -0.1485 H         1 <0>         0.4246
      8 N2          0.4650   -2.6589   -0.5085 N.ar      1 <0>        -0.5603
      9 C6          1.4685   -1.8135   -0.6049 C.ar      1 <0>         0.3582
     10 N3          1.3227   -0.5116   -0.4395 N.ar      1 <0>        -0.5817
     11 C7          0.1324    0.0147   -0.1631 C.ar      1 <0>         0.4781
     12 N4         -0.0167    1.3803    0.0096 N.pl3     1 <0>        -0.6432
     13 C8          1.1065    2.2123    0.0035 C.ar      1 <0>         0.1707
     14 C9          1.0114    3.5064   -0.4931 C.ar      1 <0>        -0.1477
     15 C10         2.1223    4.3265   -0.4976 C.ar      1 <0>        -0.0845
     16 C11         3.3294    3.8614   -0.0085 C.ar      1 <0>        -0.1306
     17 C12         3.4280    2.5732    0.4873 C.ar      1 <0>        -0.0134
     18 C13         2.3182    1.7490    0.4989 C.ar      1 <0>        -0.1081
     19 Cl1         4.9451    1.9937    1.1008 Cl        1 <0>        -0.0660
     20 C14        -3.1023    0.5995    0.4986 C.ar      1 <0>        -0.0167
     21 C15        -3.1900    1.5719   -0.4967 C.ar      1 <0>        -0.1204
     22 C16        -3.8532    2.7555   -0.2446 C.ar      1 <0>        -0.1151
     23 C17        -4.4196    2.9833    0.9968 C.ar      1 <0>        -0.1167
     24 C18        -4.3309    2.0245    1.9900 C.ar      1 <0>        -0.1139
     25 C19        -3.6755    0.8345    1.7476 C.ar      1 <0>        -0.1034
     26 H2         -4.5669   -2.4084    1.5003 H         1 <0>         0.0834
     27 H3         -5.0105   -1.3826    0.1150 H         1 <0>         0.0896
     28 H4         -4.6805   -3.1145   -0.1296 H         1 <0>         0.0746
     29 H5          2.4518   -2.2003   -0.8281 H         1 <0>         0.2037
     30 H6         -0.9010    1.7601    0.1310 H         1 <0>         0.4228
     31 H7          0.0693    3.8706   -0.8756 H         1 <0>         0.1291
     32 H8          2.0484    5.3326   -0.8833 H         1 <0>         0.1362
     33 H9          4.1967    4.5049   -0.0133 H         1 <0>         0.1340
     34 H10         2.3944    0.7450    0.8894 H         1 <0>         0.1483
     35 H11        -2.7437    1.3972   -1.4645 H         1 <0>         0.1223
     36 H12        -3.9262    3.5073   -1.0165 H         1 <0>         0.1261
     37 H13        -4.9335    3.9131    1.1911 H         1 <0>         0.1247
     38 H14        -4.7750    2.2078    2.9573 H         1 <0>         0.1260
     39 H15        -3.6072    0.0866    2.5236 H         1 <0>         0.1239
@<TRIPOS>BOND
     1    1    2 1
     2    1   26 1
     3    1   27 1
     4    1   28 1
     5    2    6 1
     6    2    3 2
     7    3    4 1
     8    3   20 1
     9    4   11 ar
    10    4    5 ar
    11    5    6 1
    12    5    8 ar
    13    6    7 1
    14    8    9 ar
    15    9   10 ar
    16    9   29 1
    17   10   11 ar
    18   11   12 1
    19   12   13 1
    20   12   30 1
    21   13   18 ar
    22   13   14 ar
    23   14   15 ar
    24   14   31 1
    25   15   16 ar
    26   15   32 1
    27   16   17 ar
    28   16   33 1
    29   17   18 ar
    30   17   19 1
    31   18   34 1
    32   20   25 ar
    33   20   21 ar
    34   21   22 ar
    35   21   35 1
    36   22   23 ar
    37   22   36 1
    38   23   24 ar
    39   23   37 1
    40   24   25 ar
    41   24   38 1
    42   25   39 1
@<TRIPOS>MOLECULE
ZINC03815312
   35    37     0     0     0
SMALL
USER_CHARGES

@<TRIPOS>ATOM
      1 C1         -6.6836    4.8595    1.2686 C.ar      1 <0>        -0.1766
      2 C2         -7.1192    5.4537    0.0981 C.ar      1 <0>        -0.0503
      3 C3         -6.4604    5.2069   -1.0901 C.ar      1 <0>        -0.1979
      4 C4         -5.3589    4.3604   -1.1089 C.ar      1 <0>         0.2362
      5 C5         -4.9241    3.7653    0.0683 C.ar      1 <0>        -0.2142
      6 C6         -5.5909    4.0124    1.2524 C.ar      1 <0>        -0.0468
      7 C7         -3.7300    2.8460    0.0526 C.3       1 <0>         0.1670
      8 N1         -2.5006    3.6426    0.0446 N.pl3     1 <0>        -0.6598
      9 C8         -1.2740    3.0160    0.0300 C.ar      1 <0>         0.5190
     10 C9         -0.0745    3.7650    0.0221 C.ar      1 <0>        -0.2647
     11 C10        -0.0557    5.1619    0.0281 C.ar      1 <0>         0.2632
     12 C11         2.2642    5.1758    0.0064 C.ar      1 <0>         0.4420
     13 C12         2.3453    3.7954   -0.0009 C.ar      1 <0>        -0.1945
     14 C13         1.1566    3.0567    0.0070 C.ar      1 <0>         0.3056
     15 N2          1.1330    1.7181    0.0005 N.ar      1 <0>        -0.5635
     16 C14        -0.0126    1.0758    0.0080 C.ar      1 <0>         0.4316
     17 N3         -1.1838    1.6912    0.0170 N.ar      1 <0>        -0.5913
     18 N4          3.4343    5.9239   -0.0013 N.pl3     1 <0>        -0.8292
     19 N5         -4.6905    4.1081   -2.3091 N.pl3     1 <0>        -0.8766
     20 H1         -7.2009    5.0540    2.1965 H         1 <0>         0.1263
     21 H2         -7.9758    6.1113    0.1134 H         1 <0>         0.1284
     22 H3         -6.8013    5.6709   -2.0038 H         1 <0>         0.1261
     23 H4         -5.2560    3.5465    2.1674 H         1 <0>         0.1258
     24 H5         -3.7641    2.2215   -0.8401 H         1 <0>         0.0899
     25 H6         -3.7471    2.2131    0.9398 H         1 <0>         0.0980
     26 H7         -2.5503    4.6114    0.0497 H         1 <0>         0.4148
     27 H8         -0.9838    5.7141    0.0393 H         1 <0>         0.1949
     28 H9          3.3042    3.2985   -0.0122 H         1 <0>         0.1910
     29 H10         0.0021   -0.0041    0.0020 H         1 <0>         0.2193
     30 H11         4.2954    5.4774   -0.0117 H         1 <0>         0.4384
     31 H12         3.3905    6.8929    0.0037 H         1 <0>         0.4189
     32 H13        -3.9217    3.5167   -2.3211 H         1 <0>         0.3952
     33 H14        -4.9950    4.5244   -3.1307 H         1 <0>         0.4037
     34 N6          1.0900    5.8897    0.0206 N.ar      1 <0>        -0.5426
     35 H15         1.0800    6.9164    0.0253 H         1 <0>         0.4727
@<TRIPOS>BOND
     1    1    6 ar
     2    1    2 ar
     3    1   20 1
     4    2    3 ar
     5    2   21 1
     6    3    4 ar
     7    3   22 1
     8    4    5 ar
     9    4   19 1
    10    5    6 ar
    11    5    7 1
    12    6   23 1
    13    7    8 1
    14    7   24 1
    15    7   25 1
    16    8    9 1
    17    8   26 1
    18    9   17 ar
    19    9   10 ar
    20   10   14 ar
    21   10   11 ar
    22   11   27 1
    23   11   34 ar
    24   12   13 ar
    25   12   18 1
    26   12   34 ar
    27   13   14 ar
    28   13   28 1
    29   14   15 ar
    30   15   16 ar
    31   16   17 ar
    32   16   29 1
    33   18   30 1
    34   18   31 1
    35   19   32 1
    36   19   33 1
    37   34   35 1
@<TRIPOS>MOLECULE
ZINC03815313
   47    49     0     0     0
SMALL
USER_CHARGES

@<TRIPOS>ATOM
      1 C1         -7.4772   -0.0474   -0.0853 C.3       1 <0>        -0.1455
      2 C2         -7.3381    1.0853    0.9338 C.3       1 <0>        -0.0527
      3 C3         -7.3435    0.5023    2.3483 C.3       1 <0>        -0.1445
      4 C4         -6.0424    1.8176    0.6972 C.ar      1 <0>        -0.1166
      5 C5         -6.0580    3.1667    0.3933 C.ar      1 <0>        -0.0738
      6 C6         -4.8725    3.8410    0.1768 C.ar      1 <0>        -0.1742
      7 C7         -3.6633    3.1626    0.2641 C.ar      1 <0>         0.1966
      8 C8         -3.6517    1.8060    0.5635 C.ar      1 <0>        -0.1755
      9 C9         -4.8406    1.1392    0.7849 C.ar      1 <0>        -0.0692
     10 N1         -2.4619    3.8418    0.0457 N.pl3     1 <0>        -0.7081
     11 C10        -1.2713    3.1436    0.0070 C.ar      1 <0>         0.2697
     12 C11        -0.5503    2.8633    1.1907 C.ar      1 <0>        -0.1006
     13 C12        -1.0223    3.2871    2.4421 C.ar      1 <0>        -0.1560
     14 C13        -0.3065    3.0037    3.5692 C.ar      1 <0>         0.1250
     15 C14         0.8987    2.2916    3.4891 C.ar      1 <0>         0.1553
     16 C15         1.3833    1.8643    2.2741 C.ar      1 <0>        -0.1776
     17 C16         0.6656    2.1439    1.1007 C.ar      1 <0>         0.1666
     18 N2          1.1227    1.7367   -0.0926 N.ar      1 <0>        -0.4639
     19 C17         0.4764    1.9826   -1.2035 C.ar      1 <0>         0.1795
     20 C18        -0.7342    2.6939   -1.2087 C.ar      1 <0>        -0.0923
     21 C19        -1.4162    2.9527   -2.4409 C.1       1 <0>         0.2565
     22 N3         -1.9573    3.1579   -3.4185 N.1       1 <0>        -0.3972
     23 O1          1.5954    2.0202    4.6234 O.3       1 <0>        -0.2965
     24 C20         2.8157    1.2914    4.4764 C.3       1 <0>         0.0196
     25 O2         -0.7666    3.4153    4.7808 O.3       1 <0>        -0.2989
     26 C21        -2.0006    4.1358    4.7955 C.3       1 <0>         0.0227
     27 H1         -6.6429   -0.7401    0.0254 H         1 <0>         0.0555
     28 H2         -8.4143   -0.5771    0.0859 H         1 <0>         0.0575
     29 H3         -7.4733    0.3679   -1.0930 H         1 <0>         0.0553
     30 H4         -8.1724    1.7780    0.8232 H         1 <0>         0.0757
     31 H5         -7.2444    1.3093    3.0743 H         1 <0>         0.0551
     32 H6         -8.2806   -0.0274    2.5194 H         1 <0>         0.0573
     33 H7         -6.5092   -0.1904    2.4590 H         1 <0>         0.0555
     34 H8         -6.9984    3.6935    0.3256 H         1 <0>         0.1239
     35 H9         -4.8853    4.8947   -0.0597 H         1 <0>         0.1231
     36 H10        -2.7137    1.2746    0.6277 H         1 <0>         0.1181
     37 H11        -4.8320    0.0857    1.0224 H         1 <0>         0.1224
     38 H12        -2.4644    4.8038   -0.0788 H         1 <0>         0.4166
     39 H13        -1.9498    3.8358    2.5135 H         1 <0>         0.1485
     40 H14         2.3127    1.3166    2.2235 H         1 <0>         0.1571
     41 H15         0.8864    1.6336   -2.1398 H         1 <0>         0.1731
     42 H16         3.2703    1.1427    5.4559 H         1 <0>         0.1073
     43 H17         2.6080    0.3229    4.0215 H         1 <0>         0.0626
     44 H18         3.4997    1.8526    3.8398 H         1 <0>         0.0626
     45 H19        -1.8997    5.0415    4.1975 H         1 <0>         0.0579
     46 H20        -2.7909    3.5114    4.3787 H         1 <0>         0.0596
     47 H21        -2.2525    4.4041    5.8215 H         1 <0>         0.1067
@<TRIPOS>BOND
     1    1    2 1
     2    1   27 1
     3    1   28 1
     4    1   29 1
     5    2    3 1
     6    2    4 1
     7    2   30 1
     8    3   31 1
     9    3   32 1
    10    3   33 1
    11    4    9 ar
    12    4    5 ar
    13    5    6 ar
    14    5   34 1
    15    6    7 ar
    16    6   35 1
    17    7    8 ar
    18    7   10 1
    19    8    9 ar
    20    8   36 1
    21    9   37 1
    22   10   11 1
    23   10   38 1
    24   11   20 ar
    25   11   12 ar
    26   12   17 ar
    27   12   13 ar
    28   13   14 ar
    29   13   39 1
    30   14   15 ar
    31   14   25 1
    32   15   16 ar
    33   15   23 1
    34   16   17 ar
    35   16   40 1
    36   17   18 ar
    37   18   19 ar
    38   19   20 ar
    39   19   41 1
    40   20   21 1
    41   21   22 3
    42   23   24 1
    43   24   42 1
    44   24   43 1
    45   24   44 1
    46   25   26 1
    47   26   45 1
    48   26   46 1
    49   26   47 1
@<TRIPOS>MOLECULE
ZINC03815314
   30    32     0     0     0
SMALL
USER_CHARGES

@<TRIPOS>ATOM
      1 C1         -8.3867    5.9371    0.4616 C.ar      1 <0>        -0.0804
      2 C2         -8.4617    7.1330   -0.2290 C.ar      1 <0>        -0.1087
      3 C3         -7.3324    7.6624   -0.8258 C.ar      1 <0>        -0.0679
      4 C4         -6.1243    6.9977   -0.7334 C.ar      1 <0>        -0.1141
      5 C5         -6.0458    5.7961   -0.0398 C.ar      1 <0>         0.1452
      6 C6         -7.1838    5.2650    0.5537 C.ar      1 <0>        -0.1052
      7 N1         -4.8254    5.1203    0.0554 N.pl3     1 <0>        -0.6057
      8 C7         -4.8062    3.7614    0.2860 C.ar      1 <0>         0.5192
      9 C8         -3.5896    3.0811    0.5246 C.ar      1 <0>        -0.2600
     10 C9         -2.3520    3.7289    0.5406 C.ar      1 <0>         0.2652
     11 C10        -1.2612    1.7310    0.9893 C.ar      1 <0>         0.4435
     12 C11        -2.4379    1.0046    0.9923 C.ar      1 <0>        -0.1895
     13 C12        -3.6403    1.6806    0.7559 C.ar      1 <0>         0.3048
     14 N2         -4.8288    1.0644    0.7387 N.ar      1 <0>        -0.5535
     15 C13        -5.9266    1.7488    0.5111 C.ar      1 <0>         0.4261
     16 N3         -5.9298    3.0533    0.2908 N.ar      1 <0>        -0.5788
     17 N4         -0.0591    1.0756    1.2227 N.pl3     1 <0>        -0.8263
     18 Br1        -4.5800    7.7225   -1.5493 Br        1 <0>        -0.0392
     19 H1         -9.2709    5.5263    0.9262 H         1 <0>         0.1427
     20 H2         -9.4046    7.6545   -0.3026 H         1 <0>         0.1425
     21 H3         -7.3945    8.5962   -1.3649 H         1 <0>         0.1450
     22 H4         -7.1271    4.3291    1.0898 H         1 <0>         0.1624
     23 H5         -3.9923    5.6077   -0.0408 H         1 <0>         0.4231
     24 H6         -2.2976    4.7934    0.3663 H         1 <0>         0.1960
     25 H7         -2.4292   -0.0602    1.1727 H         1 <0>         0.1938
     26 H8         -6.8697    1.2226    0.5037 H         1 <0>         0.2237
     27 H9         -0.0517    0.1193    1.3853 H         1 <0>         0.4394
     28 H10         0.7734    1.5734    1.2191 H         1 <0>         0.4201
     29 N5         -1.1796    3.0858    0.7748 N.ar      1 <0>        -0.5382
     30 H11        -0.2819    3.5840    0.7907 H         1 <0>         0.4748
@<TRIPOS>BOND
     1    1    6 ar
     2    1    2 ar
     3    1   19 1
     4    2    3 ar
     5    2   20 1
     6    3    4 ar
     7    3   21 1
     8    4    5 ar
     9    4   18 1
    10    5    6 ar
    11    5    7 1
    12    6   22 1
    13    7    8 1
    14    7   23 1
    15    8   16 ar
    16    8    9 ar
    17    9   13 ar
    18    9   10 ar
    19   10   24 1
    20   10   29 ar
    21   11   12 ar
    22   11   17 1
    23   11   29 ar
    24   12   13 ar
    25   12   25 1
    26   13   14 ar
    27   14   15 ar
    28   15   16 ar
    29   15   26 1
    30   17   27 1
    31   17   28 1
    32   29   30 1
@<TRIPOS>MOLECULE
ZINC03815315
   48    51     0     0     0
SMALL
USER_CHARGES

@<TRIPOS>ATOM
      1 C1         -4.8073    0.5564   -0.9941 C.3       1 <0>        -0.1058
      2 C2         -3.6403    1.3421   -0.4538 C.ar      1 <0>        -0.0960
      3 C3         -2.3722    0.7952   -0.4720 C.ar      1 <0>        -0.1049
      4 C4         -1.2971    1.5195    0.0255 C.ar      1 <0>         0.1216
      5 C5         -1.4988    2.7911    0.5463 C.ar      1 <0>        -0.0725
      6 C6         -2.7663    3.3386    0.5586 C.ar      1 <0>        -0.1845
      7 C7         -3.8400    2.6143    0.0613 C.ar      1 <0>         0.1155
      8 O1         -5.0890    3.1518    0.0793 O.3       1 <0>        -0.3141
      9 C8         -5.2218    4.4662    0.6241 C.3       1 <0>         0.0263
     10 N1         -0.0111    0.9658    0.0074 N.pl3     1 <0>        -0.6226
     11 C9          1.0883    1.7790   -0.1883 C.ar      1 <0>         0.6094
     12 N2          0.8927    3.0625   -0.4717 N.ar      1 <0>        -0.5687
     13 C10         1.9089    3.8826   -0.6620 C.ar      1 <0>         0.2646
     14 C11         3.2120    3.3699   -0.5707 C.ar      1 <0>        -0.2790
     15 C12         4.3404    4.1976   -0.7699 C.2       1 <0>         0.0316
     16 C13         5.5913    3.6498   -0.6706 C.2       1 <0>        -0.1655
     17 C14         5.7297    2.2251   -0.3615 C.2       1 <0>         0.5570
     18 O2          6.8388    1.7295   -0.2712 O.2       1 <0>        -0.5020
     19 N3          4.6368    1.4600   -0.1760 N.am      1 <0>        -0.5060
     20 C15         3.3794    2.0002   -0.2736 C.ar      1 <0>         0.4674
     21 N4          2.2982    1.2499   -0.0919 N.ar      1 <0>        -0.5975
     22 C16         4.7923    0.0365    0.1336 C.3       1 <0>         0.0701
     23 C17         6.7939    4.4908   -0.8744 C.ar      1 <0>        -0.0097
     24 C18         7.3464    4.6263   -2.1486 C.ar      1 <0>        -0.0065
     25 C19         8.4645    5.4160   -2.3327 C.ar      1 <0>        -0.1065
     26 C20         9.0427    6.0633   -1.2556 C.ar      1 <0>        -0.0876
     27 C21         8.5033    5.9286    0.0110 C.ar      1 <0>        -0.1065
     28 C22         7.3824    5.1461    0.2079 C.ar      1 <0>        -0.0065
     29 Cl1         6.7073    4.9779    1.7984 Cl        1 <0>        -0.0504
     30 Cl2         6.6265    3.8089   -3.5004 Cl        1 <0>        -0.0502
     31 H1         -5.2489   -0.0358   -0.1926 H         1 <0>         0.0700
     32 H2         -5.5542    1.2430   -1.3925 H         1 <0>         0.0724
     33 H3         -4.4627   -0.1063   -1.7880 H         1 <0>         0.0656
     34 H4         -2.2169   -0.1955   -0.8728 H         1 <0>         0.1327
     35 H5         -0.6638    3.3531    0.9379 H         1 <0>         0.1368
     36 H6         -2.9227    4.3290    0.9598 H         1 <0>         0.1324
     37 H7         -4.8886    4.4647    1.6619 H         1 <0>         0.0555
     38 H8         -4.6119    5.1617    0.0476 H         1 <0>         0.0561
     39 H9         -6.2662    4.7746    0.5782 H         1 <0>         0.1005
     40 H10         0.1075    0.0107    0.1282 H         1 <0>         0.4260
     41 H11         1.7411    4.9253   -0.8879 H         1 <0>         0.1873
     42 H12         4.2176    5.2464   -0.9967 H         1 <0>         0.1500
     43 H13         4.8142   -0.5366   -0.7933 H         1 <0>         0.0744
     44 H14         5.7240   -0.1173    0.6779 H         1 <0>         0.0920
     45 H15         3.9543   -0.2957    0.7464 H         1 <0>         0.0951
     46 H16         8.8905    5.5253   -3.3191 H         1 <0>         0.1437
     47 H17         9.9194    6.6763   -1.4042 H         1 <0>         0.1453
     48 H18         8.9600    6.4361    0.8479 H         1 <0>         0.1437
@<TRIPOS>BOND
     1    1    2 1
     2    1   31 1
     3    1   32 1
     4    1   33 1
     5    2    7 ar
     6    2    3 ar
     7    3    4 ar
     8    3   34 1
     9    4    5 ar
    10    4   10 1
    11    5    6 ar
    12    5   35 1
    13    6    7 ar
    14    6   36 1
    15    7    8 1
    16    8    9 1
    17    9   37 1
    18    9   38 1
    19    9   39 1
    20   10   11 1
    21   10   40 1
    22   11   21 ar
    23   11   12 ar
    24   12   13 ar
    25   13   14 ar
    26   13   41 1
    27   14   20 ar
    28   14   15 1
    29   15   16 2
    30   15   42 1
    31   16   17 1
    32   16   23 1
    33   17   18 2
    34   17   19 am
    35   19   20 1
    36   19   22 1
    37   20   21 ar
    38   22   43 1
    39   22   44 1
    40   22   45 1
    41   23   28 ar
    42   23   24 ar
    43   24   25 ar
    44   24   30 1
    45   25   26 ar
    46   25   46 1
    47   26   27 ar
    48   26   47 1
    49   27   28 ar
    50   27   48 1
    51   28   29 1
@<TRIPOS>MOLECULE
ZINC03815316
   40    42     0     0     0
SMALL
USER_CHARGES

@<TRIPOS>ATOM
      1 C1          2.0685   -6.9288    0.9970 C.3       1 <0>         0.0265
      2 O1          3.2184   -6.3761    0.3533 O.3       1 <0>        -0.3179
      3 C2          3.2806   -5.0211    0.2574 C.ar      1 <0>         0.1147
      4 C3          4.3694   -4.4188   -0.3559 C.ar      1 <0>        -0.1320
      5 C4          4.4335   -3.0429   -0.4537 C.ar      1 <0>        -0.1057
      6 C5          3.4074   -2.2620    0.0621 C.ar      1 <0>         0.1121
      7 C6          2.3202   -2.8655    0.6806 C.ar      1 <0>        -0.0679
      8 C7          2.2551   -4.2419    0.7724 C.ar      1 <0>        -0.1877
      9 N1          3.4717   -0.8670   -0.0362 N.pl3     1 <0>        -0.6369
     10 C8          2.3130   -0.1313   -0.1813 C.ar      1 <0>         0.4661
     11 C9          2.3441    1.2835   -0.1654 C.ar      1 <0>        -0.1849
     12 C10         3.5383    1.9963   -0.0027 C.ar      1 <0>        -0.1468
     13 C11         3.5150    3.3618    0.0060 C.ar      1 <0>         0.1087
     14 C12         2.3079    4.0588   -0.1464 C.ar      1 <0>         0.1633
     15 C13         1.1200    3.3812   -0.3075 C.ar      1 <0>        -0.1846
     16 C14         1.1206    1.9808   -0.3198 C.ar      1 <0>         0.2018
     17 N2         -0.0098    1.2733   -0.4736 N.ar      1 <0>        -0.5455
     18 C15         0.0221   -0.0380   -0.4803 C.ar      1 <0>         0.3427
     19 N3          1.1405   -0.7316   -0.3397 N.ar      1 <0>        -0.5831
     20 O2          2.3103    5.4173   -0.1344 O.3       1 <0>        -0.2975
     21 C16         1.0490    6.0696   -0.2942 C.3       1 <0>         0.0203
     22 O3          4.6754    4.0532    0.1636 O.3       1 <0>        -0.3007
     23 C17         5.8720    3.2866    0.3135 C.3       1 <0>         0.0217
     24 H1          1.1708   -6.6320    0.4548 H         1 <0>         0.0566
     25 H2          2.1447   -8.0161    1.0062 H         1 <0>         0.1007
     26 H3          2.0130   -6.5598    2.0212 H         1 <0>         0.0557
     27 H4          5.1675   -5.0262   -0.7566 H         1 <0>         0.1354
     28 H5          5.2811   -2.5742   -0.9314 H         1 <0>         0.1313
     29 H6          1.5238   -2.2588    1.0855 H         1 <0>         0.1403
     30 H7          1.4074   -4.7116    1.2491 H         1 <0>         0.1319
     31 H8          4.3306   -0.4175   -0.0023 H         1 <0>         0.4180
     32 H9          4.4732    1.4688    0.1157 H         1 <0>         0.1390
     33 H10         0.1946    3.9258   -0.4238 H         1 <0>         0.1556
     34 H11        -0.9059   -0.5759   -0.6066 H         1 <0>         0.1966
     35 H12         1.1925    7.1498   -0.2662 H         1 <0>         0.1071
     36 H13         0.6119    5.7859   -1.2516 H         1 <0>         0.0620
     37 H14         0.3805    5.7708    0.5132 H         1 <0>         0.0620
     38 H15         6.7219    3.9589    0.4304 H         1 <0>         0.1067
     39 H16         5.7880    2.6505    1.1947 H         1 <0>         0.0573
     40 H17         6.0188    2.6656   -0.5702 H         1 <0>         0.0571
@<TRIPOS>BOND
     1    1    2 1
     2    1   24 1
     3    1   25 1
     4    1   26 1
     5    2    3 1
     6    3    8 ar
     7    3    4 ar
     8    4    5 ar
     9    4   27 1
    10    5    6 ar
    11    5   28 1
    12    6    7 ar
    13    6    9 1
    14    7    8 ar
    15    7   29 1
    16    8   30 1
    17    9   10 1
    18    9   31 1
    19   10   19 ar
    20   10   11 ar
    21   11   16 ar
    22   11   12 ar
    23   12   13 ar
    24   12   32 1
    25   13   14 ar
    26   13   22 1
    27   14   15 ar
    28   14   20 1
    29   15   16 ar
    30   15   33 1
    31   16   17 ar
    32   17   18 ar
    33   18   19 ar
    34   18   34 1
    35   20   21 1
    36   21   35 1
    37   21   36 1
    38   21   37 1
    39   22   23 1
    40   23   38 1
    41   23   39 1
    42   23   40 1
@<TRIPOS>MOLECULE
ZINC03815317
   30    32     0     0     0
SMALL
USER_CHARGES

@<TRIPOS>ATOM
      1 C1         -5.9938    1.3926   -0.2463 C.ar      1 <0>        -0.1095
      2 C2         -4.9017    0.8867    0.4346 C.ar      1 <0>        -0.1002
      3 C3         -3.7421    1.6302    0.5329 C.ar      1 <0>        -0.0962
      4 C4         -3.6735    2.8877   -0.0533 C.ar      1 <0>         0.1095
      5 C5         -4.7741    3.3952   -0.7320 C.ar      1 <0>        -0.1276
      6 C6         -5.9290    2.6443   -0.8306 C.ar      1 <0>        -0.0996
      7 N1         -2.5014    3.6432    0.0446 N.pl3     1 <0>        -0.6056
      8 C7         -1.2741    3.0157    0.0346 C.ar      1 <0>         0.5179
      9 C8         -0.0824    3.7449    0.2537 C.ar      1 <0>        -0.2616
     10 C9         -0.0716    5.1218    0.4896 C.ar      1 <0>         0.2647
     11 C10         2.2413    5.1180    0.6724 C.ar      1 <0>         0.4422
     12 C11         2.3300    3.7565    0.4465 C.ar      1 <0>        -0.1914
     13 C12         1.1490    3.0374    0.2301 C.ar      1 <0>         0.3041
     14 N2          1.1331    1.7181    0.0028 N.ar      1 <0>        -0.5576
     15 C13        -0.0055    1.0937   -0.1945 C.ar      1 <0>         0.4277
     16 N3         -1.1761    1.7100   -0.1870 N.ar      1 <0>        -0.5795
     17 N4          3.4037    5.8466    0.8889 N.pl3     1 <0>        -0.8279
     18 H1         -6.8994    0.8091   -0.3217 H         1 <0>         0.1325
     19 H2         -4.9556   -0.0912    0.8898 H         1 <0>         0.1342
     20 H3         -2.8897    1.2346    1.0651 H         1 <0>         0.1351
     21 H4         -4.7254    4.3742   -1.1854 H         1 <0>         0.1286
     22 H5         -6.7838    3.0367   -1.3614 H         1 <0>         0.1348
     23 H6         -2.5518    4.6090    0.1197 H         1 <0>         0.4228
     24 H7         -1.0000    5.6733    0.5101 H         1 <0>         0.1970
     25 H8          3.2887    3.2595    0.4377 H         1 <0>         0.1923
     26 H9          0.0153    0.0292   -0.3757 H         1 <0>         0.2214
     27 H10         4.2647    5.3999    0.8807 H         1 <0>         0.4389
     28 H11         3.3545    6.8021    1.0485 H         1 <0>         0.4195
     29 N5          1.0668    5.8307    0.7010 N.ar      1 <0>        -0.5405
     30 H12         1.0510    6.8429    0.8726 H         1 <0>         0.4738
@<TRIPOS>BOND
     1    1    6 ar
     2    1    2 ar
     3    1   18 1
     4    2    3 ar
     5    2   19 1
     6    3    4 ar
     7    3   20 1
     8    4    5 ar
     9    4    7 1
    10    5    6 ar
    11    5   21 1
    12    6   22 1
    13    7    8 1
    14    7   23 1
    15    8   16 ar
    16    8    9 ar
    17    9   13 ar
    18    9   10 ar
    19   10   24 1
    20   10   29 ar
    21   11   12 ar
    22   11   17 1
    23   11   29 ar
    24   12   13 ar
    25   12   25 1
    26   13   14 ar
    27   14   15 ar
    28   15   16 ar
    29   15   26 1
    30   17   27 1
    31   17   28 1
    32   29   30 1
@<TRIPOS>MOLECULE
ZINC03815319
   30    32     0     0     0
SMALL
USER_CHARGES

@<TRIPOS>ATOM
      1 C1          2.1574    5.6966    0.3936 C.ar      1 <0>        -0.0930
      2 C2          2.2600    4.3225    0.4908 C.ar      1 <0>        -0.0792
      3 C3          3.3216    3.6622   -0.1143 C.ar      1 <0>         0.1186
      4 C4          4.2802    4.3870   -0.8109 C.ar      1 <0>        -0.0956
      5 C5          4.1692    5.7605   -0.9086 C.ar      1 <0>        -0.0862
      6 C6          3.1101    6.4149   -0.3048 C.ar      1 <0>        -0.0772
      7 I1          5.6102    6.8545   -1.9649 I         1 <0>        -0.0172
      8 N1          3.4281    2.2717   -0.0177 N.pl3     1 <0>        -0.6078
      9 C7          2.2914    1.4919   -0.0147 C.ar      1 <0>         0.5199
     10 C8          2.3670    0.0967    0.2031 C.ar      1 <0>        -0.2613
     11 C9          3.5749   -0.5692    0.4248 C.ar      1 <0>         0.2656
     12 C10         2.4712   -2.6006    0.6199 C.ar      1 <0>         0.4427
     13 C11         1.2295   -2.0295    0.4091 C.ar      1 <0>        -0.1903
     14 C12         1.1577   -0.6485    0.1939 C.ar      1 <0>         0.3040
     15 N2          0.0030   -0.0055   -0.0193 N.ar      1 <0>        -0.5555
     16 C13        -0.0056    1.2931   -0.2163 C.ar      1 <0>         0.4284
     17 N3          1.0938    2.0291   -0.2168 N.ar      1 <0>        -0.5802
     18 N4          2.5601   -3.9700    0.8345 N.pl3     1 <0>        -0.8271
     19 H1          1.3321    6.2104    0.8640 H         1 <0>         0.1440
     20 H2          1.5154    3.7622    1.0366 H         1 <0>         0.1418
     21 H3          5.1093    3.8770   -1.2789 H         1 <0>         0.1354
     22 H4          3.0276    7.4892   -0.3790 H         1 <0>         0.1392
     23 H5          4.3019    1.8556    0.0473 H         1 <0>         0.4244
     24 H6          4.5024   -0.0161    0.4343 H         1 <0>         0.1975
     25 H7          0.3354   -2.6354    0.4109 H         1 <0>         0.1929
     26 H8         -0.9529    1.7817   -0.3901 H         1 <0>         0.2222
     27 H9          1.7570   -4.5139    0.8355 H         1 <0>         0.4392
     28 H10         3.4254   -4.3823    0.9836 H         1 <0>         0.4198
     29 N5          3.6578   -1.9079    0.6348 N.ar      1 <0>        -0.5394
     30 H11         4.5570   -2.3766    0.7957 H         1 <0>         0.4744
@<TRIPOS>BOND
     1    1    6 ar
     2    1    2 ar
     3    1   19 1
     4    2    3 ar
     5    2   20 1
     6    3    4 ar
     7    3    8 1
     8    4    5 ar
     9    4   21 1
    10    5    6 ar
    11    5    7 1
    12    6   22 1
    13    8    9 1
    14    8   23 1
    15    9   17 ar
    16    9   10 ar
    17   10   14 ar
    18   10   11 ar
    19   11   24 1
    20   11   29 ar
    21   12   13 ar
    22   12   18 1
    23   12   29 ar
    24   13   14 ar
    25   13   25 1
    26   14   15 ar
    27   15   16 ar
    28   16   17 ar
    29   16   26 1
    30   18   27 1
    31   18   28 1
    32   29   30 1
@<TRIPOS>MOLECULE
ZINC03815320
   31    33     0     0     0
SMALL
USER_CHARGES

@<TRIPOS>ATOM
      1 C1          1.5291    6.0422    0.3616 C.3       1 <0>         0.0351
      2 O1          0.2321    5.4668    0.1919 O.3       1 <0>        -0.2987
      3 C2          0.1558    4.1140    0.1824 C.ar      1 <0>         0.3960
      4 C3         -1.0913    3.5026    0.0188 C.ar      1 <0>        -0.1927
      5 C4         -1.1827    2.1396    0.0024 C.ar      1 <0>         0.0076
      6 C5         -0.0034    1.3961    0.1623 C.ar      1 <0>        -0.2769
      7 C6          1.2299    2.0737    0.3236 C.ar      1 <0>         0.4157
      8 N1          1.2591    3.4068    0.3270 N.ar      1 <0>        -0.5364
      9 N2          2.3452    1.3437    0.4699 N.ar      1 <0>        -0.5428
     10 C7          2.2906    0.0321    0.4622 C.ar      1 <0>         0.3785
     11 N3          1.1626   -0.6413    0.3146 N.ar      1 <0>        -0.5889
     12 C8          0.0001   -0.0172    0.1626 C.ar      1 <0>         0.4860
     13 N4         -1.1714   -0.7287    0.0088 N.pl3     1 <0>        -0.6354
     14 C9         -1.1335   -2.1214   -0.1045 C.ar      1 <0>         0.1537
     15 C10        -2.1744   -2.8896    0.4020 C.ar      1 <0>        -0.1303
     16 C11        -2.1344   -4.2652    0.2887 C.ar      1 <0>        -0.0922
     17 C12        -1.0596   -4.8790   -0.3282 C.ar      1 <0>        -0.1041
     18 C13        -0.0213   -4.1173   -0.8343 C.ar      1 <0>        -0.0714
     19 C14        -0.0580   -2.7397   -0.7287 C.ar      1 <0>        -0.0826
     20 Br1         1.4458   -4.9613   -1.6776 Br        1 <0>        -0.0419
     21 H1          1.9485    5.7184    1.3141 H         1 <0>         0.0659
     22 H2          2.1795    5.7179   -0.4508 H         1 <0>         0.0659
     23 H3          1.4486    7.1291    0.3507 H         1 <0>         0.1028
     24 H4         -1.9792    4.1063   -0.0983 H         1 <0>         0.1559
     25 H5         -2.1358    1.6484   -0.1269 H         1 <0>         0.1471
     26 H6          3.2096   -0.5224    0.5824 H         1 <0>         0.2062
     27 H7         -2.0216   -0.2626   -0.0207 H         1 <0>         0.4231
     28 H8         -3.0141   -2.4113    0.8843 H         1 <0>         0.1324
     29 H9         -2.9436   -4.8626    0.6821 H         1 <0>         0.1380
     30 H10        -1.0308   -5.9551   -0.4155 H         1 <0>         0.1355
     31 H11         0.7505   -2.1450   -1.1275 H         1 <0>         0.1488
@<TRIPOS>BOND
     1    1    2 1
     2    1   21 1
     3    1   22 1
     4    1   23 1
     5    2    3 1
     6    3    8 ar
     7    3    4 ar
     8    4    5 ar
     9    4   24 1
    10    5    6 ar
    11    5   25 1
    12    6   12 ar
    13    6    7 ar
    14    7    8 ar
    15    7    9 ar
    16    9   10 ar
    17   10   11 ar
    18   10   26 1
    19   11   12 ar
    20   12   13 1
    21   13   14 1
    22   13   27 1
    23   14   19 ar
    24   14   15 ar
    25   15   16 ar
    26   15   28 1
    27   16   17 ar
    28   16   29 1
    29   17   18 ar
    30   17   30 1
    31   18   19 ar
    32   18   20 1
    33   19   31 1
@<TRIPOS>MOLECULE
ZINC03815321
   34    37     0     0     0
SMALL
USER_CHARGES

@<TRIPOS>ATOM
      1 C1          3.6567    7.7573   -0.3047 C.ar      1 <0>        -0.1408
      2 C2          4.1861    7.0304    0.7460 C.ar      1 <0>        -0.0937
      3 C3          3.9323    5.6769    0.8484 C.ar      1 <0>        -0.1513
      4 C4          3.1446    5.0453   -0.1060 C.ar      1 <0>         0.1632
      5 C5          2.6191    5.7775   -1.1634 C.ar      1 <0>        -0.1490
      6 C6          2.8722    7.1319   -1.2564 C.ar      1 <0>        -0.0952
      7 N1          2.8862    3.6761   -0.0058 N.pl3     1 <0>        -0.6804
      8 C7          1.6057    3.1869   -0.2660 C.ar      1 <0>         0.2583
      9 C8          0.5523    4.0648   -0.4691 C.ar      1 <0>        -0.2262
     10 C9         -0.7180    3.5789   -0.7281 C.ar      1 <0>        -0.0363
     11 C10        -0.9538    2.2212   -0.7821 C.ar      1 <0>        -0.1928
     12 C11         0.0899    1.3210   -0.5861 C.ar      1 <0>         0.1836
     13 C12         1.3780    1.8079   -0.3239 C.ar      1 <0>        -0.1659
     14 C13         2.2466    0.6288   -0.1601 C.ar      1 <0>        -0.0885
     15 C14         3.6038    0.4673    0.1103 C.ar      1 <0>        -0.0756
     16 C15         4.1368   -0.8000    0.2066 C.ar      1 <0>        -0.1429
     17 C16         3.3278   -1.9129    0.0354 C.ar      1 <0>        -0.0898
     18 C17         1.9837   -1.7676   -0.2330 C.ar      1 <0>        -0.1370
     19 C18         1.4270   -0.4964   -0.3339 C.ar      1 <0>         0.1339
     20 N2          0.1381   -0.0616   -0.5883 N.pl3     1 <0>        -0.6158
     21 H1         -0.6223   -0.6429   -0.7457 H         1 <0>         0.4185
     22 H2          3.8568    8.8158   -0.3823 H         1 <0>         0.1236
     23 H3          4.7983    7.5220    1.4876 H         1 <0>         0.1258
     24 H4          4.3460    5.1098    1.6692 H         1 <0>         0.1238
     25 H5          2.0101    5.2888   -1.9095 H         1 <0>         0.1303
     26 H6          2.4607    7.7024   -2.0759 H         1 <0>         0.1262
     27 H7          3.5970    3.0654    0.2446 H         1 <0>         0.4081
     28 H8          0.7229    5.1304   -0.4254 H         1 <0>         0.1356
     29 H9         -1.5331    4.2699   -0.8855 H         1 <0>         0.1310
     30 H10        -1.9503    1.8552   -0.9807 H         1 <0>         0.1231
     31 H11         4.2362    1.3326    0.2437 H         1 <0>         0.1157
     32 H12         5.1888   -0.9267    0.4158 H         1 <0>         0.1270
     33 H13         3.7545   -2.9020    0.1127 H         1 <0>         0.1295
     34 H14         1.3623   -2.6410   -0.3653 H         1 <0>         0.1243
@<TRIPOS>BOND
     1    1    6 ar
     2    1    2 ar
     3    1   22 1
     4    2    3 ar
     5    2   23 1
     6    3    4 ar
     7    3   24 1
     8    4    5 ar
     9    4    7 1
    10    5    6 ar
    11    5   25 1
    12    6   26 1
    13    7    8 1
    14    7   27 1
    15    8   13 ar
    16    8    9 ar
    17    9   10 ar
    18    9   28 1
    19   10   11 ar
    20   10   29 1
    21   11   12 ar
    22   11   30 1
    23   12   20 1
    24   12   13 ar
    25   13   14 1
    26   14   19 ar
    27   14   15 ar
    28   15   16 ar
    29   15   31 1
    30   16   17 ar
    31   16   32 1
    32   17   18 ar
    33   17   33 1
    34   18   19 ar
    35   18   34 1
    36   19   20 1
    37   20   21 1
@<TRIPOS>MOLECULE
ZINC03815322
   31    34     0     0     0
SMALL
USER_CHARGES

@<TRIPOS>ATOM
      1 C1          5.9477    2.8130   -0.3308 C.ar      1 <0>        -0.0916
      2 C2          4.7694    3.5281   -0.4213 C.ar      1 <0>        -0.1325
      3 C3          3.5931    2.9936    0.0885 C.ar      1 <0>         0.1589
      4 C4          3.6067    1.7431    0.6933 C.ar      1 <0>        -0.0854
      5 C5          4.7876    1.0305    0.7761 C.ar      1 <0>        -0.0709
      6 C6          5.9577    1.5665    0.2669 C.ar      1 <0>        -0.1070
      7 Br1         4.8068   -0.6747    1.5932 Br        1 <0>        -0.0443
      8 N1          2.3992    3.7150   -0.0018 N.pl3     1 <0>        -0.6379
      9 C7          1.1995    3.0482   -0.1541 C.ar      1 <0>         0.4630
     10 C8         -0.0279    3.7498   -0.1305 C.ar      1 <0>        -0.1764
     11 C9         -0.0822    5.1423    0.0471 C.ar      1 <0>        -0.0937
     12 C10        -1.2773    5.7839    0.0644 C.ar      1 <0>        -0.0603
     13 C11        -2.4809    5.0698   -0.0949 C.ar      1 <0>         0.0802
     14 C12        -2.4554    3.6835   -0.2733 C.ar      1 <0>         0.0384
     15 C13        -1.2224    3.0088   -0.2927 C.ar      1 <0>         0.2275
     16 N2         -1.1403    1.6827   -0.4657 N.ar      1 <0>        -0.5517
     17 C14         0.0268    1.0824   -0.4744 C.ar      1 <0>         0.3458
     18 N3          1.1692    1.7330   -0.3269 N.ar      1 <0>        -0.5759
     19 N4         -3.7687    3.2866   -0.3970 N.pl3     1 <0>        -0.5678
     20 H1         -4.0946    2.3515   -0.5363 H         1 <0>         0.4386
     21 C15        -4.5386    4.4003   -0.2948 C.2       1 <0>         0.2594
     22 N5         -3.7839    5.4464   -0.1176 N.2       1 <0>        -0.4896
     23 H2          6.8625    3.2284   -0.7271 H         1 <0>         0.1374
     24 H3          4.7627    4.5018   -0.8884 H         1 <0>         0.1325
     25 H4          2.6946    1.3267    1.0946 H         1 <0>         0.1475
     26 H5          6.8806    1.0098    0.3370 H         1 <0>         0.1346
     27 H6          2.4134    4.6838    0.0426 H         1 <0>         0.4243
     28 H7          0.8317    5.7045    0.1706 H         1 <0>         0.1337
     29 H8         -1.3062    6.8547    0.2017 H         1 <0>         0.1402
     30 H9          0.0561    0.0117   -0.6125 H         1 <0>         0.1994
     31 H10        -5.6170    4.4161   -0.3520 H         1 <0>         0.2236
@<TRIPOS>BOND
     1    1    6 ar
     2    1    2 ar
     3    1   23 1
     4    2    3 ar
     5    2   24 1
     6    3    4 ar
     7    3    8 1
     8    4    5 ar
     9    4   25 1
    10    5    6 ar
    11    5    7 1
    12    6   26 1
    13    8    9 1
    14    8   27 1
    15    9   18 ar
    16    9   10 ar
    17   10   15 ar
    18   10   11 ar
    19   11   12 ar
    20   11   28 1
    21   12   13 ar
    22   12   29 1
    23   13   22 1
    24   13   14 ar
    25   14   15 ar
    26   14   19 1
    27   15   16 ar
    28   16   17 ar
    29   17   18 ar
    30   17   30 1
    31   19   20 1
    32   19   21 1
    33   21   22 2
    34   21   31 1
@<TRIPOS>MOLECULE
ZINC03815322
   31    34     0     0     0
SMALL
USER_CHARGES

@<TRIPOS>ATOM
      1 C1          5.9477    2.8130   -0.3308 C.ar      1 <0>        -0.0916
      2 C2          4.7694    3.5281   -0.4213 C.ar      1 <0>        -0.1325
      3 C3          3.5931    2.9936    0.0885 C.ar      1 <0>         0.1589
      4 C4          3.6067    1.7431    0.6933 C.ar      1 <0>        -0.0854
      5 C5          4.7876    1.0305    0.7761 C.ar      1 <0>        -0.0709
      6 C6          5.9577    1.5665    0.2669 C.ar      1 <0>        -0.1070
      7 Br1         4.8068   -0.6747    1.5932 Br        1 <0>        -0.0443
      8 N1          2.3992    3.7150   -0.0018 N.pl3     1 <0>        -0.6379
      9 C7          1.1995    3.0482   -0.1541 C.ar      1 <0>         0.4630
     10 C8         -0.0279    3.7498   -0.1305 C.ar      1 <0>        -0.1764
     11 C9         -0.0822    5.1423    0.0471 C.ar      1 <0>        -0.0937
     12 C10        -1.2773    5.7839    0.0644 C.ar      1 <0>        -0.0603
     13 C11        -2.4809    5.0698   -0.0949 C.ar      1 <0>         0.0802
     14 C12        -2.4554    3.6835   -0.2733 C.ar      1 <0>         0.0384
     15 C13        -1.2224    3.0088   -0.2927 C.ar      1 <0>         0.2275
     16 N2         -1.1403    1.6827   -0.4657 N.ar      1 <0>        -0.5517
     17 C14         0.0268    1.0824   -0.4744 C.ar      1 <0>         0.3458
     18 N3          1.1692    1.7330   -0.3269 N.ar      1 <0>        -0.5759
     19 N4         -3.7687    3.2866   -0.3970 N.pl3     1 <0>        -0.5678
     20 H1         -4.0946    2.3515   -0.5363 H         1 <0>         0.4386
     21 C15        -4.5386    4.4003   -0.2948 C.2       1 <0>         0.2594
     22 N5         -3.7839    5.4464   -0.1176 N.2       1 <0>        -0.4896
     23 H2          6.8625    3.2284   -0.7271 H         1 <0>         0.1374
     24 H3          4.7627    4.5018   -0.8884 H         1 <0>         0.1325
     25 H4          2.6946    1.3267    1.0946 H         1 <0>         0.1475
     26 H5          6.8806    1.0098    0.3370 H         1 <0>         0.1346
     27 H6          2.4134    4.6838    0.0426 H         1 <0>         0.4243
     28 H7          0.8317    5.7045    0.1706 H         1 <0>         0.1337
     29 H8         -1.3062    6.8547    0.2017 H         1 <0>         0.1402
     30 H9          0.0561    0.0117   -0.6125 H         1 <0>         0.1994
     31 H10        -5.6170    4.4161   -0.3520 H         1 <0>         0.2236
@<TRIPOS>BOND
     1    1    6 ar
     2    1    2 ar
     3    1   23 1
     4    2    3 ar
     5    2   24 1
     6    3    4 ar
     7    3    8 1
     8    4    5 ar
     9    4   25 1
    10    5    6 ar
    11    5    7 1
    12    6   26 1
    13    8    9 1
    14    8   27 1
    15    9   18 ar
    16    9   10 ar
    17   10   15 ar
    18   10   11 ar
    19   11   12 ar
    20   11   28 1
    21   12   13 ar
    22   12   29 1
    23   13   22 1
    24   13   14 ar
    25   14   15 ar
    26   14   19 1
    27   15   16 ar
    28   16   17 ar
    29   17   18 ar
    30   17   30 1
    31   19   20 1
    32   19   21 1
    33   21   22 2
    34   21   31 1
@<TRIPOS>MOLECULE
ZINC03815322
   32    35     0     0     0
SMALL
USER_CHARGES

@<TRIPOS>ATOM
      1 C1          5.9477    2.8130   -0.3308 C.ar      1 <0>        -0.0899
      2 C2          4.7694    3.5281   -0.4213 C.ar      1 <0>        -0.1219
      3 C3          3.5931    2.9936    0.0885 C.ar      1 <0>         0.1360
      4 C4          3.6067    1.7431    0.6933 C.ar      1 <0>        -0.0809
      5 C5          4.7876    1.0305    0.7761 C.ar      1 <0>        -0.0736
      6 C6          5.9577    1.5665    0.2669 C.ar      1 <0>        -0.0934
      7 Br1         4.8068   -0.6747    1.5932 Br        1 <0>        -0.0334
      8 N1          2.3992    3.7150   -0.0018 N.pl3     1 <0>        -0.6224
      9 C7          1.1995    3.0482   -0.1541 C.ar      1 <0>         0.4809
     10 C8         -0.0279    3.7498   -0.1305 C.ar      1 <0>        -0.1838
     11 C9         -0.0822    5.1423    0.0471 C.ar      1 <0>        -0.0172
     12 C10        -1.2773    5.7839    0.0644 C.ar      1 <0>        -0.1158
     13 C11        -2.4809    5.0698   -0.0949 C.ar      1 <0>         0.1047
     14 C12        -2.4554    3.6835   -0.2733 C.ar      1 <0>         0.0805
     15 C13        -1.2224    3.0088   -0.2927 C.ar      1 <0>         0.2368
     16 N2         -1.1403    1.6827   -0.4657 N.ar      1 <0>        -0.5560
     17 C14         0.0268    1.0824   -0.4744 C.ar      1 <0>         0.3834
     18 N3          1.1692    1.7330   -0.3269 N.ar      1 <0>        -0.5624
     19 N4         -3.7687    3.2866   -0.3970 N.pl3     1 <0>        -0.5055
     20 H1         -4.0946    2.3515   -0.5363 H         1 <0>         0.4795
     21 C15        -4.5386    4.4003   -0.2948 C.cat     1 <0>         0.3686
     22 H2          6.8625    3.2284   -0.7271 H         1 <0>         0.1428
     23 H3          4.7627    4.5018   -0.8884 H         1 <0>         0.1352
     24 H4          2.6946    1.3267    1.0946 H         1 <0>         0.1460
     25 H5          6.8806    1.0098    0.3370 H         1 <0>         0.1402
     26 H6          2.4134    4.6838    0.0426 H         1 <0>         0.4267
     27 H7          0.8317    5.7045    0.1706 H         1 <0>         0.1548
     28 H8         -1.3062    6.8547    0.2017 H         1 <0>         0.1609
     29 H9          0.0561    0.0117   -0.6125 H         1 <0>         0.2142
     30 H10        -5.6170    4.4161   -0.3520 H         1 <0>         0.2747
     31 N5         -3.7842    5.4474   -0.1175 N.pl3     1 <0>        -0.4947
     32 H11        -4.1236    6.4105   -0.0112 H         1 <0>         0.4852
@<TRIPOS>BOND
     1    1    6 ar
     2    1    2 ar
     3    1   22 1
     4    2    3 ar
     5    2   23 1
     6    3    4 ar
     7    3    8 1
     8    4    5 ar
     9    4   24 1
    10    5    6 ar
    11    5    7 1
    12    6   25 1
    13    8    9 1
    14    8   26 1
    15    9   18 ar
    16    9   10 ar
    17   10   15 ar
    18   10   11 ar
    19   11   12 ar
    20   11   27 1
    21   12   13 ar
    22   12   28 1
    23   13   14 ar
    24   13   31 1
    25   14   15 ar
    26   14   19 1
    27   15   16 ar
    28   16   17 ar
    29   17   18 ar
    30   17   29 1
    31   19   20 1
    32   19   21 1
    33   21   30 1
    34   21   31 2
    35   31   32 1
@<TRIPOS>MOLECULE
ZINC03815323
   53    56     0     0     0
SMALL
USER_CHARGES

@<TRIPOS>ATOM
      1 C1          5.5524    4.9236   -1.7521 C.3       1 <0>         0.0247
      2 O1          4.1411    5.1416   -1.8066 O.3       1 <0>        -0.3160
      3 C2          3.3775    4.4674   -0.9071 C.ar      1 <0>         0.1381
      4 C3          3.9760    3.6131    0.0094 C.ar      1 <0>        -0.2044
      5 C4          3.2035    2.9245    0.9257 C.ar      1 <0>        -0.0685
      6 C5          1.8321    3.0823    0.9352 C.ar      1 <0>        -0.1632
      7 C6          1.2230    3.9385    0.0187 C.ar      1 <0>         0.0178
      8 C7          2.0021    4.6284   -0.9082 C.ar      1 <0>        -0.1408
      9 C8         -0.2494    4.1097    0.0263 C.2       1 <0>        -0.0723
     10 C9         -0.9291    5.2829    0.0364 C.2       1 <0>         0.0485
     11 N1         -2.2759    5.0342    0.0416 N.pl3     1 <0>        -0.4224
     12 C10        -2.5086    3.6829    0.0349 C.ar      1 <0>         0.3538
     13 C11        -1.2577    3.0416    0.0304 C.ar      1 <0>        -0.2508
     14 C12        -1.2185    1.6412    0.0167 C.ar      1 <0>         0.4997
     15 N2         -2.3712    0.9770    0.0186 N.ar      1 <0>        -0.5931
     16 C13        -3.5254    1.6185    0.0280 C.ar      1 <0>         0.3727
     17 N3         -3.6085    2.9315    0.0360 N.ar      1 <0>        -0.5718
     18 N4         -0.0111    0.9658    0.0074 N.pl3     1 <0>        -0.8246
     19 C14        -3.2724    6.0187    0.0530 C.ar      1 <0>         0.1741
     20 C15        -4.3122    5.9667   -0.8659 C.ar      1 <0>        -0.1007
     21 C16        -5.2955    6.9365   -0.8493 C.ar      1 <0>        -0.0704
     22 C17        -5.2401    7.9637    0.0748 C.ar      1 <0>        -0.1704
     23 C18        -4.2031    8.0211    0.9877 C.ar      1 <0>        -0.0737
     24 C19        -3.2193    7.0517    0.9794 C.ar      1 <0>        -0.1197
     25 C20        -6.3118    9.0231    0.0866 C.3       1 <0>         0.0510
     26 C21        -6.9422   11.1809   -0.8128 C.3       1 <0>        -0.0010
     27 C22        -6.4985   12.3107   -1.7442 C.3       1 <0>         0.0438
     28 O2         -6.4379   11.8252   -3.0868 O.3       1 <0>        -0.5820
     29 H1          5.9276    5.2165   -0.7715 H         1 <0>         0.0587
     30 H2          5.7637    3.8678   -1.9215 H         1 <0>         0.0590
     31 H3          6.0422    5.5203   -2.5216 H         1 <0>         0.1042
     32 H4          5.0485    3.4861    0.0061 H         1 <0>         0.1334
     33 H5          3.6741    2.2607    1.6359 H         1 <0>         0.1330
     34 H6          1.2313    2.5426    1.6522 H         1 <0>         0.1280
     35 H7          1.5348    5.2894   -1.6232 H         1 <0>         0.1328
     36 H8         -0.4774    6.2639    0.0402 H         1 <0>         0.1849
     37 H9         -4.4385    1.0417    0.0288 H         1 <0>         0.2048
     38 H10         0.0021   -0.0041    0.0020 H         1 <0>         0.4115
     39 H11         0.8223    1.4622    0.0021 H         1 <0>         0.4147
     40 H12        -4.3538    5.1670   -1.5905 H         1 <0>         0.1426
     41 H13        -6.1067    6.8944   -1.5611 H         1 <0>         0.1411
     42 H14        -4.1621    8.8250    1.7078 H         1 <0>         0.1406
     43 H15        -2.4095    7.0972    1.6924 H         1 <0>         0.1427
     44 H16        -7.2509    8.5938   -0.2625 H         1 <0>         0.1392
     45 H17        -6.4395    9.3994    1.1016 H         1 <0>         0.1388
     46 H18        -7.8857   10.7666   -1.1681 H         1 <0>         0.1385
     47 H19        -7.0742   11.5722    0.1959 H         1 <0>         0.1442
     48 H20        -7.2137   13.1313   -1.6864 H         1 <0>         0.0958
     49 H21        -5.5133   12.6655   -1.4413 H         1 <0>         0.0719
     50 H22        -6.1627   12.4897   -3.7332 H         1 <0>         0.4101
     51 N5         -5.9098   10.1274   -0.8048 N.4       1 <0>        -0.5175
     52 H23        -5.7875    9.7659   -1.7580 H         1 <0>         0.4391
     53 H24        -5.0230   10.5248   -0.4731 H         1 <0>         0.4294
@<TRIPOS>BOND
     1    1    2 1
     2    1   29 1
     3    1   30 1
     4    1   31 1
     5    2    3 1
     6    3    8 ar
     7    3    4 ar
     8    4    5 ar
     9    4   32 1
    10    5    6 ar
    11    5   33 1
    12    6    7 ar
    13    6   34 1
    14    7    8 ar
    15    7    9 1
    16    8   35 1
    17    9   13 1
    18    9   10 2
    19   10   11 1
    20   10   36 1
    21   11   12 1
    22   11   19 1
    23   12   17 ar
    24   12   13 ar
    25   13   14 ar
    26   14   15 ar
    27   14   18 1
    28   15   16 ar
    29   16   17 ar
    30   16   37 1
    31   18   38 1
    32   18   39 1
    33   19   24 ar
    34   19   20 ar
    35   20   21 ar
    36   20   40 1
    37   21   22 ar
    38   21   41 1
    39   22   23 ar
    40   22   25 1
    41   23   24 ar
    42   23   42 1
    43   24   43 1
    44   25   44 1
    45   25   45 1
    46   25   51 1
    47   26   27 1
    48   26   46 1
    49   26   47 1
    50   26   51 1
    51   27   28 1
    52   27   48 1
    53   27   49 1
    54   28   50 1
    55   51   52 1
    56   51   53 1
@<TRIPOS>MOLECULE
ZINC03815324
   59    62     0     0     0
SMALL
USER_CHARGES

@<TRIPOS>ATOM
      1 C1         -7.2112   11.8468    0.5199 C.3       1 <0>        -0.0465
      2 C2         -6.0922   10.1621   -0.8113 C.3       1 <0>        -0.0058
      3 C3         -6.6252    9.0080    0.0400 C.3       1 <0>        -0.1004
      4 C4         -5.6215    7.8839    0.0474 C.ar      1 <0>        -0.1060
      5 C5         -4.6391    7.8425    1.0197 C.ar      1 <0>        -0.0917
      6 C6         -3.7178    6.8136    1.0291 C.ar      1 <0>        -0.1153
      7 C7         -3.7787    5.8201    0.0609 C.ar      1 <0>         0.1477
      8 C8         -4.7631    5.8674   -0.9173 C.ar      1 <0>        -0.0963
      9 C9         -5.6851    6.8958   -0.9179 C.ar      1 <0>        -0.0902
     10 N1         -2.8454    4.7755    0.0674 N.pl3     1 <0>        -0.4174
     11 C10        -1.4880    4.9384    0.1491 C.2       1 <0>         0.0535
     12 C11        -0.8819    3.7256    0.1313 C.2       1 <0>        -0.0801
     13 C12        -1.9521    2.7241    0.0358 C.ar      1 <0>        -0.2508
     14 C13        -3.1595    3.4428   -0.0062 C.ar      1 <0>         0.3532
     15 N2         -4.3014    2.7631   -0.0979 N.ar      1 <0>        -0.5702
     16 C14        -4.2985    1.4486   -0.1532 C.ar      1 <0>         0.3697
     17 N3         -3.1871    0.7360   -0.1221 N.ar      1 <0>        -0.5950
     18 C15        -1.9979    1.3255   -0.0317 C.ar      1 <0>         0.4983
     19 N4         -0.8356    0.5757    0.0006 N.pl3     1 <0>        -0.8262
     20 C16         0.5751    3.4618    0.2008 C.ar      1 <0>         0.0212
     21 C17         1.0754    2.5361    1.1162 C.ar      1 <0>        -0.1635
     22 C18         2.4323    2.2921    1.1785 C.ar      1 <0>        -0.0689
     23 C19         3.2988    2.9628    0.3352 C.ar      1 <0>        -0.2059
     24 C20         2.8091    3.8854   -0.5791 C.ar      1 <0>         0.1375
     25 C21         1.4483    4.1336   -0.6519 C.ar      1 <0>        -0.1412
     26 O1          3.6647    4.5418   -1.4063 O.3       1 <0>        -0.3163
     27 C22         5.0542    4.2330   -1.2801 C.3       1 <0>         0.0249
     28 C23        -6.7080   12.2809   -1.8083 C.3       1 <0>        -0.0013
     29 C24        -7.0456   11.7747   -3.2121 C.3       1 <0>         0.0427
     30 O2         -8.4594   11.6033   -3.3295 O.3       1 <0>        -0.5814
     31 H1         -6.2321   12.1559    0.8856 H         1 <0>         0.1239
     32 H2         -7.8700   12.7137    0.4680 H         1 <0>         0.1236
     33 H3         -7.6361   11.1078    1.1992 H         1 <0>         0.1230
     34 H4         -5.1510   10.5182   -0.3923 H         1 <0>         0.1338
     35 H5         -5.9276    9.8153   -1.8315 H         1 <0>         0.1282
     36 H6         -7.5664    8.6520   -0.3790 H         1 <0>         0.0971
     37 H7         -6.7898    9.3548    1.0602 H         1 <0>         0.0976
     38 H8         -4.5920    8.6157    1.7722 H         1 <0>         0.1335
     39 H9         -2.9505    6.7820    1.7885 H         1 <0>         0.1364
     40 H10        -4.8103    5.0986   -1.6743 H         1 <0>         0.1361
     41 H11        -6.4539    6.9305   -1.6756 H         1 <0>         0.1333
     42 H12        -0.9781    5.8880    0.2174 H         1 <0>         0.1834
     43 H13        -5.2436    0.9313   -0.2276 H         1 <0>         0.2034
     44 H14        -0.8815   -0.3923   -0.0428 H         1 <0>         0.4105
     45 H15         0.0254    1.0181    0.0627 H         1 <0>         0.4142
     46 H16         0.4012    2.0101    1.7758 H         1 <0>         0.1279
     47 H17         2.8184    1.5750    1.8878 H         1 <0>         0.1323
     48 H18         4.3597    2.7680    0.3877 H         1 <0>         0.1328
     49 H19         1.0656    4.8482   -1.3656 H         1 <0>         0.1327
     50 H20         5.3878    4.4660   -0.2689 H         1 <0>         0.0583
     51 H21         5.2102    3.1727   -1.4789 H         1 <0>         0.0586
     52 H22         5.6244    4.8247   -1.9962 H         1 <0>         0.1036
     53 H23        -7.2668   13.1950   -1.6076 H         1 <0>         0.1378
     54 H24        -5.6395   12.4867   -1.7435 H         1 <0>         0.1431
     55 H25        -6.7048   12.4995   -3.9515 H         1 <0>         0.0951
     56 H26        -6.5484   10.8199   -3.3834 H         1 <0>         0.0709
     57 H27        -8.7463   11.2835   -4.1958 H         1 <0>         0.4104
     58 N5         -7.0960   11.2470   -0.8260 N.4       1 <0>        -0.3970
     59 H28        -8.0061   10.8556   -1.0957 H         1 <0>         0.4368
@<TRIPOS>BOND
     1    1   31 1
     2    1   32 1
     3    1   33 1
     4    1   58 1
     5    2    3 1
     6    2   34 1
     7    2   35 1
     8    2   58 1
     9    3    4 1
    10    3   36 1
    11    3   37 1
    12    4    9 ar
    13    4    5 ar
    14    5    6 ar
    15    5   38 1
    16    6    7 ar
    17    6   39 1
    18    7    8 ar
    19    7   10 1
    20    8    9 ar
    21    8   40 1
    22    9   41 1
    23   10   14 1
    24   10   11 1
    25   11   12 2
    26   11   42 1
    27   12   13 1
    28   12   20 1
    29   13   18 ar
    30   13   14 ar
    31   14   15 ar
    32   15   16 ar
    33   16   17 ar
    34   16   43 1
    35   17   18 ar
    36   18   19 1
    37   19   44 1
    38   19   45 1
    39   20   25 ar
    40   20   21 ar
    41   21   22 ar
    42   21   46 1
    43   22   23 ar
    44   22   47 1
    45   23   24 ar
    46   23   48 1
    47   24   25 ar
    48   24   26 1
    49   25   49 1
    50   26   27 1
    51   27   50 1
    52   27   51 1
    53   27   52 1
    54   28   29 1
    55   28   53 1
    56   28   54 1
    57   28   58 1
    58   29   30 1
    59   29   55 1
    60   29   56 1
    61   30   57 1
    62   58   59 1
@<TRIPOS>MOLECULE
ZINC03815325
   63    67     0     0     0
SMALL
USER_CHARGES

@<TRIPOS>ATOM
      1 C1         -2.4461    2.7839    4.7585 C.3       1 <0>         0.0192
      2 O1         -1.8725    2.3814    3.5130 O.3       1 <0>        -0.3014
      3 C2         -0.7569    1.6083    3.5690 C.ar      1 <0>         0.1628
      4 C3         -0.2386    1.2478    4.7932 C.ar      1 <0>        -0.1798
      5 C4          0.9147    0.4557    4.8478 C.ar      1 <0>         0.2096
      6 C5          1.5272    0.0330    3.6421 C.ar      1 <0>        -0.1961
      7 C6          0.9772    0.4087    2.4107 C.ar      1 <0>        -0.1351
      8 C7         -0.1485    1.1819    2.3803 C.ar      1 <0>         0.0978
      9 O2         -0.6816    1.5467    1.1837 O.3       1 <0>        -0.2971
     10 C8         -0.0127    1.0858    0.0080 C.3       1 <0>         0.0587
     11 C9         -0.7527    1.5927   -1.2315 C.3       1 <0>        -0.1505
     12 C10        -0.0366    1.0992   -2.4903 C.3       1 <0>        -0.0031
     13 C11        -2.0810    0.9766   -3.7835 C.3       1 <0>        -0.0447
     14 C12        -2.8076    1.5548   -5.0007 C.3       1 <0>         0.0350
     15 O3         -2.0179    1.3304   -6.1719 O.3       1 <0>        -0.3560
     16 C13        -0.7125    1.9108   -6.1059 C.3       1 <0>         0.0343
     17 C14         0.0352    1.3362   -4.8999 C.3       1 <0>        -0.0388
     18 C15         2.6919   -0.7664    3.7294 C.ar      1 <0>         0.4786
     19 N1          3.1501   -1.0780    4.9345 N.ar      1 <0>        -0.5901
     20 C16         2.5437   -0.6603    6.0345 C.ar      1 <0>         0.3565
     21 N2          1.4625    0.0819    6.0149 N.ar      1 <0>        -0.5499
     22 N3          3.3335   -1.2095    2.5914 N.pl3     1 <0>        -0.6694
     23 C17         4.5379   -2.0360    2.7043 C.3       1 <0>         0.1055
     24 H1          4.7740   -2.3880    3.7085 H         1 <0>         0.1547
     25 C18         5.7097   -1.7073    1.7772 C.3       1 <0>        -0.1820
     26 C19         4.8706   -2.9633    1.5337 C.3       1 <0>        -0.1332
     27 H2          5.3257   -3.9257    1.7676 H         1 <0>         0.1287
     28 C20         3.9345   -2.9565    0.3528 C.ar      1 <0>        -0.0418
     29 C21         3.7195   -1.7870   -0.3522 C.ar      1 <0>        -0.1412
     30 C22         2.8645   -1.7819   -1.4384 C.ar      1 <0>        -0.1225
     31 C23         2.2167   -2.9441   -1.8135 C.ar      1 <0>        -0.1288
     32 C24         2.4273   -4.1123   -1.1051 C.ar      1 <0>        -0.1075
     33 C25         3.2863   -4.1185   -0.0221 C.ar      1 <0>        -0.1043
     34 H3         -2.7304    1.9003    5.3300 H         1 <0>         0.0642
     35 H4         -1.7164    3.3632    5.3242 H         1 <0>         0.0643
     36 H5         -3.3290    3.3951    4.5712 H         1 <0>         0.1086
     37 H6         -0.7161    1.5768    5.7043 H         1 <0>         0.1582
     38 H7          1.4409    0.0890    1.4892 H         1 <0>         0.1323
     39 H8          0.0021   -0.0041    0.0020 H         1 <0>         0.0732
     40 H9          1.0099    1.4631    0.0003 H         1 <0>         0.0719
     41 H10        -1.7753    1.2154   -1.2238 H         1 <0>         0.1009
     42 H11        -0.7675    2.6825   -1.2255 H         1 <0>         0.1015
     43 H12         0.9860    1.4765   -2.4981 H         1 <0>         0.1354
     44 H13        -0.0218    0.0093   -2.4963 H         1 <0>         0.1368
     45 H14        -1.9804   -0.1026   -3.8984 H         1 <0>         0.1417
     46 H15        -2.6518    1.1956   -2.8810 H         1 <0>         0.1429
     47 H16        -2.9558    2.6257   -4.8614 H         1 <0>         0.0820
     48 H17        -3.7745    1.0646   -5.1143 H         1 <0>         0.1426
     49 H18        -0.7998    2.9920   -5.9987 H         1 <0>         0.0818
     50 H19        -0.1642    1.6780   -7.0188 H         1 <0>         0.1426
     51 H20         1.0093    1.8176   -4.8124 H         1 <0>         0.1419
     52 H21         0.1697    0.2627   -5.0326 H         1 <0>         0.1412
     53 H22         2.9581   -0.9429    6.9910 H         1 <0>         0.1998
     54 H23         2.9873   -0.9739    1.7165 H         1 <0>         0.4072
     55 H24         5.5846   -0.8761    1.0832 H         1 <0>         0.0997
     56 H25         6.7168   -1.8430    2.1714 H         1 <0>         0.1153
     57 H26         4.2224   -0.8781   -0.0566 H         1 <0>         0.1223
     58 H27         2.6997   -0.8692   -1.9916 H         1 <0>         0.1148
     59 H28         1.5458   -2.9392   -2.6598 H         1 <0>         0.1191
     60 H29         1.9209   -5.0201   -1.3979 H         1 <0>         0.1271
     61 H30         3.4508   -5.0312    0.5314 H         1 <0>         0.1284
     62 N4         -0.7512    1.6127   -3.6790 N.4       1 <0>        -0.3946
     63 H31        -0.8730    2.6276   -3.5826 H         1 <0>         0.4287
@<TRIPOS>BOND
     1    1    2 1
     2    1   34 1
     3    1   35 1
     4    1   36 1
     5    2    3 1
     6    3    8 ar
     7    3    4 ar
     8    4    5 ar
     9    4   37 1
    10    5   21 ar
    11    5    6 ar
    12    6    7 ar
    13    6   18 ar
    14    7    8 ar
    15    7   38 1
    16    8    9 1
    17    9   10 1
    18   10   11 1
    19   10   39 1
    20   10   40 1
    21   11   12 1
    22   11   41 1
    23   11   42 1
    24   12   43 1
    25   12   44 1
    26   12   62 1
    27   13   14 1
    28   13   45 1
    29   13   46 1
    30   13   62 1
    31   14   15 1
    32   14   47 1
    33   14   48 1
    34   15   16 1
    35   16   17 1
    36   16   49 1
    37   16   50 1
    38   17   51 1
    39   17   52 1
    40   17   62 1
    41   18   19 ar
    42   18   22 1
    43   19   20 ar
    44   20   21 ar
    45   20   53 1
    46   22   23 1
    47   22   54 1
    48   23   24 1
    49   23   26 1
    50   23   25 1
    51   25   26 1
    52   25   55 1
    53   25   56 1
    54   26   27 1
    55   26   28 1
    56   28   33 ar
    57   28   29 ar
    58   29   30 ar
    59   29   57 1
    60   30   31 ar
    61   30   58 1
    62   31   32 ar
    63   31   59 1
    64   32   33 ar
    65   32   60 1
    66   33   61 1
    67   62   63 1
@<TRIPOS>MOLECULE
ZINC03815326
   36    39     0     0     0
SMALL
USER_CHARGES

@<TRIPOS>ATOM
      1 C1         -0.0092    1.0762   -0.0289 C.ar      1 <0>        -0.1386
      2 C2          0.9268    1.7692    0.7168 C.ar      1 <0>        -0.0997
      3 C3          0.9130    3.1500    0.7344 C.ar      1 <0>        -0.1518
      4 C4         -0.0492    3.8427    0.0104 C.ar      1 <0>         0.1550
      5 C5         -0.9912    3.1434   -0.7333 C.ar      1 <0>        -0.1137
      6 C6         -0.9684    1.7626   -0.7508 C.ar      1 <0>        -0.1001
      7 N1         -0.0691    5.2401    0.0299 N.pl3     1 <0>        -0.6454
      8 C7         -1.2734    5.9165   -0.0599 C.ar      1 <0>         0.4799
      9 C8         -1.3060    7.3164   -0.1587 C.ar      1 <0>        -0.2445
     10 C9         -0.3095    8.3773   -0.1988 C.2       1 <0>        -0.1340
     11 C10        -0.9748    9.5443   -0.3007 C.2       1 <0>         0.0723
     12 N2         -2.3214    9.3016   -0.3305 N.pl3     1 <0>        -0.5617
     13 H1         -3.0078    9.9835   -0.4003 H         1 <0>         0.4216
     14 C11        -2.5581    7.9559   -0.2464 C.ar      1 <0>         0.3446
     15 N3         -3.6586    7.2059   -0.2331 N.ar      1 <0>        -0.5639
     16 C12        -3.5793    5.8963   -0.1394 C.ar      1 <0>         0.3558
     17 N4         -2.4270    5.2555   -0.0602 N.ar      1 <0>        -0.5837
     18 C13        -0.2961   10.8928   -0.3694 C.3       1 <0>        -0.0543
     19 C14         1.1506   10.7354    0.1116 C.3       1 <0>        -0.1151
     20 C15         1.8099    9.5661   -0.6255 C.3       1 <0>        -0.1197
     21 C16         1.1909    8.2486   -0.1426 C.3       1 <0>        -0.0536
     22 H2          0.0062   -0.0036   -0.0440 H         1 <0>         0.1219
     23 H3          1.6719    1.2299    1.2830 H         1 <0>         0.1247
     24 H4          1.6466    3.6907    1.3140 H         1 <0>         0.1221
     25 H5         -1.7408    3.6788   -1.2970 H         1 <0>         0.1367
     26 H6         -1.7007    1.2184   -1.3286 H         1 <0>         0.1245
     27 H7          0.7611    5.7360    0.1064 H         1 <0>         0.4188
     28 H8         -4.4934    5.3213   -0.1321 H         1 <0>         0.2018
     29 H9         -0.8207   11.5998    0.2732 H         1 <0>         0.0810
     30 H10        -0.3027   11.2540   -1.3978 H         1 <0>         0.0853
     31 H11         1.1576   10.5392    1.1838 H         1 <0>         0.0700
     32 H12         1.7033   11.6522   -0.0936 H         1 <0>         0.0766
     33 H13         2.8801    9.5627   -0.4186 H         1 <0>         0.0729
     34 H14         1.6470    9.6732   -1.6979 H         1 <0>         0.0680
     35 H15         1.5035    8.0512    0.8828 H         1 <0>         0.0755
     36 H16         1.5132    7.4334   -0.7904 H         1 <0>         0.0708
@<TRIPOS>BOND
     1    1    6 ar
     2    1    2 ar
     3    1   22 1
     4    2    3 ar
     5    2   23 1
     6    3    4 ar
     7    3   24 1
     8    4    5 ar
     9    4    7 1
    10    5    6 ar
    11    5   25 1
    12    6   26 1
    13    7    8 1
    14    7   27 1
    15    8   17 ar
    16    8    9 ar
    17    9   14 ar
    18    9   10 1
    19   10   21 1
    20   10   11 2
    21   11   12 1
    22   11   18 1
    23   12   13 1
    24   12   14 1
    25   14   15 ar
    26   15   16 ar
    27   16   17 ar
    28   16   28 1
    29   18   19 1
    30   18   29 1
    31   18   30 1
    32   19   20 1
    33   19   31 1
    34   19   32 1
    35   20   21 1
    36   20   33 1
    37   20   34 1
    38   21   35 1
    39   21   36 1
@<TRIPOS>MOLECULE
ZINC03815328
   35    37     0     0     0
SMALL
USER_CHARGES

@<TRIPOS>ATOM
      1 C1         -0.9919    6.2996    0.1403 C.3       1 <0>         0.0860
      2 N1          0.2326    5.4968    0.1899 N.pl3     1 <0>        -0.5995
      3 C2          1.5393    6.1567    0.2487 C.3       1 <0>         0.0840
      4 C3          0.1550    4.1143    0.1812 C.ar      1 <0>         0.4641
      5 C4         -1.0937    3.5009    0.0179 C.ar      1 <0>        -0.2335
      6 C5         -1.1837    2.1389    0.0022 C.ar      1 <0>         0.0112
      7 C6         -0.0034    1.3955    0.1623 C.ar      1 <0>        -0.2922
      8 C7          1.2299    2.0732    0.3236 C.ar      1 <0>         0.4260
      9 N2          1.2597    3.4061    0.3265 N.ar      1 <0>        -0.5450
     10 N3          2.3454    1.3432    0.4695 N.ar      1 <0>        -0.5484
     11 C8          2.2907    0.0314    0.4622 C.ar      1 <0>         0.3768
     12 N4          1.1626   -0.6417    0.3146 N.ar      1 <0>        -0.5963
     13 C9          0.0000   -0.0172    0.1626 C.ar      1 <0>         0.4855
     14 N5         -1.1716   -0.7287    0.0088 N.pl3     1 <0>        -0.6386
     15 C10        -1.1339   -2.1214   -0.1045 C.ar      1 <0>         0.1569
     16 C11        -2.1749   -2.8895    0.4020 C.ar      1 <0>        -0.1325
     17 C12        -2.1350   -4.2651    0.2887 C.ar      1 <0>        -0.0925
     18 C13        -1.0602   -4.8790   -0.3282 C.ar      1 <0>        -0.1061
     19 C14        -0.0219   -4.1174   -0.8343 C.ar      1 <0>        -0.0711
     20 C15        -0.0585   -2.7398   -0.7287 C.ar      1 <0>        -0.0830
     21 Br1         1.4448   -4.9615   -1.6782 Br        1 <0>        -0.0432
     22 H1         -1.3398    6.4947    1.1547 H         1 <0>         0.0604
     23 H2         -0.7863    7.2452   -0.3615 H         1 <0>         0.0792
     24 H3         -1.7605    5.7562   -0.4093 H         1 <0>         0.0753
     25 H4          2.3259    5.4029    0.2797 H         1 <0>         0.0978
     26 H5          1.6703    6.7826   -0.6340 H         1 <0>         0.0593
     27 H6          1.5937    6.7757    1.1443 H         1 <0>         0.0591
     28 H7         -1.9822    4.1038   -0.0991 H         1 <0>         0.1457
     29 H8         -2.1364    1.6469   -0.1274 H         1 <0>         0.1379
     30 H9          3.2096   -0.5232    0.5828 H         1 <0>         0.2027
     31 H10        -2.0218   -0.2625   -0.0207 H         1 <0>         0.4217
     32 H11        -3.0145   -2.4111    0.8844 H         1 <0>         0.1314
     33 H12        -2.9443   -4.8624    0.6821 H         1 <0>         0.1371
     34 H13        -1.0316   -5.9551   -0.4155 H         1 <0>         0.1347
     35 H14         0.7502   -2.1452   -1.1275 H         1 <0>         0.1492
@<TRIPOS>BOND
     1    1    2 1
     2    1   22 1
     3    1   23 1
     4    1   24 1
     5    2    3 1
     6    2    4 1
     7    3   25 1
     8    3   26 1
     9    3   27 1
    10    4    9 ar
    11    4    5 ar
    12    5    6 ar
    13    5   28 1
    14    6    7 ar
    15    6   29 1
    16    7   13 ar
    17    7    8 ar
    18    8    9 ar
    19    8   10 ar
    20   10   11 ar
    21   11   12 ar
    22   11   30 1
    23   12   13 ar
    24   13   14 1
    25   14   15 1
    26   14   31 1
    27   15   20 ar
    28   15   16 ar
    29   16   17 ar
    30   16   32 1
    31   17   18 ar
    32   17   33 1
    33   18   19 ar
    34   18   34 1
    35   19   20 ar
    36   19   21 1
    37   20   35 1
@<TRIPOS>MOLECULE
ZINC03815329
   49    52     0     0     0
SMALL
USER_CHARGES

@<TRIPOS>ATOM
      1 C1          3.3736    3.6163    0.1121 C.3       1 <0>         0.0698
      2 N1          3.4289    2.1661    0.3125 N.am      1 <0>        -0.5057
      3 C2          2.2658    1.4385    0.3323 C.ar      1 <0>         0.4659
      4 C3          2.3015    0.0403    0.5239 C.ar      1 <0>        -0.2747
      5 C4          3.5381   -0.6227    0.6962 C.2       1 <0>         0.0307
      6 C5          4.6934    0.1116    0.6755 C.2       1 <0>        -0.1637
      7 C6          4.6210    1.5606    0.4751 C.2       1 <0>         0.5570
      8 O1          5.6441    2.2214    0.4548 O.2       1 <0>        -0.5015
      9 C7          6.0052   -0.5536    0.8537 C.ar      1 <0>        -0.0100
     10 C8          6.5478   -0.7021    2.1306 C.ar      1 <0>        -0.0064
     11 C9          7.7693   -1.3267    2.2902 C.ar      1 <0>        -0.1065
     12 C10         8.4588   -1.7963    1.1868 C.ar      1 <0>        -0.0875
     13 C11         7.9286   -1.6481   -0.0823 C.ar      1 <0>        -0.1065
     14 C12         6.7060   -1.0293   -0.2553 C.ar      1 <0>        -0.0065
     15 Cl1         6.0430   -0.8432   -1.8488 Cl        1 <0>        -0.0499
     16 Cl2         5.6870   -0.1080    3.5162 Cl        1 <0>        -0.0501
     17 C13         1.0896   -0.6663    0.5380 C.ar      1 <0>         0.2649
     18 N2         -0.0348    0.0047    0.3716 N.ar      1 <0>        -0.5625
     19 C14        -0.0302    1.3212    0.1938 C.ar      1 <0>         0.6098
     20 N3          1.0876    2.0307    0.1730 N.ar      1 <0>        -0.5938
     21 N4         -1.2358    1.9733    0.0186 N.pl3     1 <0>        -0.6232
     22 C15        -2.4198    1.2374   -0.0854 C.ar      1 <0>         0.2348
     23 C16        -2.4129   -0.0059   -0.7033 C.ar      1 <0>        -0.1787
     24 C17        -3.5865   -0.7376   -0.8009 C.ar      1 <0>         0.1855
     25 C18        -4.7693   -0.2230   -0.2913 C.ar      1 <0>        -0.3100
     26 C19        -4.7783    1.0216    0.3207 C.ar      1 <0>         0.1868
     27 C20        -3.6045    1.7520    0.4241 C.ar      1 <0>        -0.2137
     28 O2         -5.9378    1.5251    0.8193 O.3       1 <0>        -0.3119
     29 C21        -7.1091    0.7187    0.6780 C.3       1 <0>         0.0265
     30 O3         -3.5789   -1.9570   -1.4007 O.3       1 <0>        -0.3097
     31 C22        -4.8249   -2.6531   -1.4711 C.3       1 <0>         0.0262
     32 H1          3.2910    4.1137    1.0785 H         1 <0>         0.0747
     33 H2          4.2817    3.9484   -0.3910 H         1 <0>         0.0922
     34 H3          2.5070    3.8657   -0.5002 H         1 <0>         0.0954
     35 H4          3.5709   -1.6922    0.8432 H         1 <0>         0.1509
     36 H5          8.1887   -1.4455    3.2783 H         1 <0>         0.1437
     37 H6          9.4153   -2.2806    1.3166 H         1 <0>         0.1453
     38 H7          8.4721   -2.0167   -0.9397 H         1 <0>         0.1437
     39 H8          1.0769   -1.7366    0.6816 H         1 <0>         0.1887
     40 H9         -1.2605    2.9416   -0.0323 H         1 <0>         0.4301
     41 H10        -1.4928   -0.4048   -1.1042 H         1 <0>         0.1453
     42 H11        -5.6840   -0.7917   -0.3712 H         1 <0>         0.1359
     43 H12        -3.6115    2.7209    0.9013 H         1 <0>         0.1365
     44 H13        -7.9618    1.2364    1.1171 H         1 <0>         0.1033
     45 H14        -7.2996    0.5369   -0.3797 H         1 <0>         0.0567
     46 H15        -6.9591   -0.2325    1.1888 H         1 <0>         0.0568
     47 H16        -5.2026   -2.8248   -0.4632 H         1 <0>         0.0564
     48 H17        -5.5438   -2.0555   -2.0317 H         1 <0>         0.0558
     49 H18        -4.6787   -3.6099   -1.9723 H         1 <0>         0.1030
@<TRIPOS>BOND
     1    1    2 1
     2    1   32 1
     3    1   33 1
     4    1   34 1
     5    2    7 am
     6    2    3 1
     7    3   20 ar
     8    3    4 ar
     9    4    5 1
    10    4   17 ar
    11    5    6 2
    12    5   35 1
    13    6    7 1
    14    6    9 1
    15    7    8 2
    16    9   14 ar
    17    9   10 ar
    18   10   11 ar
    19   10   16 1
    20   11   12 ar
    21   11   36 1
    22   12   13 ar
    23   12   37 1
    24   13   14 ar
    25   13   38 1
    26   14   15 1
    27   17   18 ar
    28   17   39 1
    29   18   19 ar
    30   19   20 ar
    31   19   21 1
    32   21   22 1
    33   21   40 1
    34   22   27 ar
    35   22   23 ar
    36   23   24 ar
    37   23   41 1
    38   24   25 ar
    39   24   30 1
    40   25   26 ar
    41   25   42 1
    42   26   27 ar
    43   26   28 1
    44   27   43 1
    45   28   29 1
    46   29   44 1
    47   29   45 1
    48   29   46 1
    49   30   31 1
    50   31   47 1
    51   31   48 1
    52   31   49 1
@<TRIPOS>MOLECULE
ZINC03815331
   28    30     0     0     0
SMALL
USER_CHARGES

@<TRIPOS>ATOM
      1 C1         -0.0092    1.0762   -0.0287 C.ar      1 <0>        -0.1364
      2 C2          0.9266    1.7689    0.7175 C.ar      1 <0>        -0.0995
      3 C3          0.9131    3.1498    0.7352 C.ar      1 <0>        -0.1502
      4 C4         -0.0492    3.8427    0.0114 C.ar      1 <0>         0.1526
      5 C5         -0.9913    3.1435   -0.7325 C.ar      1 <0>        -0.1150
      6 C6         -0.9685    1.7629   -0.7503 C.ar      1 <0>        -0.0972
      7 N1         -0.0690    5.2399    0.0313 N.pl3     1 <0>        -0.6429
      8 C7         -1.2748    5.9170   -0.0581 C.ar      1 <0>         0.3649
      9 C8         -1.3034    7.3270   -0.1570 C.ar      1 <0>        -0.1083
     10 C9         -0.1437    8.1086   -0.1710 C.ar      1 <0>        -0.0894
     11 C10        -0.2512    9.4647   -0.2693 C.ar      1 <0>        -0.1047
     12 C11        -1.4966   10.0824   -0.3558 C.ar      1 <0>        -0.0917
     13 C12        -2.6467    9.3505   -0.3450 C.ar      1 <0>        -0.0946
     14 C13        -2.5727    7.9553   -0.2452 C.ar      1 <0>        -0.0474
     15 C14        -3.7141    7.1319   -0.2282 C.ar      1 <0>         0.0323
     16 N2         -3.5617    5.8313   -0.1326 N.ar      1 <0>        -0.2213
     17 N3         -2.4195    5.2565   -0.0581 N.ar      1 <0>        -0.3210
     18 H1          0.0064   -0.0035   -0.0443 H         1 <0>         0.1234
     19 H2          1.6714    1.2295    1.2838 H         1 <0>         0.1259
     20 H3          1.6468    3.6902    1.3149 H         1 <0>         0.1230
     21 H4         -1.7409    3.6792   -1.2960 H         1 <0>         0.1360
     22 H5         -1.7008    1.2187   -1.3282 H         1 <0>         0.1261
     23 H6          0.7611    5.7357    0.1077 H         1 <0>         0.4178
     24 H7          0.8283    7.6425   -0.1042 H         1 <0>         0.1303
     25 H8          0.6437   10.0692   -0.2805 H         1 <0>         0.1341
     26 H9         -1.5520   11.1582   -0.4323 H         1 <0>         0.1349
     27 H10        -3.6061    9.8420   -0.4127 H         1 <0>         0.1425
     28 H11        -4.7017    7.5640   -0.2926 H         1 <0>         0.1759
@<TRIPOS>BOND
     1    1    6 ar
     2    1    2 ar
     3    1   18 1
     4    2    3 ar
     5    2   19 1
     6    3    4 ar
     7    3   20 1
     8    4    5 ar
     9    4    7 1
    10    5    6 ar
    11    5   21 1
    12    6   22 1
    13    7    8 1
    14    7   23 1
    15    8   17 ar
    16    8    9 ar
    17    9   14 ar
    18    9   10 ar
    19   10   11 ar
    20   10   24 1
    21   11   12 ar
    22   11   25 1
    23   12   13 ar
    24   12   26 1
    25   13   14 ar
    26   13   27 1
    27   14   15 ar
    28   15   16 ar
    29   15   28 1
    30   16   17 ar
@<TRIPOS>MOLECULE
ZINC03815332
   32    34     0     0     0
SMALL
USER_CHARGES

@<TRIPOS>ATOM
      1 C1          3.4887    3.1315    0.0413 C.3       1 <0>         0.0229
      2 O1          2.2912    3.8926   -0.1286 O.3       1 <0>        -0.3089
      3 C2          1.1194    3.2063   -0.1291 C.ar      1 <0>         0.1728
      4 C3          1.1318    1.8180    0.0325 C.ar      1 <0>        -0.2036
      5 C4         -0.0286    1.1050    0.0350 C.ar      1 <0>        -0.0315
      6 C5         -1.2508    1.7676   -0.1311 C.ar      1 <0>        -0.2221
      7 C6         -1.2743    3.1757   -0.2898 C.ar      1 <0>         0.2249
      8 C7         -0.0688    3.8868   -0.2894 C.ar      1 <0>        -0.1558
      9 N1         -2.4586    3.7878   -0.4423 N.ar      1 <0>        -0.5475
     10 C8         -3.5717    3.0930   -0.4387 C.ar      1 <0>         0.3553
     11 N2         -3.5991    1.7788   -0.2885 N.ar      1 <0>        -0.5881
     12 C9         -2.4849    1.0754   -0.1302 C.ar      1 <0>         0.4729
     13 N3         -2.5284   -0.2949    0.0254 N.pl3     1 <0>        -0.6386
     14 C10        -3.7597   -0.9467    0.1391 C.ar      1 <0>         0.1572
     15 C11        -3.9167   -2.2312   -0.3667 C.ar      1 <0>        -0.1327
     16 C12        -5.1342   -2.8727   -0.2531 C.ar      1 <0>        -0.0921
     17 C13        -6.1972   -2.2383    0.3635 C.ar      1 <0>        -0.1062
     18 C14        -6.0446   -0.9592    0.8685 C.ar      1 <0>        -0.0709
     19 C15        -4.8269   -0.3140    0.7629 C.ar      1 <0>        -0.0837
     20 Br1        -7.5010   -0.0963    1.7113 Br        1 <0>        -0.0431
     21 H1          3.4547    2.6092    0.9974 H         1 <0>         0.0598
     22 H2          3.5751    2.4050   -0.7667 H         1 <0>         0.0597
     23 H3          4.3496    3.7997    0.0226 H         1 <0>         0.1060
     24 H4          2.0735    1.3040    0.1567 H         1 <0>         0.1395
     25 H5         -0.0059    0.0325    0.1600 H         1 <0>         0.1306
     26 H6         -0.0693    4.9596   -0.4140 H         1 <0>         0.1499
     27 H7         -4.5075    3.6173   -0.5644 H         1 <0>         0.1993
     28 H8         -1.7044   -0.8059    0.0559 H         1 <0>         0.4223
     29 H9         -3.0873   -2.7273   -0.8488 H         1 <0>         0.1315
     30 H10        -5.2564   -3.8712   -0.6459 H         1 <0>         0.1373
     31 H11        -7.1482   -2.7424    0.4514 H         1 <0>         0.1349
     32 H12        -4.7067    0.6827    1.1611 H         1 <0>         0.1483
@<TRIPOS>BOND
     1    1    2 1
     2    1   21 1
     3    1   22 1
     4    1   23 1
     5    2    3 1
     6    3    8 ar
     7    3    4 ar
     8    4    5 ar
     9    4   24 1
    10    5    6 ar
    11    5   25 1
    12    6   12 ar
    13    6    7 ar
    14    7    8 ar
    15    7    9 ar
    16    8   26 1
    17    9   10 ar
    18   10   11 ar
    19   10   27 1
    20   11   12 ar
    21   12   13 1
    22   13   14 1
    23   13   28 1
    24   14   19 ar
    25   14   15 ar
    26   15   16 ar
    27   15   29 1
    28   16   17 ar
    29   16   30 1
    30   17   18 ar
    31   17   31 1
    32   18   19 ar
    33   18   20 1
    34   19   32 1
@<TRIPOS>MOLECULE
ZINC03815333
   44    46     0     0     0
SMALL
USER_CHARGES

@<TRIPOS>ATOM
      1 C1         -7.0345   -0.6168   -0.9945 C.3       1 <0>         0.0257
      2 O1         -7.1367    0.6551   -0.3514 O.3       1 <0>        -0.3068
      3 C2         -5.9964    1.3913   -0.2536 C.ar      1 <0>         0.0874
      4 C3         -4.8075    0.8983   -0.7665 C.ar      1 <0>        -0.1518
      5 C4         -3.6496    1.6467   -0.6723 C.ar      1 <0>        -0.1036
      6 C5         -3.6733    2.8904   -0.0548 C.ar      1 <0>         0.1534
      7 C6         -4.8632    3.3875    0.4597 C.ar      1 <0>        -0.2005
      8 C7         -6.0246    2.6394    0.3610 C.ar      1 <0>         0.1193
      9 O2         -7.1912    3.1240    0.8646 O.3       1 <0>        -0.3028
     10 C8         -7.1459    4.4118    1.4823 C.3       1 <0>         0.0254
     11 N1         -2.4986    3.6454    0.0437 N.pl3     1 <0>        -0.6371
     12 C9         -1.2815    3.0118    0.1919 C.ar      1 <0>         0.4661
     13 C10        -0.0727    3.7478    0.1763 C.ar      1 <0>        -0.1842
     14 C11        -0.0542    5.1383    0.0126 C.ar      1 <0>        -0.1476
     15 C12         1.1390    5.8026    0.0050 C.ar      1 <0>         0.1094
     16 C13         2.3469    5.1076    0.1600 C.ar      1 <0>         0.1634
     17 C14         2.3558    3.7402    0.3222 C.ar      1 <0>        -0.1842
     18 C15         1.1437    3.0387    0.3330 C.ar      1 <0>         0.2020
     19 N2          1.0979    1.7063    0.4887 N.ar      1 <0>        -0.5443
     20 C16        -0.0528    1.0766    0.4951 C.ar      1 <0>         0.3426
     21 N3         -1.2131    1.6960    0.3474 N.ar      1 <0>        -0.5800
     22 O3          3.5212    5.7906    0.1496 O.3       1 <0>        -0.2975
     23 C17         4.7177    5.0264    0.3121 C.3       1 <0>         0.0202
     24 O4          1.1559    7.1530   -0.1540 O.3       1 <0>        -0.3004
     25 C18        -0.1070    7.8041   -0.3066 C.3       1 <0>         0.0218
     26 H1         -6.6859   -0.4795   -2.0181 H         1 <0>         0.0549
     27 H2         -6.3272   -1.2431   -0.4508 H         1 <0>         0.0558
     28 H3         -8.0124   -1.0981   -1.0052 H         1 <0>         0.1007
     29 H4         -4.7864   -0.0701   -1.2440 H         1 <0>         0.1400
     30 H5         -2.7246    1.2626   -1.0763 H         1 <0>         0.1429
     31 H6         -4.8832    4.3565    0.9361 H         1 <0>         0.1368
     32 H7         -6.8109    5.1518    0.7554 H         1 <0>         0.0543
     33 H8         -8.1404    4.6783    1.8401 H         1 <0>         0.1022
     34 H9         -6.4519    4.3876    2.3224 H         1 <0>         0.0546
     35 H10        -2.5401    4.6139    0.0077 H         1 <0>         0.4179
     36 H11        -0.9791    5.6829   -0.1076 H         1 <0>         0.1386
     37 H12         3.2906    3.2125    0.4404 H         1 <0>         0.1559
     38 H13        -0.0532    0.0041    0.6222 H         1 <0>         0.1974
     39 H14         4.6896    4.5067    1.2698 H         1 <0>         0.0621
     40 H15         4.7956    4.2975   -0.4947 H         1 <0>         0.0622
     41 H16         5.5805    5.6920    0.2850 H         1 <0>         0.1072
     42 H17        -0.6140    7.4116   -1.1881 H         1 <0>         0.0573
     43 H18        -0.7193    7.6208    0.5764 H         1 <0>         0.0568
     44 H19         0.0489    8.8764   -0.4244 H         1 <0>         0.1068
@<TRIPOS>BOND
     1    1    2 1
     2    1   26 1
     3    1   27 1
     4    1   28 1
     5    2    3 1
     6    3    8 ar
     7    3    4 ar
     8    4    5 ar
     9    4   29 1
    10    5    6 ar
    11    5   30 1
    12    6    7 ar
    13    6   11 1
    14    7    8 ar
    15    7   31 1
    16    8    9 1
    17    9   10 1
    18   10   32 1
    19   10   33 1
    20   10   34 1
    21   11   12 1
    22   11   35 1
    23   12   21 ar
    24   12   13 ar
    25   13   18 ar
    26   13   14 ar
    27   14   15 ar
    28   14   36 1
    29   15   16 ar
    30   15   24 1
    31   16   17 ar
    32   16   22 1
    33   17   18 ar
    34   17   37 1
    35   18   19 ar
    36   19   20 ar
    37   20   21 ar
    38   20   38 1
    39   22   23 1
    40   23   39 1
    41   23   40 1
    42   23   41 1
    43   24   25 1
    44   25   42 1
    45   25   43 1
    46   25   44 1
@<TRIPOS>MOLECULE
ZINC03815334
   32    34     0     0     0
SMALL
USER_CHARGES

@<TRIPOS>ATOM
      1 C1          4.7718    1.3603    1.1008 C.ar      1 <0>        -0.0669
      2 C2          3.5865    1.9528    0.7110 C.ar      1 <0>        -0.1672
      3 C3          3.5573    3.3065    0.4006 C.ar      1 <0>         0.2086
      4 C4          4.7190    4.0627    0.4939 C.ar      1 <0>        -0.1499
      5 C5          5.9003    3.4652    0.8894 C.ar      1 <0>        -0.0456
      6 C6          5.9265    2.1150    1.1928 C.ar      1 <0>        -0.1332
      7 Br1         7.4825    4.4930    1.0168 Br        1 <0>        -0.0425
      8 N1          2.3609    3.9075    0.0009 N.pl3     1 <0>        -0.7050
      9 C7          1.2363    3.1343   -0.2088 C.ar      1 <0>         0.2691
     10 C8          0.3243    2.8722    0.8397 C.ar      1 <0>        -0.1040
     11 C9          0.5340    3.3900    2.1266 C.ar      1 <0>        -0.0952
     12 C10        -0.3623    3.1221    3.1205 C.ar      1 <0>         0.0950
     13 C11        -1.4928    2.3319    2.8683 C.ar      1 <0>         0.1236
     14 C12        -1.7213    1.8117    1.6151 C.ar      1 <0>        -0.1123
     15 C13        -0.8144    2.0734    0.5763 C.ar      1 <0>         0.1602
     16 N2         -1.0233    1.5794   -0.6530 N.ar      1 <0>        -0.4592
     17 C14        -0.1933    1.8015   -1.6400 C.ar      1 <0>         0.1856
     18 C15         0.9611    2.5824   -1.4691 C.ar      1 <0>        -0.0818
     19 C16         1.8478    2.8135   -2.5695 C.1       1 <0>         0.2510
     20 N3          2.5513    2.9968   -3.4424 N.1       1 <0>        -0.3872
     21 O1         -2.3722    2.0775    3.8721 O.3       1 <0>        -0.4819
     22 O2         -0.1565    3.6253    4.3669 O.3       1 <0>        -0.4830
     23 H1          4.7957    0.3070    1.3382 H         1 <0>         0.1354
     24 H2          2.6841    1.3633    0.6438 H         1 <0>         0.1253
     25 H3          4.6986    5.1164    0.2578 H         1 <0>         0.1352
     26 H4          6.8510    1.6500    1.5017 H         1 <0>         0.1342
     27 H5          2.3203    4.8678   -0.1292 H         1 <0>         0.4209
     28 H6          1.4018    3.9997    2.3301 H         1 <0>         0.1458
     29 H7         -2.5950    1.2039    1.4315 H         1 <0>         0.1560
     30 H8         -0.4036    1.3775   -2.6107 H         1 <0>         0.1773
     31 H9         -2.1695    1.2798    4.3798 H         1 <0>         0.3973
     32 H10         0.3607    3.0470    4.9441 H         1 <0>         0.3942
@<TRIPOS>BOND
     1    1    6 ar
     2    1    2 ar
     3    1   23 1
     4    2    3 ar
     5    2   24 1
     6    3    4 ar
     7    3    8 1
     8    4    5 ar
     9    4   25 1
    10    5    6 ar
    11    5    7 1
    12    6   26 1
    13    8    9 1
    14    8   27 1
    15    9   18 ar
    16    9   10 ar
    17   10   15 ar
    18   10   11 ar
    19   11   12 ar
    20   11   28 1
    21   12   13 ar
    22   12   22 1
    23   13   14 ar
    24   13   21 1
    25   14   15 ar
    26   14   29 1
    27   15   16 ar
    28   16   17 ar
    29   17   18 ar
    30   17   30 1
    31   18   19 1
    32   19   20 3
    33   21   31 1
    34   22   32 1
@<TRIPOS>MOLECULE
ZINC03815335
   30    32     0     0     0
SMALL
USER_CHARGES

@<TRIPOS>ATOM
      1 C1         -6.0201    2.6408    0.3621 C.ar      1 <0>        -0.0918
      2 C2         -4.8622    3.3875    0.4606 C.ar      1 <0>        -0.1276
      3 C3         -3.6714    2.8914   -0.0541 C.ar      1 <0>         0.1489
      4 C4         -3.6499    1.6473   -0.6718 C.ar      1 <0>        -0.0820
      5 C5         -4.8103    0.9027   -0.7621 C.ar      1 <0>        -0.0718
      6 C6         -5.9950    1.4004   -0.2481 C.ar      1 <0>        -0.1009
      7 Br1        -4.7814   -0.7943   -1.5958 Br        1 <0>        -0.0390
      8 N1         -2.4981    3.6448    0.0442 N.pl3     1 <0>        -0.6307
      9 C7         -1.2817    3.0110    0.1910 C.ar      1 <0>         0.4789
     10 C8         -0.0713    3.7466    0.1754 C.ar      1 <0>        -0.2006
     11 C9         -0.0474    5.1361    0.0119 C.ar      1 <0>        -0.0138
     12 C10         1.1490    5.7910    0.0046 C.ar      1 <0>        -0.1423
     13 C11         2.3453    5.0959    0.1580 C.ar      1 <0>         0.0121
     14 C12         2.3558    3.7422    0.3188 C.ar      1 <0>        -0.0471
     15 C13         1.1445    3.0375    0.3311 C.ar      1 <0>         0.2315
     16 N2          1.0985    1.7058    0.4860 N.ar      1 <0>        -0.5226
     17 C14        -0.0525    1.0764    0.4925 C.ar      1 <0>         0.3722
     18 N3         -1.2130    1.6955    0.3456 N.ar      1 <0>        -0.5769
     19 N4          3.6385    3.0213    0.4803 N.pl3     1 <0>         0.0287
     20 O1          4.6891    3.6376    0.4690 O.2       1 <0>        -0.1869
     21 O2          3.6435    1.8119    0.6246 O.3       1 <0>        -0.0995
     22 H1         -6.9462    3.0265    0.7620 H         1 <0>         0.1394
     23 H2         -4.8828    4.3561    0.9378 H         1 <0>         0.1333
     24 H3         -2.7266    1.2608   -1.0773 H         1 <0>         0.1483
     25 H4         -6.9019    0.8189   -0.3240 H         1 <0>         0.1368
     26 H5         -2.5393    4.6133    0.0092 H         1 <0>         0.4245
     27 H6         -0.9693    5.6857   -0.1079 H         1 <0>         0.1450
     28 H7          1.1684    6.8634   -0.1215 H         1 <0>         0.1578
     29 H8          3.2797    5.6374    0.1491 H         1 <0>         0.1655
     30 H9         -0.0528    0.0038    0.6190 H         1 <0>         0.2105
@<TRIPOS>BOND
     1    1    6 ar
     2    1    2 ar
     3    1   22 1
     4    2    3 ar
     5    2   23 1
     6    3    4 ar
     7    3    8 1
     8    4    5 ar
     9    4   24 1
    10    5    6 ar
    11    5    7 1
    12    6   25 1
    13    8    9 1
    14    8   26 1
    15    9   18 ar
    16    9   10 ar
    17   10   15 ar
    18   10   11 ar
    19   11   12 ar
    20   11   27 1
    21   12   13 ar
    22   12   28 1
    23   13   14 ar
    24   13   29 1
    25   14   15 ar
    26   14   19 1
    27   15   16 ar
    28   16   17 ar
    29   17   18 ar
    30   17   30 1
    31   19   20 2
    32   19   21 1
@<TRIPOS>MOLECULE
ZINC03815336
   39    42     0     0     0
SMALL
USER_CHARGES

@<TRIPOS>ATOM
      1 C1         -0.9738    1.7487   -0.6784 C.ar      1 <0>        -0.0968
      2 C2         -0.0172    1.0758    0.0598 C.ar      1 <0>        -0.0930
      3 C3          0.9185    1.7825    0.7924 C.ar      1 <0>        -0.1617
      4 C4          0.9078    3.1636    0.7802 C.ar      1 <0>        -0.0660
      5 C5         -0.0515    3.8425    0.0400 C.ar      1 <0>         0.1594
      6 C6         -0.9938    3.1293   -0.6905 C.ar      1 <0>        -0.1201
      7 N1         -0.0690    5.2401    0.0304 N.pl3     1 <0>        -0.6450
      8 C7          1.1166    5.9479    0.1269 C.ar      1 <0>         0.4764
      9 C8          1.1115    7.3475    0.2348 C.ar      1 <0>        -0.2407
     10 C9          0.0864    8.3800    0.2938 C.2       1 <0>        -0.1356
     11 C10         0.7198    9.5633    0.4096 C.2       1 <0>         0.0755
     12 N2          2.0727    9.3571    0.4339 N.pl3     1 <0>        -0.5612
     13 H1          2.7404   10.0565    0.5103 H         1 <0>         0.4224
     14 C11         2.3457    8.0193    0.3345 C.ar      1 <0>         0.3452
     15 N3          3.4661    7.2996    0.3123 N.ar      1 <0>        -0.5593
     16 C12         3.4223    5.9895    0.2050 C.ar      1 <0>         0.3578
     17 N4          2.2878    5.3189    0.1141 N.ar      1 <0>        -0.5855
     18 C13         0.0049   10.8918    0.4956 C.3       1 <0>        -0.0551
     19 C14        -1.4373   10.7014    0.0131 C.3       1 <0>        -0.1151
     20 C15        -2.0643    9.5054    0.7353 C.3       1 <0>        -0.1200
     21 C16        -1.4100    8.2114    0.2357 C.3       1 <0>        -0.0534
     22 C17         1.9549    1.0449    1.6006 C.3       1 <0>         0.5093
     23 F1          1.7681   -0.3335    1.4518 F         1 <0>        -0.1770
     24 F2          3.2326    1.3937    1.1501 F         1 <0>        -0.1726
     25 F3          1.8260    1.3899    2.9503 F         1 <0>        -0.1771
     26 H2         -1.7063    1.1937   -1.2458 H         1 <0>         0.1394
     27 H3         -0.0038   -0.0041    0.0675 H         1 <0>         0.1394
     28 H4          1.6418    3.7150    1.3492 H         1 <0>         0.1478
     29 H5         -1.7408    3.6542   -1.2674 H         1 <0>         0.1339
     30 H6         -0.9121    5.7141   -0.0439 H         1 <0>         0.4224
     31 H7          4.3516    5.4395    0.1911 H         1 <0>         0.2034
     32 H8          0.0026   11.2402    1.5284 H         1 <0>         0.0860
     33 H9          0.5096   11.6209   -0.1384 H         1 <0>         0.0816
     34 H10        -1.4398   10.5188   -1.0615 H         1 <0>         0.0702
     35 H11        -2.0145   11.6002    0.2302 H         1 <0>         0.0769
     36 H12        -3.1341    9.4755    0.5286 H         1 <0>         0.0732
     37 H13        -1.9038    9.6032    1.8090 H         1 <0>         0.0683
     38 H14        -1.7173    8.0187   -0.7922 H         1 <0>         0.0759
     39 H15        -1.7099    7.3795    0.8730 H         1 <0>         0.0708
@<TRIPOS>BOND
     1    1    6 ar
     2    1    2 ar
     3    1   26 1
     4    2    3 ar
     5    2   27 1
     6    3    4 ar
     7    3   22 1
     8    4    5 ar
     9    4   28 1
    10    5    6 ar
    11    5    7 1
    12    6   29 1
    13    7    8 1
    14    7   30 1
    15    8   17 ar
    16    8    9 ar
    17    9   14 ar
    18    9   10 1
    19   10   21 1
    20   10   11 2
    21   11   12 1
    22   11   18 1
    23   12   13 1
    24   12   14 1
    25   14   15 ar
    26   15   16 ar
    27   16   17 ar
    28   16   31 1
    29   18   19 1
    30   18   32 1
    31   18   33 1
    32   19   20 1
    33   19   34 1
    34   19   35 1
    35   20   21 1
    36   20   36 1
    37   20   37 1
    38   21   38 1
    39   21   39 1
    40   22   23 1
    41   22   24 1
    42   22   25 1
@<TRIPOS>MOLECULE
ZINC03815337
   47    49     0     0     0
SMALL
USER_CHARGES

@<TRIPOS>ATOM
      1 C1         -1.2884    0.9640   -3.7635 C.3       1 <0>        -0.1413
      2 C2         -0.5534    1.7321   -2.6632 C.3       1 <0>        -0.0596
      3 C3         -0.0085    3.0432   -3.2332 C.3       1 <0>        -0.1433
      4 C4         -1.5083    2.0325   -1.5366 C.ar      1 <0>        -0.0681
      5 C5         -2.6270    2.8091   -1.7671 C.ar      1 <0>        -0.1034
      6 C6         -3.5036    3.0852   -0.7340 C.ar      1 <0>        -0.0989
      7 C7         -3.2635    2.5856    0.5331 C.ar      1 <0>        -0.0998
      8 C8         -2.1496    1.8045    0.7694 C.ar      1 <0>        -0.1122
      9 C9         -1.2641    1.5291   -0.2653 C.ar      1 <0>         0.1154
     10 N1         -0.1336    0.7427   -0.0287 N.pl3     1 <0>        -0.6676
     11 C10         1.1234    1.3130   -0.0626 C.ar      1 <0>         0.3171
     12 C11         2.2768    0.5257   -0.2857 C.ar      1 <0>        -0.1387
     13 C12         2.1796   -0.8604   -0.4796 C.ar      1 <0>        -0.1558
     14 C13         3.3088   -1.5969   -0.6926 C.ar      1 <0>         0.1130
     15 C14         4.5682   -0.9811   -0.7196 C.ar      1 <0>         0.1562
     16 C15         4.6899    0.3780   -0.5418 C.ar      1 <0>        -0.1799
     17 C16         3.5438    1.1563   -0.3161 C.ar      1 <0>         0.1898
     18 N2          3.6443    2.4800   -0.1258 N.ar      1 <0>        -0.5035
     19 C17         2.5946    3.2318    0.0872 C.ar      1 <0>         0.2126
     20 C18         1.2991    2.6918    0.1289 C.ar      1 <0>        -0.1695
     21 C19         0.1691    3.5394    0.3640 C.1       1 <0>         0.2561
     22 N3         -0.7274    4.2118    0.5504 N.1       1 <0>        -0.4073
     23 O1          5.6794   -1.7330   -0.9331 O.3       1 <0>        -0.2983
     24 C20         6.9332   -1.0476   -0.9494 C.3       1 <0>         0.0203
     25 O2          3.2116   -2.9401   -0.8807 O.3       1 <0>        -0.3005
     26 C21         1.9005   -3.5073   -0.8422 C.3       1 <0>         0.0224
     27 H1         -0.5978    0.7467   -4.5783 H         1 <0>         0.0600
     28 H2         -1.6766    0.0299   -3.3575 H         1 <0>         0.0540
     29 H3         -2.1144    1.5682   -4.1387 H         1 <0>         0.0580
     30 H4          0.2726    1.1279   -2.2880 H         1 <0>         0.0778
     31 H5          0.5151    3.5903   -2.4492 H         1 <0>         0.0551
     32 H6          0.6821    2.8259   -4.0480 H         1 <0>         0.0602
     33 H7         -0.8345    3.6474   -3.6084 H         1 <0>         0.0574
     34 H8         -2.8175    3.2008   -2.7554 H         1 <0>         0.1255
     35 H9         -4.3780    3.6921   -0.9171 H         1 <0>         0.1249
     36 H10        -3.9504    2.8029    1.3377 H         1 <0>         0.1254
     37 H11        -1.9651    1.4111    1.7581 H         1 <0>         0.1232
     38 H12        -0.2316   -0.2046    0.1554 H         1 <0>         0.4135
     39 H13         1.2138   -1.3433   -0.4609 H         1 <0>         0.1384
     40 H14         5.6647    0.8425   -0.5641 H         1 <0>         0.1553
     41 H15         2.7279    4.2933    0.2348 H         1 <0>         0.1662
     42 H16         7.0916   -0.5570    0.0110 H         1 <0>         0.0621
     43 H17         7.7359   -1.7628   -1.1289 H         1 <0>         0.1061
     44 H18         6.9284   -0.3002   -1.7428 H         1 <0>         0.0621
     45 H19         1.9650   -4.5830   -1.0061 H         1 <0>         0.1058
     46 H20         1.4496   -3.3145    0.1312 H         1 <0>         0.0566
     47 H21         1.2868   -3.0571   -1.6225 H         1 <0>         0.0571
@<TRIPOS>BOND
     1    1    2 1
     2    1   27 1
     3    1   28 1
     4    1   29 1
     5    2    3 1
     6    2    4 1
     7    2   30 1
     8    3   31 1
     9    3   32 1
    10    3   33 1
    11    4    9 ar
    12    4    5 ar
    13    5    6 ar
    14    5   34 1
    15    6    7 ar
    16    6   35 1
    17    7    8 ar
    18    7   36 1
    19    8    9 ar
    20    8   37 1
    21    9   10 1
    22   10   11 1
    23   10   38 1
    24   11   20 ar
    25   11   12 ar
    26   12   17 ar
    27   12   13 ar
    28   13   14 ar
    29   13   39 1
    30   14   15 ar
    31   14   25 1
    32   15   16 ar
    33   15   23 1
    34   16   17 ar
    35   16   40 1
    36   17   18 ar
    37   18   19 ar
    38   19   20 ar
    39   19   41 1
    40   20   21 1
    41   21   22 3
    42   23   24 1
    43   24   42 1
    44   24   43 1
    45   24   44 1
    46   25   26 1
    47   26   45 1
    48   26   46 1
    49   26   47 1
@<TRIPOS>MOLECULE
ZINC03815338
   29    31     0     0     0
SMALL
USER_CHARGES

@<TRIPOS>ATOM
      1 C1         -1.9926    0.9752   -1.4774 C.3       1 <0>        -0.1165
      2 C2         -0.9726    1.7492   -0.6827 C.ar      1 <0>        -0.0655
      3 C3         -0.0171    1.0758    0.0566 C.ar      1 <0>        -0.1284
      4 C4          0.9241    1.7820    0.7826 C.ar      1 <0>        -0.0956
      5 C5          0.9099    3.1631    0.7758 C.ar      1 <0>        -0.1142
      6 C6         -0.0515    3.8425    0.0387 C.ar      1 <0>         0.1412
      7 C7         -0.9958    3.1298   -0.6897 C.ar      1 <0>        -0.1400
      8 N1         -0.0691    5.2400    0.0299 N.pl3     1 <0>        -0.6104
      9 C8          1.1128    5.9455    0.1271 C.ar      1 <0>         0.4902
     10 C9          1.1197    7.4026    0.2402 C.ar      1 <0>         0.0411
     11 C10         2.3762    8.0486    0.3413 C.ar      1 <0>         0.0866
     12 C11         2.3926    9.4496    0.4569 C.ar      1 <0>         0.2217
     13 N2          1.2395   10.0879    0.4710 N.ar      1 <0>        -0.4756
     14 C12         0.0853    9.4431    0.3796 C.ar      1 <0>         0.3446
     15 N3          0.0089    8.1348    0.2695 N.ar      1 <0>        -0.4624
     16 Cl1        -1.3865   10.3634    0.4055 Cl        1 <0>         0.0388
     17 N4          3.4873    7.3054    0.3176 N.ar      1 <0>        -0.5265
     18 C13         3.4224    6.0008    0.2087 C.ar      1 <0>         0.3595
     19 N5          2.2873    5.3274    0.1157 N.ar      1 <0>        -0.5612
     20 H1         -2.8688    0.7857   -0.8573 H         1 <0>         0.0734
     21 H2         -2.2858    1.5537   -2.3535 H         1 <0>         0.0672
     22 H3         -1.5611    0.0264   -1.7963 H         1 <0>         0.0700
     23 H4         -0.0035   -0.0041    0.0634 H         1 <0>         0.1255
     24 H5          1.6716    1.2531    1.3553 H         1 <0>         0.1289
     25 H6          1.6452    3.7142    1.3434 H         1 <0>         0.1364
     26 H7         -1.7446    3.6550   -1.2640 H         1 <0>         0.1264
     27 H8         -0.9121    5.7139   -0.0444 H         1 <0>         0.4329
     28 H9          3.3255    9.9886    0.5319 H         1 <0>         0.2027
     29 H10         4.3477    5.4441    0.1937 H         1 <0>         0.2093
@<TRIPOS>BOND
     1    1    2 1
     2    1   20 1
     3    1   21 1
     4    1   22 1
     5    2    7 ar
     6    2    3 ar
     7    3    4 ar
     8    3   23 1
     9    4    5 ar
    10    4   24 1
    11    5    6 ar
    12    5   25 1
    13    6    7 ar
    14    6    8 1
    15    7   26 1
    16    8    9 1
    17    8   27 1
    18    9   19 ar
    19    9   10 ar
    20   10   15 ar
    21   10   11 ar
    22   11   12 ar
    23   11   17 ar
    24   12   13 ar
    25   12   28 1
    26   13   14 ar
    27   14   15 ar
    28   14   16 1
    29   17   18 ar
    30   18   19 ar
    31   18   29 1
@<TRIPOS>MOLECULE
ZINC03815339
   40    43     0     0     0
SMALL
USER_CHARGES

@<TRIPOS>ATOM
      1 C1         -3.8674    7.0717   -5.5261 C.3       1 <0>         0.0201
      2 O1         -2.9709    5.9746   -5.7123 O.3       1 <0>        -0.3005
      3 C2         -2.5619    5.3162   -4.5966 C.ar      1 <0>         0.1550
      4 C3         -3.0162    5.7219   -3.3612 C.ar      1 <0>        -0.2053
      5 C4         -2.5931    5.0415   -2.2130 C.ar      1 <0>         0.2231
      6 C5         -1.7039    3.9458   -2.3407 C.ar      1 <0>        -0.2166
      7 C6         -1.2569    3.5534   -3.6081 C.ar      1 <0>        -0.0620
      8 C7         -1.6826    4.2310   -4.7151 C.ar      1 <0>         0.0763
      9 O2         -1.2486    3.8485   -5.9458 O.3       1 <0>        -0.4819
     10 C8         -1.2941    3.2774   -1.1624 C.ar      1 <0>         0.4868
     11 N1         -1.7673    3.7075   -0.0003 N.ar      1 <0>        -0.5991
     12 C9         -2.5931    4.7395    0.0710 C.ar      1 <0>         0.3579
     13 N2         -3.0065    5.3966   -0.9862 N.ar      1 <0>        -0.5591
     14 N3         -0.4302    2.2035   -1.2215 N.pl3     1 <0>        -0.6665
     15 C10        -0.0187    1.5258    0.0104 C.3       1 <0>         0.1026
     16 H1         -0.3072    2.0201    0.9381 H         1 <0>         0.1525
     17 C11         0.0021   -0.0041    0.0020 C.3       1 <0>        -0.1843
     18 C12         1.3165    0.7789   -0.0063 C.3       1 <0>        -0.1272
     19 H2          1.9064    0.7818    0.9103 H         1 <0>         0.1258
     20 C13         2.1077    0.7967   -1.2888 C.ar      1 <0>        -0.0519
     21 C14         1.5617    0.2715   -2.4451 C.ar      1 <0>        -0.1401
     22 C15         2.2858    0.2918   -3.6225 C.ar      1 <0>        -0.1119
     23 C16         3.5594    0.8290   -3.6415 C.ar      1 <0>        -0.1228
     24 C17         4.1074    1.3494   -2.4841 C.ar      1 <0>        -0.1116
     25 C18         3.3816    1.3331   -1.3077 C.ar      1 <0>        -0.1109
     26 H3         -4.7789    6.7183   -5.0440 H         1 <0>         0.0621
     27 H4         -3.3932    7.8259   -4.8982 H         1 <0>         0.0616
     28 H5         -4.1141    7.5076   -6.4942 H         1 <0>         0.1065
     29 H6         -3.6941    6.5586   -3.2788 H         1 <0>         0.1508
     30 H7         -0.5785    2.7193   -3.7100 H         1 <0>         0.1372
     31 H8         -0.4352    4.2874   -6.2299 H         1 <0>         0.3901
     32 H9         -2.9452    5.0522    1.0429 H         1 <0>         0.1966
     33 H10        -0.0951    1.8971   -2.0787 H         1 <0>         0.4125
     34 H11        -0.2728   -0.5162    0.9241 H         1 <0>         0.1126
     35 H12        -0.2904   -0.5063   -0.9201 H         1 <0>         0.1017
     36 H13         0.5682   -0.1516   -2.4294 H         1 <0>         0.1221
     37 H14         1.8575   -0.1145   -4.5269 H         1 <0>         0.1252
     38 H15         4.1261    0.8424   -4.5608 H         1 <0>         0.1239
     39 H16         5.1024    1.7691   -2.4989 H         1 <0>         0.1246
     40 H17         3.8098    1.7397   -0.4033 H         1 <0>         0.1240
@<TRIPOS>BOND
     1    1    2 1
     2    1   26 1
     3    1   27 1
     4    1   28 1
     5    2    3 1
     6    3    8 ar
     7    3    4 ar
     8    4    5 ar
     9    4   29 1
    10    5   13 ar
    11    5    6 ar
    12    6    7 ar
    13    6   10 ar
    14    7    8 ar
    15    7   30 1
    16    8    9 1
    17    9   31 1
    18   10   11 ar
    19   10   14 1
    20   11   12 ar
    21   12   13 ar
    22   12   32 1
    23   14   15 1
    24   14   33 1
    25   15   16 1
    26   15   18 1
    27   15   17 1
    28   17   18 1
    29   17   34 1
    30   17   35 1
    31   18   19 1
    32   18   20 1
    33   20   25 ar
    34   20   21 ar
    35   21   22 ar
    36   21   36 1
    37   22   23 ar
    38   22   37 1
    39   23   24 ar
    40   23   38 1
    41   24   25 ar
    42   24   39 1
    43   25   40 1
@<TRIPOS>MOLECULE
ZINC03815340
   38    41     0     0     0
SMALL
USER_CHARGES

@<TRIPOS>ATOM
      1 C1          5.1987    0.7636   -1.4795 C.3       1 <0>        -0.1574
      2 C2          4.8500    1.1367   -0.0372 C.3       1 <0>         0.1958
      3 H1          4.7078    0.2286    0.5487 H         1 <0>         0.1028
      4 C3          5.9726    1.9475    0.5573 C.ar      1 <0>        -0.0945
      5 C4          6.0818    3.2944    0.2662 C.ar      1 <0>        -0.1179
      6 C5          7.1090    4.0391    0.8150 C.ar      1 <0>        -0.1153
      7 C6          8.0323    3.4349    1.6477 C.ar      1 <0>        -0.1179
      8 C7          7.9261    2.0868    1.9347 C.ar      1 <0>        -0.1138
      9 C8          6.8964    1.3430    1.3893 C.ar      1 <0>        -0.1059
     10 N1          3.6161    1.9261   -0.0217 N.pl3     1 <0>        -0.7091
     11 C9          2.3851    1.2883   -0.0138 C.ar      1 <0>         0.4511
     12 C10         1.1960    2.0301    0.0015 C.ar      1 <0>        -0.0248
     13 C11        -0.0160    1.3287    0.0093 C.ar      1 <0>         0.1711
     14 C12        -1.0827    2.3415    0.0308 C.ar      1 <0>        -0.1109
     15 C13        -2.4752    2.2693    0.0378 C.ar      1 <0>        -0.0353
     16 C14        -3.2205    3.4272    0.0511 C.ar      1 <0>        -0.1566
     17 C15        -2.5917    4.6637    0.0522 C.ar      1 <0>        -0.0665
     18 C16        -1.2172    4.7511    0.0396 C.ar      1 <0>        -0.1502
     19 C17        -0.4451    3.5925    0.0256 C.ar      1 <0>         0.1607
     20 N2          0.9207    3.3844    0.0115 N.pl3     1 <0>        -0.5980
     21 H2          1.5894    4.0870    0.0083 H         1 <0>         0.4162
     22 N3          0.0021   -0.0041    0.0020 N.ar      1 <0>        -0.5188
     23 C18         1.1435   -0.6578   -0.0124 C.ar      1 <0>         0.3159
     24 N4          2.3095   -0.0380   -0.0202 N.ar      1 <0>        -0.5577
     25 H3          6.1168    0.1762   -1.4911 H         1 <0>         0.0691
     26 H4          4.3867    0.1772   -1.9095 H         1 <0>         0.0673
     27 H5          5.3409    1.6717   -2.0654 H         1 <0>         0.0553
     28 H6          5.3627    3.7656   -0.3874 H         1 <0>         0.1163
     29 H7          7.1918    5.0924    0.5911 H         1 <0>         0.1238
     30 H8          8.8364    4.0161    2.0744 H         1 <0>         0.1241
     31 H9          8.6474    1.6147    2.5852 H         1 <0>         0.1260
     32 H10         6.8135    0.2898    1.6134 H         1 <0>         0.1265
     33 H11         3.6602    2.8951   -0.0169 H         1 <0>         0.4037
     34 H12        -2.9676    1.3081    0.0369 H         1 <0>         0.1326
     35 H13        -4.2991    3.3723    0.0603 H         1 <0>         0.1312
     36 H14        -3.1852    5.5660    0.0627 H         1 <0>         0.1327
     37 H15        -0.7380    5.7190    0.0403 H         1 <0>         0.1274
     38 H16         1.1264   -1.7377   -0.0177 H         1 <0>         0.2009
@<TRIPOS>BOND
     1    1    2 1
     2    1   25 1
     3    1   26 1
     4    1   27 1
     5    2    3 1
     6    2    4 1
     7    2   10 1
     8    4    9 ar
     9    4    5 ar
    10    5    6 ar
    11    5   28 1
    12    6    7 ar
    13    6   29 1
    14    7    8 ar
    15    7   30 1
    16    8    9 ar
    17    8   31 1
    18    9   32 1
    19   10   11 1
    20   10   33 1
    21   11   24 ar
    22   11   12 ar
    23   12   20 1
    24   12   13 ar
    25   13   14 1
    26   13   22 ar
    27   14   19 ar
    28   14   15 ar
    29   15   16 ar
    30   15   34 1
    31   16   17 ar
    32   16   35 1
    33   17   18 ar
    34   17   36 1
    35   18   19 ar
    36   18   37 1
    37   19   20 1
    38   20   21 1
    39   22   23 ar
    40   23   24 ar
    41   23   38 1
@<TRIPOS>MOLECULE
ZINC03815341
   37    40     0     0     0
SMALL
USER_CHARGES

@<TRIPOS>ATOM
      1 C1         -0.9806    1.7549   -0.6838 C.ar      1 <0>        -0.0821
      2 C2         -0.9948    3.1364   -0.6924 C.ar      1 <0>        -0.1602
      3 C3         -0.0507    3.8461    0.0392 C.ar      1 <0>         0.1733
      4 C4          0.9065    3.1651    0.7791 C.ar      1 <0>        -0.1410
      5 C5          0.9133    1.7794    0.7899 C.ar      1 <0>         0.1251
      6 C6         -0.0289    1.0756    0.0524 C.ar      1 <0>        -0.1639
      7 O1          1.8452    1.1098    1.5180 O.3       1 <0>        -0.4985
      8 N1         -0.0643    5.2437    0.0299 N.pl3     1 <0>        -0.6448
      9 C7          1.1234    5.9480    0.1268 C.ar      1 <0>         0.4792
     10 C8          1.1223    7.3476    0.2351 C.ar      1 <0>        -0.2431
     11 C9          0.1001    8.3830    0.2940 C.2       1 <0>        -0.1343
     12 C10         0.7370    9.5645    0.4100 C.2       1 <0>         0.0733
     13 N2          2.0892    9.3544    0.4339 N.pl3     1 <0>        -0.5615
     14 H1          2.7589   10.0519    0.5107 H         1 <0>         0.4219
     15 C11         2.3584    8.0159    0.3343 C.ar      1 <0>         0.3448
     16 N3          3.4767    7.2930    0.3121 N.ar      1 <0>        -0.5624
     17 C12         3.4292    5.9830    0.2049 C.ar      1 <0>         0.3556
     18 N4          2.2928    5.3157    0.1141 N.ar      1 <0>        -0.5840
     19 C13         0.0259   10.8951    0.4962 C.3       1 <0>        -0.0546
     20 C14        -1.4170   10.7088    0.0142 C.3       1 <0>        -0.1151
     21 C15        -2.0472    9.5145    0.7363 C.3       1 <0>        -0.1198
     22 C16        -1.3967    8.2187    0.2362 C.3       1 <0>        -0.0538
     23 H2         -1.7151    1.2049   -1.2534 H         1 <0>         0.1309
     24 H3         -1.7399    3.6649   -1.2684 H         1 <0>         0.1261
     25 H4          1.6414    3.7142    1.3490 H         1 <0>         0.1433
     26 H5         -0.0209   -0.0043    0.0577 H         1 <0>         0.1287
     27 H6          2.6590    0.9166    1.0329 H         1 <0>         0.3927
     28 H7         -0.9060    5.7200   -0.0444 H         1 <0>         0.4206
     29 H8          4.3570    5.4303    0.1909 H         1 <0>         0.2019
     30 H9          0.0246   11.2433    1.5291 H         1 <0>         0.0855
     31 H10         0.5327   11.6227   -0.1377 H         1 <0>         0.0812
     32 H11        -1.4202   10.5265   -1.0605 H         1 <0>         0.0701
     33 H12        -1.9916   11.6092    0.2316 H         1 <0>         0.0767
     34 H13        -3.1171    9.4877    0.5298 H         1 <0>         0.0731
     35 H14        -1.8862    9.6116    1.8100 H         1 <0>         0.0682
     36 H15        -1.7048    8.0271   -0.7916 H         1 <0>         0.0758
     37 H16        -1.6989    7.3875    0.8734 H         1 <0>         0.0710
@<TRIPOS>BOND
     1    1    6 ar
     2    1    2 ar
     3    1   23 1
     4    2    3 ar
     5    2   24 1
     6    3    4 ar
     7    3    8 1
     8    4    5 ar
     9    4   25 1
    10    5    6 ar
    11    5    7 1
    12    6   26 1
    13    7   27 1
    14    8    9 1
    15    8   28 1
    16    9   18 ar
    17    9   10 ar
    18   10   15 ar
    19   10   11 1
    20   11   22 1
    21   11   12 2
    22   12   13 1
    23   12   19 1
    24   13   14 1
    25   13   15 1
    26   15   16 ar
    27   16   17 ar
    28   17   18 ar
    29   17   29 1
    30   19   20 1
    31   19   30 1
    32   19   31 1
    33   20   21 1
    34   20   32 1
    35   20   33 1
    36   21   22 1
    37   21   34 1
    38   21   35 1
    39   22   36 1
    40   22   37 1
@<TRIPOS>MOLECULE
ZINC03815342
   38    40     0     0     0
SMALL
USER_CHARGES

@<TRIPOS>ATOM
      1 C1         -0.1619    7.8492    0.0472 C.3       1 <0>         0.0209
      2 O1          1.1124    7.2026    0.0316 O.3       1 <0>        -0.2995
      3 C2          1.1146    5.8427    0.0238 C.ar      1 <0>         0.1109
      4 C3         -0.0716    5.1653    0.0310 C.ar      1 <0>        -0.1493
      5 C4         -0.0704    3.7653    0.0230 C.ar      1 <0>        -0.1825
      6 C5          1.1583    3.0599    0.0075 C.ar      1 <0>         0.2067
      7 C6          2.3622    3.7746    0.0003 C.ar      1 <0>        -0.1838
      8 C7          2.3341    5.1517    0.0089 C.ar      1 <0>         0.1652
      9 O2          3.5007    5.8476    0.0024 O.3       1 <0>        -0.2968
     10 C8          4.7101    5.0865   -0.0128 C.3       1 <0>         0.0198
     11 N1          1.1312    1.7178    0.0005 N.ar      1 <0>        -0.5467
     12 C9         -0.0126    1.0758    0.0080 C.ar      1 <0>         0.3518
     13 N2         -1.1840    1.6921    0.0170 N.ar      1 <0>        -0.5996
     14 C10        -1.2708    3.0156    0.0304 C.ar      1 <0>         0.4719
     15 N3         -2.4985    3.6447    0.0450 N.pl3     1 <0>        -0.4934
     16 N4         -3.6752    2.8843    0.0521 N.pl3     1 <0>        -0.5271
     17 C11        -4.9195    3.5218    0.0669 C.ar      1 <0>         0.2218
     18 C12        -4.9900    4.9090    0.0803 C.ar      1 <0>        -0.1723
     19 C13        -6.2200    5.5373    0.0901 C.ar      1 <0>        -0.0826
     20 C14        -7.3827    4.7856    0.0971 C.ar      1 <0>         0.0536
     21 C15        -7.3152    3.4017    0.0891 C.ar      1 <0>        -0.0163
     22 C16        -6.0862    2.7691    0.0740 C.ar      1 <0>        -0.1526
     23 Cl1        -8.7748    2.4619    0.0974 Cl        1 <0>        -0.0388
     24 F1         -8.5846    5.4024    0.1114 F         1 <0>        -0.1284
     25 H1         -0.7267    7.5605   -0.8392 H         1 <0>         0.0572
     26 H2         -0.7101    7.5503    0.9407 H         1 <0>         0.0572
     27 H3         -0.0208    8.9300    0.0521 H         1 <0>         0.1077
     28 H4         -1.0058    5.7071    0.0425 H         1 <0>         0.1361
     29 H5          3.3061    3.2499   -0.0112 H         1 <0>         0.1570
     30 H6          4.7519    4.4530    0.8732 H         1 <0>         0.0626
     31 H7          4.7359    4.4632   -0.9066 H         1 <0>         0.0626
     32 H8          5.5650    5.7627   -0.0166 H         1 <0>         0.1077
     33 H9          0.0021   -0.0041    0.0020 H         1 <0>         0.1984
     34 H10        -2.5471    4.6135    0.0503 H         1 <0>         0.4330
     35 H11        -3.6266    1.9155    0.0468 H         1 <0>         0.4423
     36 H12        -4.0835    5.4960    0.0789 H         1 <0>         0.1279
     37 H13        -6.2747    6.6159    0.0967 H         1 <0>         0.1489
     38 H14        -6.0335    1.6904    0.0680 H         1 <0>         0.1485
@<TRIPOS>BOND
     1    1    2 1
     2    1   25 1
     3    1   26 1
     4    1   27 1
     5    2    3 1
     6    3    8 ar
     7    3    4 ar
     8    4    5 ar
     9    4   28 1
    10    5   14 ar
    11    5    6 ar
    12    6    7 ar
    13    6   11 ar
    14    7    8 ar
    15    7   29 1
    16    8    9 1
    17    9   10 1
    18   10   30 1
    19   10   31 1
    20   10   32 1
    21   11   12 ar
    22   12   13 ar
    23   12   33 1
    24   13   14 ar
    25   14   15 1
    26   15   16 1
    27   15   34 1
    28   16   17 1
    29   16   35 1
    30   17   22 ar
    31   17   18 ar
    32   18   19 ar
    33   18   36 1
    34   19   20 ar
    35   19   37 1
    36   20   21 ar
    37   20   24 1
    38   21   22 ar
    39   21   23 1
    40   22   38 1
@<TRIPOS>MOLECULE
ZINC03815343
   30    32     0     0     0
SMALL
USER_CHARGES

@<TRIPOS>ATOM
      1 C1         -6.0203    2.6432    0.3634 C.ar      1 <0>        -0.0918
      2 C2         -4.8620    3.3893    0.4623 C.ar      1 <0>        -0.1341
      3 C3         -3.6714    2.8929   -0.0528 C.ar      1 <0>         0.1607
      4 C4         -3.6506    1.6490   -0.6710 C.ar      1 <0>        -0.0858
      5 C5         -4.8116    0.9055   -0.7626 C.ar      1 <0>        -0.0705
      6 C6         -5.9959    1.4033   -0.2477 C.ar      1 <0>        -0.1084
      7 Br1        -4.7839   -0.7904   -1.5986 Br        1 <0>        -0.0450
      8 N1         -2.4979    3.6458    0.0455 N.pl3     1 <0>        -0.6383
      9 C7         -1.2810    3.0112    0.1919 C.ar      1 <0>         0.4530
     10 C8         -0.0703    3.7466    0.1763 C.ar      1 <0>        -0.1398
     11 C9         -0.0483    5.1368    0.0131 C.ar      1 <0>        -0.1477
     12 C10         1.1437    5.7994    0.0046 C.ar      1 <0>        -0.0635
     13 C11         2.3449    5.1145    0.1559 C.ar      1 <0>        -0.1899
     14 C12         2.3611    3.7446    0.3189 C.ar      1 <0>         0.2391
     15 C13         1.1439    3.0369    0.3314 C.ar      1 <0>         0.1310
     16 N2          1.0982    1.7060    0.4857 N.ar      1 <0>        -0.5343
     17 C14        -0.0524    1.0762    0.4923 C.ar      1 <0>         0.3262
     18 N3         -1.2130    1.6959    0.3455 N.ar      1 <0>        -0.5725
     19 N4          3.5718    3.0672    0.4701 N.pl3     1 <0>        -0.8546
     20 H1         -6.9462    3.0292    0.7635 H         1 <0>         0.1368
     21 H2         -4.8820    4.3576    0.9402 H         1 <0>         0.1317
     22 H3         -2.7274    1.2622   -1.0765 H         1 <0>         0.1478
     23 H4         -6.9030    0.8221   -0.3237 H         1 <0>         0.1341
     24 H5         -2.5387    4.6143    0.0109 H         1 <0>         0.4236
     25 H6         -0.9725    5.6829   -0.1059 H         1 <0>         0.1224
     26 H7          1.1551    6.8720   -0.1213 H         1 <0>         0.1302
     27 H8          3.2760    5.6616    0.1458 H         1 <0>         0.1311
     28 H9         -0.0526    0.0036    0.6188 H         1 <0>         0.1961
     29 H10         3.5776    2.1039    0.5845 H         1 <0>         0.4103
     30 H11         4.4075    3.5595    0.4608 H         1 <0>         0.4022
@<TRIPOS>BOND
     1    1    6 ar
     2    1    2 ar
     3    1   20 1
     4    2    3 ar
     5    2   21 1
     6    3    4 ar
     7    3    8 1
     8    4    5 ar
     9    4   22 1
    10    5    6 ar
    11    5    7 1
    12    6   23 1
    13    8    9 1
    14    8   24 1
    15    9   18 ar
    16    9   10 ar
    17   10   15 ar
    18   10   11 ar
    19   11   12 ar
    20   11   25 1
    21   12   13 ar
    22   12   26 1
    23   13   14 ar
    24   13   27 1
    25   14   15 ar
    26   14   19 1
    27   15   16 ar
    28   16   17 ar
    29   17   18 ar
    30   17   28 1
    31   19   29 1
    32   19   30 1
@<TRIPOS>MOLECULE
ZINC03815344
   39    42     0     0     0
SMALL
USER_CHARGES

@<TRIPOS>ATOM
      1 C1          2.4816   -4.2588   -0.7453 C.3       1 <0>         0.0216
      2 O1          1.0961   -3.9713   -0.5465 O.3       1 <0>        -0.3014
      3 C2          0.7514   -2.6630   -0.4003 C.ar      1 <0>         0.0996
      4 C3          1.7271   -1.6979   -0.4495 C.ar      1 <0>        -0.1049
      5 C4          1.3981   -0.3308   -0.3004 C.ar      1 <0>        -0.0871
      6 C5          0.0425   -0.0199   -0.1035 C.ar      1 <0>        -0.0718
      7 C6         -0.9361   -0.9915   -0.0549 C.ar      1 <0>        -0.1476
      8 C7         -0.5884   -2.3238   -0.2033 C.ar      1 <0>         0.1555
      9 O2         -1.5421   -3.2915   -0.1580 O.3       1 <0>        -0.2925
     10 C8         -2.8904   -2.8645    0.0466 C.3       1 <0>         0.0196
     11 S1          0.0087    1.7494    0.0391 S.3       1 <0>         0.0886
     12 C9          1.7382    2.0804   -0.1552 C.ar      1 <0>        -0.2813
     13 C10         2.3224    0.8193   -0.3281 C.ar      1 <0>         0.2268
     14 N1          3.6633    0.8042   -0.5004 N.ar      1 <0>        -0.5285
     15 C11         4.3626    1.9114   -0.5032 C.ar      1 <0>         0.3431
     16 N2          3.8276    3.1076   -0.3417 N.ar      1 <0>        -0.5468
     17 C12         2.5124    3.2322   -0.1641 C.ar      1 <0>         0.4843
     18 N3          1.9325    4.4808    0.0077 N.pl3     1 <0>        -0.6434
     19 C13         2.7390    5.6175    0.1116 C.ar      1 <0>         0.1611
     20 C14         2.2892    6.8374   -0.3784 C.ar      1 <0>        -0.1329
     21 C15         3.0880    7.9589   -0.2739 C.ar      1 <0>        -0.0904
     22 C16         4.3348    7.8693    0.3177 C.ar      1 <0>        -0.1074
     23 C17         4.7862    6.6563    0.8068 C.ar      1 <0>        -0.0697
     24 C18         3.9893    5.5312    0.7100 C.ar      1 <0>        -0.0881
     25 Br1         6.4918    6.5393    1.6148 Br        1 <0>        -0.0435
     26 H1          2.6184   -5.3354   -0.8469 H         1 <0>         0.1058
     27 H2          2.8297   -3.7613   -1.6506 H         1 <0>         0.0587
     28 H3          3.0537   -3.8989    0.1098 H         1 <0>         0.0588
     29 H4          2.7565   -1.9861   -0.6031 H         1 <0>         0.1510
     30 H5         -1.9687   -0.7142    0.0979 H         1 <0>         0.1524
     31 H6         -2.9639   -2.3360    0.9971 H         1 <0>         0.0609
     32 H7         -3.1874   -2.1983   -0.7634 H         1 <0>         0.0608
     33 H8         -3.5483   -3.7334    0.0621 H         1 <0>         0.1078
     34 H9          5.4310    1.8426   -0.6453 H         1 <0>         0.2054
     35 H10         0.9674    4.5649    0.0557 H         1 <0>         0.4237
     36 H11         1.3158    6.9083   -0.8409 H         1 <0>         0.1322
     37 H12         2.7384    8.9073   -0.6544 H         1 <0>         0.1377
     38 H13         4.9573    8.7482    0.3984 H         1 <0>         0.1350
     39 H14         4.3400    4.5854    1.0958 H         1 <0>         0.1469
@<TRIPOS>BOND
     1    1    2 1
     2    1   26 1
     3    1   27 1
     4    1   28 1
     5    2    3 1
     6    3    8 ar
     7    3    4 ar
     8    4    5 ar
     9    4   29 1
    10    5   13 1
    11    5    6 ar
    12    6    7 ar
    13    6   11 1
    14    7    8 ar
    15    7   30 1
    16    8    9 1
    17    9   10 1
    18   10   31 1
    19   10   32 1
    20   10   33 1
    21   11   12 1
    22   12   17 ar
    23   12   13 ar
    24   13   14 ar
    25   14   15 ar
    26   15   16 ar
    27   15   34 1
    28   16   17 ar
    29   17   18 1
    30   18   19 1
    31   18   35 1
    32   19   24 ar
    33   19   20 ar
    34   20   21 ar
    35   20   36 1
    36   21   22 ar
    37   21   37 1
    38   22   23 ar
    39   22   38 1
    40   23   24 ar
    41   23   25 1
    42   24   39 1
@<TRIPOS>MOLECULE
ZINC03815345
   45    47     0     0     0
SMALL
USER_CHARGES

@<TRIPOS>ATOM
      1 C1         -4.5485    1.9602   -6.0776 C.3       1 <0>        -0.1661
      2 C2         -3.1559    1.3311   -5.9996 C.3       1 <0>         0.1881
      3 C3         -2.2974    1.8479   -7.1558 C.3       1 <0>        -0.1552
      4 C4         -3.2778   -0.1910   -6.0954 C.3       1 <0>        -0.1661
      5 N1         -2.5280    1.6915   -4.7260 N.am      1 <0>        -0.7355
      6 C5         -3.1107    1.3377   -3.5634 C.2       1 <0>         0.6920
      7 O1         -4.1574    0.7195   -3.5715 O.2       1 <0>        -0.5027
      8 N2         -2.5330    1.6692   -2.3917 N.am      1 <0>        -0.6602
      9 C6         -3.1329    1.3050   -1.1949 C.ar      1 <0>         0.4841
     10 C7         -2.5145    1.6602    0.0229 C.ar      1 <0>        -0.1701
     11 C8         -3.1074    1.2933    1.2204 C.ar      1 <0>         0.0511
     12 C9         -4.3186    0.5841    1.1654 C.ar      1 <0>        -0.2952
     13 C10        -4.9933    0.1754    2.3286 C.ar      1 <0>         0.2665
     14 N3         -6.1228   -0.4907    2.1988 N.ar      1 <0>        -0.5712
     15 C11        -6.6252   -0.7770    0.9997 C.ar      1 <0>         0.5963
     16 N4         -6.0348   -0.4190   -0.1247 N.ar      1 <0>        -0.5645
     17 C12        -4.8821    0.2616   -0.0970 C.ar      1 <0>         0.4321
     18 N5         -4.2668    0.6349   -1.2206 N.ar      1 <0>        -0.4746
     19 N6         -7.8138   -1.4786    0.9296 N.pl3     1 <0>        -0.8106
     20 C13        -1.2380    2.4142    0.0210 C.ar      1 <0>        -0.0377
     21 C14        -1.2484    3.8090    0.0341 C.ar      1 <0>        -0.0135
     22 C15        -0.0556    4.5057    0.0264 C.ar      1 <0>        -0.1049
     23 C16         1.1473    3.8231    0.0117 C.ar      1 <0>        -0.0845
     24 C17         1.1644    2.4401    0.0040 C.ar      1 <0>        -0.1049
     25 C18        -0.0215    1.7317    0.0116 C.ar      1 <0>        -0.0137
     26 Cl1         0.0021   -0.0041    0.0020 Cl        1 <0>        -0.0426
     27 Cl2        -2.7571    4.6675    0.0520 Cl        1 <0>        -0.0425
     28 H1         -4.4616    3.0446   -6.0093 H         1 <0>         0.0526
     29 H2         -5.0157    1.6920   -7.0252 H         1 <0>         0.0639
     30 H3         -5.1601    1.5921   -5.2539 H         1 <0>         0.0816
     31 H4         -1.3053    1.3997   -7.1002 H         1 <0>         0.0622
     32 H5         -2.7646    1.5797   -8.1033 H         1 <0>         0.0765
     33 H6         -2.2106    2.9322   -7.0875 H         1 <0>         0.0622
     34 H7         -3.8894   -0.5591   -5.2717 H         1 <0>         0.0816
     35 H8         -3.7450   -0.4591   -7.0430 H         1 <0>         0.0639
     36 H9         -2.2857   -0.6391   -6.0398 H         1 <0>         0.0526
     37 H10        -1.6928    2.1848   -4.7195 H         1 <0>         0.3936
     38 H11        -1.6978    2.1625   -2.3852 H         1 <0>         0.4113
     39 H12        -2.6543    1.5483    2.1670 H         1 <0>         0.1511
     40 H13        -4.5950    0.4022    3.3065 H         1 <0>         0.1806
     41 H14        -8.1973   -1.6980    0.0661 H         1 <0>         0.4185
     42 H15        -8.2645   -1.7516    1.7440 H         1 <0>         0.4170
     43 H16        -0.0624    5.5856    0.0323 H         1 <0>         0.1451
     44 H17         2.0771    4.3724    0.0058 H         1 <0>         0.1465
     45 H18         2.1069    1.9129   -0.0075 H         1 <0>         0.1451
@<TRIPOS>BOND
     1    1    2 1
     2    1   28 1
     3    1   29 1
     4    1   30 1
     5    2    3 1
     6    2    4 1
     7    2    5 1
     8    3   31 1
     9    3   32 1
    10    3   33 1
    11    4   34 1
    12    4   35 1
    13    4   36 1
    14    5    6 am
    15    5   37 1
    16    6    7 2
    17    6    8 am
    18    8    9 1
    19    8   38 1
    20    9   18 ar
    21    9   10 ar
    22   10   11 ar
    23   10   20 1
    24   11   12 ar
    25   11   39 1
    26   12   17 ar
    27   12   13 ar
    28   13   14 ar
    29   13   40 1
    30   14   15 ar
    31   15   16 ar
    32   15   19 1
    33   16   17 ar
    34   17   18 ar
    35   19   41 1
    36   19   42 1
    37   20   25 ar
    38   20   21 ar
    39   21   22 ar
    40   21   27 1
    41   22   23 ar
    42   22   43 1
    43   23   24 ar
    44   23   44 1
    45   24   25 ar
    46   24   45 1
    47   25   26 1
@<TRIPOS>MOLECULE
ZINC03815347
   36    39     0     0     0
SMALL
USER_CHARGES

@<TRIPOS>ATOM
      1 C1         -9.6971    2.3516    0.3959 C.ar      1 <0>        -0.0955
      2 C2         -9.9565    1.1361   -0.2111 C.ar      1 <0>        -0.0860
      3 C3         -8.9183    0.3804   -0.7239 C.ar      1 <0>        -0.1606
      4 C4         -7.6188    0.8400   -0.6367 C.ar      1 <0>        -0.0658
      5 C5         -7.3542    2.0575   -0.0228 C.ar      1 <0>         0.1513
      6 C6         -8.3996    2.8143    0.4915 C.ar      1 <0>        -0.1130
      7 N1         -6.0397    2.5229    0.0723 N.pl3     1 <0>        -0.6408
      8 C7         -4.9942    1.6231    0.2178 C.ar      1 <0>         0.4893
      9 C8         -3.6745    2.0553    0.1995 C.ar      1 <0>        -0.2844
     10 C9         -2.6184    1.1480    0.3458 C.ar      1 <0>         0.2245
     11 C10        -1.2602    1.7246    0.3042 C.ar      1 <0>        -0.0887
     12 C11        -0.0322    1.0381    0.4324 C.ar      1 <0>         0.0242
     13 C12         1.1572    1.7176    0.3792 C.ar      1 <0>        -0.0516
     14 C13         1.1929    3.0936    0.2035 C.ar      1 <0>        -0.0172
     15 C14         0.0093    3.7935    0.0802 C.ar      1 <0>        -0.0772
     16 C15        -1.1933    3.1172    0.1331 C.ar      1 <0>        -0.0499
     17 S1         -2.8880    3.6325    0.0192 S.3       1 <0>         0.1309
     18 N2          2.4275    0.9692    0.5111 N.pl3     1 <0>         0.0262
     19 O1          2.4094   -0.2388    0.6653 O.2       1 <0>        -0.1513
     20 O2          3.4908    1.5615    0.4655 O.3       1 <0>        -0.1483
     21 N3         -2.9670   -0.1490    0.5026 N.ar      1 <0>        -0.5229
     22 C16        -4.2221   -0.5209    0.5149 C.ar      1 <0>         0.3534
     23 N4         -5.2300    0.3215    0.3783 N.ar      1 <0>        -0.5431
     24 C17        -9.2058   -0.9433   -1.3844 C.3       1 <0>         0.5094
     25 F1        -10.5828   -1.1888   -1.3572 F         1 <0>        -0.1753
     26 F2         -8.7645   -0.9079   -2.7115 F         1 <0>        -0.1762
     27 F3         -8.5369   -1.9622   -0.6975 F         1 <0>        -0.1722
     28 H1        -10.5103    2.9395    0.7951 H         1 <0>         0.1426
     29 H2        -10.9722    0.7766   -0.2848 H         1 <0>         0.1424
     30 H3         -6.8088    0.2514   -1.0415 H         1 <0>         0.1467
     31 H4         -8.1978    3.7633    0.9659 H         1 <0>         0.1367
     32 H5         -5.8586    3.4752    0.0366 H         1 <0>         0.4254
     33 H6         -0.0303   -0.0332    0.5693 H         1 <0>         0.1679
     34 H7          2.1390    3.6129    0.1638 H         1 <0>         0.1721
     35 H8          0.0240    4.8647   -0.0566 H         1 <0>         0.1653
     36 H9         -4.4446   -1.5698    0.6437 H         1 <0>         0.2117
@<TRIPOS>BOND
     1    1    6 ar
     2    1    2 ar
     3    1   28 1
     4    2    3 ar
     5    2   29 1
     6    3    4 ar
     7    3   24 1
     8    4    5 ar
     9    4   30 1
    10    5    6 ar
    11    5    7 1
    12    6   31 1
    13    7    8 1
    14    7   32 1
    15    8   23 ar
    16    8    9 ar
    17    9   17 1
    18    9   10 ar
    19   10   11 1
    20   10   21 ar
    21   11   16 ar
    22   11   12 ar
    23   12   13 ar
    24   12   33 1
    25   13   14 ar
    26   13   18 1
    27   14   15 ar
    28   14   34 1
    29   15   16 ar
    30   15   35 1
    31   16   17 1
    32   18   19 2
    33   18   20 1
    34   21   22 ar
    35   22   23 ar
    36   22   36 1
    37   24   25 1
    38   24   26 1
    39   24   27 1
@<TRIPOS>MOLECULE
ZINC03815348
   38    40     0     0     0
SMALL
USER_CHARGES

@<TRIPOS>ATOM
      1 C1          7.1493    4.0881   -0.2648 C.3       1 <0>         0.0230
      2 O1          7.1394    5.5135   -0.3645 O.3       1 <0>        -0.3030
      3 C2          5.9249    6.1256   -0.3441 C.ar      1 <0>         0.0881
      4 C3          4.7908    5.3725   -0.2324 C.ar      1 <0>        -0.1293
      5 C4          3.5401    6.0013   -0.2063 C.ar      1 <0>        -0.2243
      6 C5          3.4572    7.4120   -0.3065 C.ar      1 <0>         0.2500
      7 C6          4.6323    8.1643   -0.4204 C.ar      1 <0>        -0.2010
      8 C7          5.8510    7.5218   -0.4384 C.ar      1 <0>         0.1749
      9 O2          6.9928    8.2494   -0.5492 O.3       1 <0>        -0.2978
     10 C8          6.8515    9.6683   -0.6421 C.3       1 <0>         0.0209
     11 N1          2.2463    7.9915   -0.2840 N.ar      1 <0>        -0.6008
     12 C9          1.1563    7.2567   -0.1754 C.ar      1 <0>         0.6086
     13 N2          1.1896    5.9302   -0.0835 N.ar      1 <0>        -0.6160
     14 C10         2.3356    5.2647   -0.0966 C.ar      1 <0>         0.5018
     15 N3          2.3550    3.8878   -0.0000 N.pl3     1 <0>        -0.6393
     16 C11         1.1558    3.1696   -0.0088 C.ar      1 <0>         0.1618
     17 C12         0.0742    3.6299   -0.7495 C.ar      1 <0>        -0.0964
     18 C13        -1.1094    2.9186   -0.7560 C.ar      1 <0>        -0.0934
     19 C14        -1.2211    1.7520   -0.0218 C.ar      1 <0>        -0.1059
     20 C15        -0.1443    1.2875    0.7124 C.ar      1 <0>        -0.0704
     21 C16         1.0430    1.9949    0.7231 C.ar      1 <0>        -0.1218
     22 Br1        -0.3000   -0.3121    1.7089 Br        1 <0>        -0.0449
     23 N4         -0.0729    7.8922   -0.1558 N.pl3     1 <0>        -0.8183
     24 H1          6.5924    3.6616   -1.0992 H         1 <0>         0.0556
     25 H2          8.1780    3.7289   -0.2933 H         1 <0>         0.1048
     26 H3          6.6850    3.7863    0.6740 H         1 <0>         0.0554
     27 H4          4.8587    4.2970   -0.1600 H         1 <0>         0.1358
     28 H5          4.5839    9.2408   -0.4932 H         1 <0>         0.1531
     29 H6          7.8368   10.1269   -0.7257 H         1 <0>         0.1059
     30 H7          6.2588    9.9176   -1.5222 H         1 <0>         0.0616
     31 H8          6.3511   10.0428    0.2509 H         1 <0>         0.0615
     32 H9          3.2008    3.4187    0.0740 H         1 <0>         0.4218
     33 H10         0.1591    4.5430   -1.3199 H         1 <0>         0.1433
     34 H11        -1.9503    3.2762   -1.3316 H         1 <0>         0.1359
     35 H12        -2.1494    1.2000   -0.0251 H         1 <0>         0.1343
     36 H13         1.8819    1.6346    1.3001 H         1 <0>         0.1345
     37 H14        -0.8871    7.3711   -0.0763 H         1 <0>         0.4133
     38 H15        -0.1202    8.8588   -0.2215 H         1 <0>         0.4163
@<TRIPOS>BOND
     1    1    2 1
     2    1   24 1
     3    1   25 1
     4    1   26 1
     5    2    3 1
     6    3    8 ar
     7    3    4 ar
     8    4    5 ar
     9    4   27 1
    10    5   14 ar
    11    5    6 ar
    12    6    7 ar
    13    6   11 ar
    14    7    8 ar
    15    7   28 1
    16    8    9 1
    17    9   10 1
    18   10   29 1
    19   10   30 1
    20   10   31 1
    21   11   12 ar
    22   12   13 ar
    23   12   23 1
    24   13   14 ar
    25   14   15 1
    26   15   16 1
    27   15   32 1
    28   16   21 ar
    29   16   17 ar
    30   17   18 ar
    31   17   33 1
    32   18   19 ar
    33   18   34 1
    34   19   20 ar
    35   19   35 1
    36   20   21 ar
    37   20   22 1
    38   21   36 1
    39   23   37 1
    40   23   38 1
@<TRIPOS>MOLECULE
ZINC03815349
   44    47     0     0     0
SMALL
USER_CHARGES

@<TRIPOS>ATOM
      1 C1          1.2198   -2.1877    0.0271 C.3       1 <0>        -0.1150
      2 C2          1.2045   -0.6808    0.0223 C.ar      1 <0>        -0.0978
      3 C3          2.1341    0.0209    0.7678 C.ar      1 <0>        -0.1016
      4 C4          2.1229    1.4019    0.7657 C.ar      1 <0>        -0.1041
      5 C5          1.1767    2.0861    0.0133 C.ar      1 <0>         0.1482
      6 C6          0.2449    1.3782   -0.7351 C.ar      1 <0>        -0.1384
      7 C7          0.2612   -0.0028   -0.7279 C.ar      1 <0>        -0.1006
      8 N1          1.1623    3.4840    0.0092 N.pl3     1 <0>        -0.6254
      9 C8          2.3476    4.1875    0.1060 C.ar      1 <0>         0.6088
     10 N2          3.4938    3.5155    0.0896 N.ar      1 <0>        -0.5670
     11 C9          4.6530    4.1397    0.1791 C.ar      1 <0>         0.2645
     12 C10         4.6556    5.5384    0.2928 C.ar      1 <0>        -0.2777
     13 C11         5.8653    6.2630    0.3917 C.2       1 <0>         0.0312
     14 C12         5.8151    7.6269    0.5004 C.2       1 <0>        -0.1646
     15 C13         4.5143    8.2997    0.5121 C.2       1 <0>         0.5569
     16 O1          4.4604    9.5129    0.6086 O.2       1 <0>        -0.5018
     17 N3          3.3774    7.5840    0.4164 N.am      1 <0>        -0.5059
     18 C14         3.4181    6.2169    0.3067 C.ar      1 <0>         0.4666
     19 N4          2.2998    5.5067    0.2062 N.ar      1 <0>        -0.5969
     20 C15         2.0841    8.2721    0.4292 C.3       1 <0>         0.0700
     21 C16         7.0653    8.4149    0.6052 C.ar      1 <0>        -0.0100
     22 C17         7.6140    8.6952    1.8572 C.ar      1 <0>        -0.0064
     23 C18         8.7828    9.4255    1.9477 C.ar      1 <0>        -0.1065
     24 C19         9.4031    9.8885    0.8012 C.ar      1 <0>        -0.0875
     25 C20         8.8613    9.6190   -0.4426 C.ar      1 <0>        -0.1064
     26 C21         7.6960    8.8850   -0.5473 C.ar      1 <0>        -0.0065
     27 Cl1         7.0173    8.5483   -2.1093 Cl        1 <0>        -0.0503
     28 Cl2         6.8332    8.1212    3.2975 Cl        1 <0>        -0.0503
     29 H1          0.5824   -2.5550    0.8314 H         1 <0>         0.0702
     30 H2          0.8485   -2.5578   -0.9286 H         1 <0>         0.0661
     31 H3          2.2395   -2.5402    0.1818 H         1 <0>         0.0667
     32 H4          2.8695   -0.5116    1.3526 H         1 <0>         0.1258
     33 H5          2.8462    1.9493    1.3519 H         1 <0>         0.1345
     34 H6         -0.4918    1.9071   -1.3215 H         1 <0>         0.1253
     35 H7         -0.4635   -0.5538   -1.3090 H         1 <0>         0.1267
     36 H8          0.3201    3.9601   -0.0615 H         1 <0>         0.4261
     37 H9          5.5801    3.5859    0.1646 H         1 <0>         0.1881
     38 H10         6.8148    5.7485    0.3816 H         1 <0>         0.1504
     39 H11         1.7292    8.3596    1.4561 H         1 <0>         0.0745
     40 H12         2.1975    9.2668   -0.0020 H         1 <0>         0.0922
     41 H13         1.3634    7.7020   -0.1570 H         1 <0>         0.0949
     42 H14         9.2110    9.6394    2.9158 H         1 <0>         0.1437
     43 H15        10.3143   10.4632    0.8777 H         1 <0>         0.1454
     44 H16         9.3503    9.9837   -1.3339 H         1 <0>         0.1438
@<TRIPOS>BOND
     1    1    2 1
     2    1   29 1
     3    1   30 1
     4    1   31 1
     5    2    7 ar
     6    2    3 ar
     7    3    4 ar
     8    3   32 1
     9    4    5 ar
    10    4   33 1
    11    5    6 ar
    12    5    8 1
    13    6    7 ar
    14    6   34 1
    15    7   35 1
    16    8    9 1
    17    8   36 1
    18    9   19 ar
    19    9   10 ar
    20   10   11 ar
    21   11   12 ar
    22   11   37 1
    23   12   18 ar
    24   12   13 1
    25   13   14 2
    26   13   38 1
    27   14   15 1
    28   14   21 1
    29   15   16 2
    30   15   17 am
    31   17   18 1
    32   17   20 1
    33   18   19 ar
    34   20   39 1
    35   20   40 1
    36   20   41 1
    37   21   26 ar
    38   21   22 ar
    39   22   23 ar
    40   22   28 1
    41   23   24 ar
    42   23   42 1
    43   24   25 ar
    44   24   43 1
    45   25   26 ar
    46   25   44 1
    47   26   27 1
@<TRIPOS>MOLECULE
ZINC03815350
   43    46     0     0     0
SMALL
USER_CHARGES

@<TRIPOS>ATOM
      1 C1         -4.1948    2.7952    1.5249 C.3       1 <0>        -0.1629
      2 C2         -3.6608    3.2387    0.1614 C.3       1 <0>         0.0967
      3 N1         -2.4147    3.9870    0.3449 N.am      1 <0>        -0.5025
      4 C3         -1.2157    3.3200    0.3436 C.ar      1 <0>         0.4674
      5 C4         -0.0058    4.0261    0.5186 C.ar      1 <0>        -0.2723
      6 C5         -0.0199    5.4284    0.6969 C.2       1 <0>         0.0275
      7 C6         -1.2211    6.0853    0.6968 C.2       1 <0>        -0.1599
      8 C7         -2.4578    5.3227    0.5127 C.2       1 <0>         0.5573
      9 O1         -3.5308    5.8994    0.5108 O.2       1 <0>        -0.4989
     10 C8         -1.2695    7.5545    0.8818 C.ar      1 <0>        -0.0115
     11 C9         -1.3816    8.0962    2.1629 C.ar      1 <0>        -0.0063
     12 C10        -1.4214    9.4667    2.3288 C.ar      1 <0>        -0.1063
     13 C11        -1.3609   10.3018    1.2276 C.ar      1 <0>        -0.0868
     14 C12        -1.2551    9.7711   -0.0454 C.ar      1 <0>        -0.1062
     15 C13        -1.2090    8.4025   -0.2248 C.ar      1 <0>        -0.0063
     16 Cl1        -1.0766    7.7385   -1.8233 Cl        1 <0>        -0.0501
     17 Cl2        -1.4649    7.0498    3.5456 Cl        1 <0>        -0.0502
     18 C14         1.1983    3.3063    0.5105 C.ar      1 <0>         0.2640
     19 N2          1.1513    1.9983    0.3395 N.ar      1 <0>        -0.5681
     20 C15        -0.0062    1.3671    0.1777 C.ar      1 <0>         0.6071
     21 N3         -1.1672    2.0036    0.1731 N.ar      1 <0>        -0.5905
     22 N4          0.0021   -0.0041    0.0020 N.pl3     1 <0>        -0.6250
     23 C16         1.2127   -0.6839   -0.1184 C.ar      1 <0>         0.2033
     24 C17         2.3106   -0.0859   -0.7361 C.ar      1 <0>        -0.1666
     25 C18         3.4921   -0.7909   -0.8314 C.ar      1 <0>         0.1182
     26 N5          3.5878   -2.0184   -0.3559 N.ar      1 <0>        -0.4968
     27 C19         2.5705   -2.6203    0.2311 C.ar      1 <0>         0.1208
     28 C20         1.3559   -1.9820    0.3705 C.ar      1 <0>        -0.2011
     29 H1         -4.3854    3.6723    2.1432 H         1 <0>         0.0611
     30 H2         -5.1219    2.2385    1.3884 H         1 <0>         0.0777
     31 H3         -3.4576    2.1588    2.0143 H         1 <0>         0.0593
     32 H4         -4.3980    3.8751   -0.3281 H         1 <0>         0.0987
     33 H5         -3.4702    2.3616   -0.4570 H         1 <0>         0.1011
     34 H6          0.9028    5.9732    0.8316 H         1 <0>         0.1514
     35 H7         -1.5040    9.8874    3.3201 H         1 <0>         0.1440
     36 H8         -1.3970   11.3727    1.3624 H         1 <0>         0.1457
     37 H9         -1.2080   10.4286   -0.9010 H         1 <0>         0.1440
     38 H10         2.1438    3.8117    0.6409 H         1 <0>         0.1897
     39 H11        -0.8347   -0.4930   -0.0374 H         1 <0>         0.4294
     40 H12         2.2377    0.9167   -1.1311 H         1 <0>         0.1459
     41 H13         4.3487   -0.3343   -1.3049 H         1 <0>         0.1595
     42 H14         2.6905   -3.6258    0.6068 H         1 <0>         0.1604
     43 H15         0.5272   -2.4805    0.8513 H         1 <0>         0.1378
@<TRIPOS>BOND
     1    1    2 1
     2    1   29 1
     3    1   30 1
     4    1   31 1
     5    2    3 1
     6    2   32 1
     7    2   33 1
     8    3    8 am
     9    3    4 1
    10    4   21 ar
    11    4    5 ar
    12    5    6 1
    13    5   18 ar
    14    6    7 2
    15    6   34 1
    16    7    8 1
    17    7   10 1
    18    8    9 2
    19   10   15 ar
    20   10   11 ar
    21   11   12 ar
    22   11   17 1
    23   12   13 ar
    24   12   35 1
    25   13   14 ar
    26   13   36 1
    27   14   15 ar
    28   14   37 1
    29   15   16 1
    30   18   19 ar
    31   18   38 1
    32   19   20 ar
    33   20   21 ar
    34   20   22 1
    35   22   23 1
    36   22   39 1
    37   23   28 ar
    38   23   24 ar
    39   24   25 ar
    40   24   40 1
    41   25   26 ar
    42   25   41 1
    43   26   27 ar
    44   27   28 ar
    45   27   42 1
    46   28   43 1
@<TRIPOS>MOLECULE
ZINC03815351
   40    43     0     0     0
SMALL
USER_CHARGES

@<TRIPOS>ATOM
      1 C1         -3.6191    2.9930    0.0509 C.3       1 <0>         0.0260
      2 O1         -2.4356    3.7939    0.0439 O.3       1 <0>        -0.3160
      3 C2         -1.2460    3.1368    0.0299 C.ar      1 <0>         0.1365
      4 C3         -1.2200    1.7486    0.0173 C.ar      1 <0>        -0.2093
      5 C4         -0.0126    1.0758    0.0080 C.ar      1 <0>        -0.0708
      6 C5          1.1746    1.7803    0.0004 C.ar      1 <0>        -0.1642
      7 C6          1.1574    3.1745    0.0076 C.ar      1 <0>         0.0299
      8 C7         -0.0603    3.8520    0.0224 C.ar      1 <0>        -0.1416
      9 C8          2.4306    3.9337    0.0000 C.2       1 <0>        -0.0968
     10 C9          2.7639    4.9492   -0.8343 C.2       1 <0>         0.0657
     11 N1          4.0212    5.3998   -0.5311 N.pl3     1 <0>        -0.4083
     12 C10         4.5458    4.6770    0.5094 C.ar      1 <0>         0.3517
     13 C11         3.5805    3.7289    0.8906 C.ar      1 <0>        -0.2488
     14 C12         3.8742    2.8553    1.9458 C.ar      1 <0>         0.4947
     15 N2          5.0582    2.9617    2.5431 N.ar      1 <0>        -0.5985
     16 C13         5.9372    3.8671    2.1537 C.ar      1 <0>         0.3636
     17 N3          5.7031    4.7067    1.1682 N.ar      1 <0>        -0.5640
     18 N4          2.9556    1.9059    2.3568 N.pl3     1 <0>        -0.8299
     19 C14         4.6793    6.4444   -1.1930 C.ar      1 <0>         0.1197
     20 C15         5.2588    7.4743   -0.4639 C.ar      1 <0>        -0.0986
     21 C16         5.9114    8.5001   -1.1192 C.ar      1 <0>        -0.1026
     22 C17         5.9781    8.5081   -2.5004 C.ar      1 <0>        -0.1138
     23 C18         5.3975    7.4866   -3.2295 C.ar      1 <0>        -0.1045
     24 C19         4.7484    6.4550   -2.5798 C.ar      1 <0>        -0.1182
     25 H1         -4.4959    3.6404    0.0620 H         1 <0>         0.1021
     26 H2         -3.6402    2.3680   -0.8419 H         1 <0>         0.0572
     27 H3         -3.6239    2.3596    0.9380 H         1 <0>         0.0571
     28 H4         -2.1460    1.1928    0.0190 H         1 <0>         0.1306
     29 H5          0.0021   -0.0041    0.0020 H         1 <0>         0.1302
     30 H6          2.1163    1.2517   -0.0114 H         1 <0>         0.1276
     31 H7         -0.0791    4.9319    0.0277 H         1 <0>         0.1339
     32 H8          2.1330    5.3445   -1.6167 H         1 <0>         0.1831
     33 H9          6.8868    3.9207    2.6653 H         1 <0>         0.2015
     34 H10         2.0957    1.8390    1.9130 H         1 <0>         0.4129
     35 H11         3.1715    1.3071    3.0887 H         1 <0>         0.4078
     36 H12         5.2028    7.4711    0.6146 H         1 <0>         0.1294
     37 H13         6.3658    9.2993   -0.5526 H         1 <0>         0.1326
     38 H14         6.4851    9.3136   -3.0108 H         1 <0>         0.1300
     39 H15         5.4519    7.4953   -4.3081 H         1 <0>         0.1326
     40 H16         4.2954    5.6573   -3.1498 H         1 <0>         0.1294
@<TRIPOS>BOND
     1    1    2 1
     2    1   25 1
     3    1   26 1
     4    1   27 1
     5    2    3 1
     6    3    8 ar
     7    3    4 ar
     8    4    5 ar
     9    4   28 1
    10    5    6 ar
    11    5   29 1
    12    6    7 ar
    13    6   30 1
    14    7    8 ar
    15    7    9 1
    16    8   31 1
    17    9   13 1
    18    9   10 2
    19   10   11 1
    20   10   32 1
    21   11   12 1
    22   11   19 1
    23   12   17 ar
    24   12   13 ar
    25   13   14 ar
    26   14   15 ar
    27   14   18 1
    28   15   16 ar
    29   16   17 ar
    30   16   33 1
    31   18   34 1
    32   18   35 1
    33   19   24 ar
    34   19   20 ar
    35   20   21 ar
    36   20   36 1
    37   21   22 ar
    38   21   37 1
    39   22   23 ar
    40   22   38 1
    41   23   24 ar
    42   23   39 1
    43   24   40 1
@<TRIPOS>MOLECULE
ZINC03815352
   48    50     0     0     0
SMALL
USER_CHARGES

@<TRIPOS>ATOM
      1 C1          0.2761   -4.2288   -1.6870 C.3       1 <0>         0.0249
      2 O1          1.2581   -5.0071   -0.9999 O.3       1 <0>        -0.2985
      3 C2          2.2898   -4.3321   -0.4260 C.ar      1 <0>         0.1695
      4 C3          2.3539   -2.9510   -0.5230 C.ar      1 <0>        -0.2228
      5 C4          3.4074   -2.2618    0.0626 C.ar      1 <0>         0.2283
      6 C5          4.4002   -2.9558    0.7411 C.ar      1 <0>        -0.2620
      7 C6          4.3346   -4.3365    0.8435 C.ar      1 <0>         0.1698
      8 C7          3.2804   -5.0271    0.2576 C.ar      1 <0>         0.0145
      9 O2          3.2178   -6.3840    0.3537 O.3       1 <0>        -0.3104
     10 C8          3.8568   -7.1376   -0.6787 C.3       1 <0>         0.0346
     11 O3          5.3043   -5.0157    1.5125 O.3       1 <0>        -0.2986
     12 C9          6.3579   -4.2419    2.0897 C.3       1 <0>         0.0241
     13 N1          3.4717   -0.8671   -0.0362 N.pl3     1 <0>        -0.6402
     14 C10         2.3122   -0.1190   -0.0077 C.ar      1 <0>         0.4652
     15 C11         2.3439    1.2788   -0.2267 C.ar      1 <0>        -0.1820
     16 C12         3.5397    1.9619   -0.4798 C.ar      1 <0>        -0.1493
     17 C13         3.5171    3.3121   -0.6843 C.ar      1 <0>         0.1117
     18 C14         2.3091    4.0227   -0.6437 C.ar      1 <0>         0.1639
     19 C15         1.1196    3.3743   -0.3967 C.ar      1 <0>        -0.1836
     20 C16         1.1194    1.9900   -0.1845 C.ar      1 <0>         0.2016
     21 N2         -0.0124    1.3112    0.0606 N.ar      1 <0>        -0.5407
     22 C17         0.0189    0.0145    0.2567 C.ar      1 <0>         0.3410
     23 N3          1.1382   -0.6911    0.2262 N.ar      1 <0>        -0.5777
     24 O4          2.3122    5.3655   -0.8499 O.3       1 <0>        -0.2971
     25 C18         1.0498    6.0330   -0.7960 C.3       1 <0>         0.0200
     26 O5          4.6789    3.9744   -0.9305 O.3       1 <0>        -0.2999
     27 C19         5.8764    3.1951   -0.9597 C.3       1 <0>         0.0216
     28 H1         -0.1840   -3.5276   -0.9908 H         1 <0>         0.0635
     29 H2          0.7519   -3.6768   -2.4975 H         1 <0>         0.0537
     30 H3         -0.4888   -4.8886   -2.0967 H         1 <0>         0.1032
     31 H4          1.5840   -2.4107   -1.0538 H         1 <0>         0.1487
     32 H5          5.2215   -2.4194    1.1928 H         1 <0>         0.1370
     33 H6          3.7321   -8.2024   -0.4815 H         1 <0>         0.0923
     34 H7          3.4066   -6.8910   -1.6402 H         1 <0>         0.0438
     35 H8          4.9190   -6.8943   -0.7017 H         1 <0>         0.0433
     36 H9          6.8752   -3.6899    1.3050 H         1 <0>         0.0564
     37 H10         5.9400   -3.5407    2.8121 H         1 <0>         0.0580
     38 H11         7.0622   -4.9047    2.5924 H         1 <0>         0.1043
     39 H12         4.3312   -0.4262   -0.1247 H         1 <0>         0.4204
     40 H13         4.4755    1.4237   -0.5128 H         1 <0>         0.1390
     41 H14         0.1935    3.9292   -0.3675 H         1 <0>         0.1565
     42 H15        -0.9103   -0.5003    0.4514 H         1 <0>         0.1977
     43 H16         0.6043    5.8889    0.1884 H         1 <0>         0.0624
     44 H17         1.1940    7.0981   -0.9770 H         1 <0>         0.1076
     45 H18         0.3882    5.6212   -1.5580 H         1 <0>         0.0624
     46 H19         6.0161    2.7073    0.0050 H         1 <0>         0.0571
     47 H20         5.7989    2.4392   -1.7412 H         1 <0>         0.0574
     48 H21         6.7275    3.8443   -1.1653 H         1 <0>         0.1072
@<TRIPOS>BOND
     1    1    2 1
     2    1   28 1
     3    1   29 1
     4    1   30 1
     5    2    3 1
     6    3    8 ar
     7    3    4 ar
     8    4    5 ar
     9    4   31 1
    10    5    6 ar
    11    5   13 1
    12    6    7 ar
    13    6   32 1
    14    7    8 ar
    15    7   11 1
    16    8    9 1
    17    9   10 1
    18   10   33 1
    19   10   34 1
    20   10   35 1
    21   11   12 1
    22   12   36 1
    23   12   37 1
    24   12   38 1
    25   13   14 1
    26   13   39 1
    27   14   23 ar
    28   14   15 ar
    29   15   20 ar
    30   15   16 ar
    31   16   17 ar
    32   16   40 1
    33   17   18 ar
    34   17   26 1
    35   18   19 ar
    36   18   24 1
    37   19   20 ar
    38   19   41 1
    39   20   21 ar
    40   21   22 ar
    41   22   23 ar
    42   22   42 1
    43   24   25 1
    44   25   43 1
    45   25   44 1
    46   25   45 1
    47   26   27 1
    48   27   46 1
    49   27   47 1
    50   27   48 1
@<TRIPOS>MOLECULE
ZINC03815353
   35    37     0     0     0
SMALL
USER_CHARGES

@<TRIPOS>ATOM
      1 C1          4.3627   -1.6588   -0.1810 C.3       1 <0>        -0.0801
      2 C2          3.7582   -0.2874   -0.3384 C.2       1 <0>        -0.1365
      3 C3          4.4241    0.8663   -0.5102 C.2       1 <0>         0.0859
      4 N1          3.5353    1.9049   -0.6142 N.pl3     1 <0>        -0.5669
      5 H1          3.7791    2.8348   -0.7430 H         1 <0>         0.4239
      6 C4          2.2542    1.4371   -0.5102 C.ar      1 <0>         0.3280
      7 C5          2.3345    0.0432   -0.3327 C.ar      1 <0>        -0.1939
      8 C6          1.1445   -0.6876   -0.1971 C.ar      1 <0>         0.4563
      9 N2         -0.0096   -0.0281   -0.2424 N.ar      1 <0>        -0.5398
     10 C7         -0.0394    1.2814   -0.4107 C.ar      1 <0>         0.3278
     11 N3          1.0505    2.0064   -0.5422 N.ar      1 <0>        -0.5272
     12 N4          1.1710   -2.0602   -0.0200 N.pl3     1 <0>        -0.5755
     13 C8          1.3298   -2.6226    1.3234 C.3       1 <0>         0.0967
     14 C9          1.0462   -2.9097   -1.1230 C.ar      1 <0>         0.2311
     15 C10         0.9512   -4.2832   -0.9365 C.ar      1 <0>        -0.1798
     16 C11         0.8275   -5.1202   -2.0279 C.ar      1 <0>        -0.0610
     17 C12         0.7977   -4.5930   -3.3060 C.ar      1 <0>        -0.1596
     18 C13         0.8916   -3.2255   -3.4958 C.ar      1 <0>         0.0116
     19 C14         1.0112   -2.3821   -2.4071 C.ar      1 <0>        -0.1700
     20 Cl1         0.8526   -2.5680   -5.1021 Cl        1 <0>        -0.0694
     21 C15         5.9237    0.9992   -0.5784 C.3       1 <0>        -0.0938
     22 H2          4.5554   -2.0861   -1.1650 H         1 <0>         0.0680
     23 H3          5.2992   -1.5818    0.3715 H         1 <0>         0.0670
     24 H4          3.6708   -2.3004    0.3646 H         1 <0>         0.0676
     25 H5         -0.9982    1.7771   -0.4463 H         1 <0>         0.2054
     26 H6          0.3544   -2.6952    1.8045 H         1 <0>         0.0600
     27 H7          1.7743   -3.6152    1.2515 H         1 <0>         0.0842
     28 H8          1.9788   -1.9757    1.9137 H         1 <0>         0.0699
     29 H9          0.9743   -4.6960    0.0612 H         1 <0>         0.1330
     30 H10         0.7536   -6.1879   -1.8830 H         1 <0>         0.1353
     31 H11         0.7005   -5.2499   -4.1577 H         1 <0>         0.1322
     32 H12         1.0804   -1.3145   -2.5551 H         1 <0>         0.1216
     33 H13         6.2506    0.8995   -1.6135 H         1 <0>         0.0839
     34 H14         6.2196    1.9762   -0.1964 H         1 <0>         0.0734
     35 H15         6.3855    0.2179    0.0253 H         1 <0>         0.0908
@<TRIPOS>BOND
     1    1    2 1
     2    1   22 1
     3    1   23 1
     4    1   24 1
     5    2    7 1
     6    2    3 2
     7    3    4 1
     8    3   21 1
     9    4    5 1
    10    4    6 1
    11    6   11 ar
    12    6    7 ar
    13    7    8 ar
    14    8    9 ar
    15    8   12 1
    16    9   10 ar
    17   10   11 ar
    18   10   25 1
    19   12   13 1
    20   12   14 1
    21   13   26 1
    22   13   27 1
    23   13   28 1
    24   14   19 ar
    25   14   15 ar
    26   15   16 ar
    27   15   29 1
    28   16   17 ar
    29   16   30 1
    30   17   18 ar
    31   17   31 1
    32   18   19 ar
    33   18   20 1
    34   19   32 1
    35   21   33 1
    36   21   34 1
    37   21   35 1
@<TRIPOS>MOLECULE
ZINC03815354
   40    43     0     0     0
SMALL
USER_CHARGES

@<TRIPOS>ATOM
      1 C1         -5.9264    7.2257    0.5000 C.3       1 <0>         0.0695
      2 N1         -4.6527    7.9495    0.4955 N.am      1 <0>        -0.5056
      3 C2         -3.4763    7.2531    0.3779 C.ar      1 <0>         0.4670
      4 C3         -2.2404    7.9352    0.3714 C.ar      1 <0>        -0.2742
      5 C4         -2.2047    9.3438    0.4855 C.2       1 <0>         0.0289
      6 C5         -3.3835   10.0302    0.6024 C.2       1 <0>        -0.1611
      7 C6         -4.6483    9.2918    0.6063 C.2       1 <0>         0.5565
      8 O1         -5.7017    9.8947    0.7098 O.2       1 <0>        -0.4997
      9 C7         -3.3797   11.5068    0.7242 C.ar      1 <0>        -0.0113
     10 C8         -3.3221   12.1058    1.9832 C.ar      1 <0>        -0.0062
     11 C9         -3.3150   13.4828    2.0897 C.ar      1 <0>        -0.1063
     12 C10        -3.3740   14.2678    0.9522 C.ar      1 <0>        -0.0869
     13 C11        -3.4362   13.6803   -0.2985 C.ar      1 <0>        -0.1062
     14 C12        -3.4396   12.3044   -0.4191 C.ar      1 <0>        -0.0064
     15 Cl1        -3.5188   11.5691   -1.9897 Cl        1 <0>        -0.0500
     16 Cl2        -3.2539   11.1224    3.4122 Cl        1 <0>        -0.0503
     17 C13        -1.0608    7.1856    0.2498 C.ar      1 <0>         0.2651
     18 N2         -1.1539    5.8727    0.1514 N.ar      1 <0>        -0.5719
     19 C14        -2.3352    5.2648    0.1562 C.ar      1 <0>         0.6081
     20 N3         -3.4750    5.9293    0.2688 N.ar      1 <0>        -0.5935
     21 N4         -2.3756    3.8881    0.0453 N.pl3     1 <0>        -0.6216
     22 C15        -1.1869    3.1518    0.0415 C.ar      1 <0>         0.1068
     23 C16        -0.0915    3.5739    0.7916 C.ar      1 <0>        -0.0682
     24 C17         1.0655    2.8137    0.7515 C.ar      1 <0>        -0.1505
     25 C18         1.0920    1.6641   -0.0164 C.ar      1 <0>         0.0826
     26 N5          0.0360    1.2886   -0.7111 N.ar      1 <0>        -0.4637
     27 C19        -1.0828    1.9855   -0.7054 C.ar      1 <0>         0.0800
     28 H1         -6.1903    6.9613    1.5240 H         1 <0>         0.0751
     29 H2         -6.7056    7.8590    0.0759 H         1 <0>         0.0928
     30 H3         -5.8309    6.3184   -0.0964 H         1 <0>         0.0953
     31 H4         -1.2619    9.8705    0.4803 H         1 <0>         0.1513
     32 H5         -3.2666   13.9478    3.0633 H         1 <0>         0.1440
     33 H6         -3.3720   15.3441    1.0411 H         1 <0>         0.1457
     34 H7         -3.4825   14.2988   -1.1827 H         1 <0>         0.1441
     35 H8         -0.0966    7.6721    0.2413 H         1 <0>         0.1891
     36 H9         -3.2286    3.4324   -0.0299 H         1 <0>         0.4294
     37 H10        -0.1419    4.4740    1.3863 H         1 <0>         0.1461
     38 H11         1.9356    3.1130    1.3170 H         1 <0>         0.1401
     39 H12         1.9904    1.0654   -0.0479 H         1 <0>         0.1592
     40 H13        -1.9271    1.6460   -1.2870 H         1 <0>         0.1572
@<TRIPOS>BOND
     1    1    2 1
     2    1   28 1
     3    1   29 1
     4    1   30 1
     5    2    7 am
     6    2    3 1
     7    3   20 ar
     8    3    4 ar
     9    4    5 1
    10    4   17 ar
    11    5    6 2
    12    5   31 1
    13    6    7 1
    14    6    9 1
    15    7    8 2
    16    9   14 ar
    17    9   10 ar
    18   10   11 ar
    19   10   16 1
    20   11   12 ar
    21   11   32 1
    22   12   13 ar
    23   12   33 1
    24   13   14 ar
    25   13   34 1
    26   14   15 1
    27   17   18 ar
    28   17   35 1
    29   18   19 ar
    30   19   20 ar
    31   19   21 1
    32   21   22 1
    33   21   36 1
    34   22   27 ar
    35   22   23 ar
    36   23   24 ar
    37   23   37 1
    38   24   25 ar
    39   24   38 1
    40   25   26 ar
    41   25   39 1
    42   26   27 ar
    43   27   40 1
@<TRIPOS>MOLECULE
ZINC03815355
   55    58     0     0     0
SMALL
USER_CHARGES

@<TRIPOS>ATOM
      1 C1          0.9123    1.7808    0.7877 C.ar      1 <0>        -0.0575
      2 C2          0.8983    3.1623    0.7839 C.ar      1 <0>        -0.1316
      3 C3         -0.0502    3.8460    0.0338 C.ar      1 <0>         0.1998
      4 C4         -0.9838    3.1392   -0.7120 C.ar      1 <0>        -0.1602
      5 C5         -0.9624    1.7536   -0.7103 C.ar      1 <0>         0.1233
      6 C6         -0.0159    1.0758    0.0456 C.ar      1 <0>        -0.2042
      7 O1         -1.8708    1.0587   -1.4444 O.3       1 <0>        -0.3029
      8 C7         -1.7935   -0.3672   -1.3913 C.3       1 <0>         0.3966
      9 C8         -2.8878   -0.9704   -2.2742 C.3       1 <0>         0.2739
     10 F1         -2.7107   -0.5426   -3.5943 F         1 <0>        -0.1666
     11 F2         -2.8122   -2.3664   -2.2222 F         1 <0>        -0.1663
     12 F3         -0.5400   -0.7837   -1.8523 F         1 <0>        -0.1692
     13 F4         -1.9707   -0.7950   -0.0712 F         1 <0>        -0.1671
     14 N1         -0.0643    5.2440    0.0294 N.pl3     1 <0>        -0.6357
     15 C9          1.1244    5.9490    0.1255 C.ar      1 <0>         0.5635
     16 N2          2.2715    5.2850    0.1149 N.ar      1 <0>        -0.5535
     17 C10         3.4290    5.9219    0.1990 C.ar      1 <0>         0.1946
     18 C11         3.4363    7.3005    0.3108 C.ar      1 <0>        -0.2677
     19 C12         2.2106    7.9742    0.3251 C.ar      1 <0>         0.2574
     20 N3          1.0851    7.2676    0.2310 N.ar      1 <0>        -0.5498
     21 C13         2.1648    9.4490    0.4425 C.ar      1 <0>        -0.0087
     22 C14         3.3418   10.1819    0.5404 C.ar      1 <0>        -0.1077
     23 C15         3.2969   11.5612    0.6497 C.ar      1 <0>        -0.0982
     24 C16         2.0908   12.2304    0.6643 C.ar      1 <0>        -0.1166
     25 C17         0.8972   11.5234    0.5684 C.ar      1 <0>         0.0870
     26 C18         0.9296   10.1226    0.4501 C.ar      1 <0>        -0.0655
     27 C19        -0.4639    9.6902    0.3619 C.2       1 <0>        -0.1619
     28 C20        -1.2236   10.7975    0.4224 C.2       1 <0>         0.0334
     29 N4         -0.4276   11.9010    0.5551 N.pl3     1 <0>        -0.4924
     30 C21        -0.9107   13.2808    0.6512 C.3       1 <0>         0.1194
     31 C22        -0.9128   13.9185   -0.7395 C.3       1 <0>        -0.1770
     32 C23        -1.4173   15.3594   -0.6391 C.3       1 <0>        -0.0005
     33 H1          1.6504    1.2509    1.3714 H         1 <0>         0.1363
     34 H2          1.6253    3.7110    1.3642 H         1 <0>         0.1407
     35 H3         -1.7225    3.6682   -1.2958 H         1 <0>         0.1386
     36 H4         -0.0021   -0.0041    0.0503 H         1 <0>         0.1341
     37 H5         -3.8645   -0.6459   -1.9150 H         1 <0>         0.1595
     38 H6         -0.9064    5.7203   -0.0408 H         1 <0>         0.4241
     39 H7          4.3576    5.3706    0.1849 H         1 <0>         0.1754
     40 H8          4.3666    7.8441    0.3850 H         1 <0>         0.1501
     41 H9          4.2946    9.6736    0.5309 H         1 <0>         0.1353
     42 H10         4.2178   12.1203    0.7249 H         1 <0>         0.1350
     43 H11         2.0734   13.3069    0.7502 H         1 <0>         0.1177
     44 H12        -0.8163    8.6738    0.2663 H         1 <0>         0.1598
     45 H13        -2.3028   10.8122    0.3826 H         1 <0>         0.1698
     46 H14        -1.9236   13.2838    1.0539 H         1 <0>         0.1005
     47 H15        -0.2558   13.8499    1.3109 H         1 <0>         0.0951
     48 H16         0.1001   13.9154   -1.1422 H         1 <0>         0.0948
     49 H17        -1.5677   13.3493   -1.3992 H         1 <0>         0.0952
     50 H18        -2.4302   15.3625   -0.2365 H         1 <0>         0.1358
     51 H19        -0.7623   15.9285    0.0206 H         1 <0>         0.1383
     52 H20        -1.7488   16.9245   -1.9349 H         1 <0>         0.4428
     53 H21        -0.5039   15.9228   -2.3960 H         1 <0>         0.4386
     54 N5         -1.4359   15.9565   -1.9862 N.4       1 <0>        -0.6464
     55 H22        -2.0830   15.4263   -2.5815 H         1 <0>         0.4409
@<TRIPOS>BOND
     1    1    6 ar
     2    1    2 ar
     3    1   33 1
     4    2    3 ar
     5    2   34 1
     6    3    4 ar
     7    3   14 1
     8    4    5 ar
     9    4   35 1
    10    5    6 ar
    11    5    7 1
    12    6   36 1
    13    7    8 1
    14    8    9 1
    15    8   12 1
    16    8   13 1
    17    9   10 1
    18    9   11 1
    19    9   37 1
    20   14   15 1
    21   14   38 1
    22   15   20 ar
    23   15   16 ar
    24   16   17 ar
    25   17   18 ar
    26   17   39 1
    27   18   19 ar
    28   18   40 1
    29   19   20 ar
    30   19   21 1
    31   21   26 ar
    32   21   22 ar
    33   22   23 ar
    34   22   41 1
    35   23   24 ar
    36   23   42 1
    37   24   25 ar
    38   24   43 1
    39   25   29 1
    40   25   26 ar
    41   26   27 1
    42   27   28 2
    43   27   44 1
    44   28   29 1
    45   28   45 1
    46   29   30 1
    47   30   31 1
    48   30   46 1
    49   30   47 1
    50   31   32 1
    51   31   48 1
    52   31   49 1
    53   32   50 1
    54   32   51 1
    55   32   54 1
    56   52   54 1
    57   53   54 1
    58   54   55 1
@<TRIPOS>MOLECULE
ZINC03815356
   37    40     0     0     0
SMALL
USER_CHARGES

@<TRIPOS>ATOM
      1 C1          3.1006    9.6833    1.4615 C.3       1 <0>        -0.1579
      2 C2          3.1313    9.1676    0.0213 C.3       1 <0>         0.1927
      3 H1          2.3522    9.6624   -0.5584 H         1 <0>         0.1037
      4 C3          4.4767    9.4637   -0.5897 C.ar      1 <0>        -0.0964
      5 C4          5.5584    8.6509   -0.3065 C.ar      1 <0>        -0.1161
      6 C5          6.7915    8.9199   -0.8704 C.ar      1 <0>        -0.1142
      7 C6          6.9450   10.0070   -1.7103 C.ar      1 <0>        -0.1169
      8 C7          5.8645   10.8229   -1.9894 C.ar      1 <0>        -0.1145
      9 C8          4.6305   10.5513   -1.4289 C.ar      1 <0>        -0.1054
     10 N1          2.9001    7.7210    0.0156 N.pl3     1 <0>        -0.6975
     11 C9          1.6053    7.2260    0.0246 C.ar      1 <0>         0.4968
     12 C10         1.3654    5.8580    0.0194 C.ar      1 <0>        -0.2872
     13 C11         0.0585    5.3567    0.0290 C.ar      1 <0>         0.2195
     14 C12        -0.0701    3.8863    0.0227 C.ar      1 <0>        -0.0900
     15 C13        -1.2626    3.1289    0.0304 C.ar      1 <0>        -0.0437
     16 C14        -1.2204    1.7588    0.0173 C.ar      1 <0>        -0.1291
     17 C15        -0.0126    1.0758    0.0080 C.ar      1 <0>        -0.0730
     18 C16         1.1702    1.7877    0.0005 C.ar      1 <0>        -0.0869
     19 C17         1.1370    3.1681    0.0078 C.ar      1 <0>        -0.0801
     20 S1          2.3972    4.4179    0.0024 S.3       1 <0>         0.0724
     21 N2         -0.9309    6.2783    0.0432 N.ar      1 <0>        -0.5380
     22 C18        -0.6680    7.5607    0.0477 C.ar      1 <0>         0.3445
     23 N3          0.5586    8.0502    0.0389 N.ar      1 <0>        -0.5594
     24 H2          3.8798    9.1885    2.0413 H         1 <0>         0.0577
     25 H3          3.2727   10.7596    1.4657 H         1 <0>         0.0708
     26 H4          2.1275    9.4692    1.9034 H         1 <0>         0.0669
     27 H5          5.4393    7.8037    0.3527 H         1 <0>         0.1181
     28 H6          7.6355    8.2823   -0.6527 H         1 <0>         0.1249
     29 H7          7.9090   10.2187   -2.1488 H         1 <0>         0.1243
     30 H8          5.9845   11.6722   -2.6456 H         1 <0>         0.1259
     31 H9          3.7863   11.1888   -1.6469 H         1 <0>         0.1260
     32 H10         3.6530    7.1095    0.0056 H         1 <0>         0.4102
     33 H11        -2.2169    3.6344    0.0419 H         1 <0>         0.1359
     34 H12        -2.1448    1.2003    0.0187 H         1 <0>         0.1349
     35 H13         0.0021   -0.0041    0.0020 H         1 <0>         0.1408
     36 H14         2.1166    1.2676   -0.0114 H         1 <0>         0.1386
     37 H15        -1.4964    8.2537    0.0592 H         1 <0>         0.2018
@<TRIPOS>BOND
     1    1    2 1
     2    1   24 1
     3    1   25 1
     4    1   26 1
     5    2    3 1
     6    2    4 1
     7    2   10 1
     8    4    9 ar
     9    4    5 ar
    10    5    6 ar
    11    5   27 1
    12    6    7 ar
    13    6   28 1
    14    7    8 ar
    15    7   29 1
    16    8    9 ar
    17    8   30 1
    18    9   31 1
    19   10   11 1
    20   10   32 1
    21   11   23 ar
    22   11   12 ar
    23   12   20 1
    24   12   13 ar
    25   13   14 1
    26   13   21 ar
    27   14   19 ar
    28   14   15 ar
    29   15   16 ar
    30   15   33 1
    31   16   17 ar
    32   16   34 1
    33   17   18 ar
    34   17   35 1
    35   18   19 ar
    36   18   36 1
    37   19   20 1
    38   21   22 ar
    39   22   23 ar
    40   22   37 1
@<TRIPOS>MOLECULE
ZINC03815357
   30    32     0     0     0
SMALL
USER_CHARGES

@<TRIPOS>ATOM
      1 C1         -5.1555   -2.8526   -0.2552 C.ar      1 <0>        -0.0930
      2 C2         -3.9346   -2.2166   -0.3691 C.ar      1 <0>        -0.1242
      3 C3         -3.7714   -0.9338    0.1379 C.ar      1 <0>         0.1473
      4 C4         -4.8358   -0.2965    0.7629 C.ar      1 <0>        -0.0771
      5 C5         -6.0554   -0.9364    0.8697 C.ar      1 <0>        -0.0821
      6 C6         -6.2145   -2.2141    0.3631 C.ar      1 <0>        -0.0957
      7 I1         -7.6636    0.0259    1.8061 I         1 <0>        -0.0313
      8 N1         -2.5370   -0.2878    0.0246 N.pl3     1 <0>        -0.6311
      9 C7         -2.4871    1.0822   -0.1296 C.ar      1 <0>         0.4697
     10 C8         -1.2487    1.7697   -0.1302 C.ar      1 <0>        -0.1665
     11 C9         -0.0286    1.1052    0.0362 C.ar      1 <0>        -0.0560
     12 C10         1.1321    1.8214    0.0333 C.ar      1 <0>        -0.0939
     13 C11         1.1186    3.2040   -0.1277 C.ar      1 <0>         0.0063
     14 C12        -0.0537    3.8815   -0.2864 C.ar      1 <0>        -0.0255
     15 C13        -1.2652    3.1769   -0.2878 C.ar      1 <0>         0.1889
     16 N2         -2.4462    3.7947   -0.4401 N.ar      1 <0>        -0.5306
     17 C14        -3.5624    3.1056   -0.4368 C.ar      1 <0>         0.3596
     18 N3         -3.5970    1.7910   -0.2875 N.ar      1 <0>        -0.5676
     19 N4          2.3969    3.9502   -0.1271 N.pl3     1 <0>         0.0192
     20 O1          3.4498    3.3543    0.0136 O.2       1 <0>        -0.1419
     21 O2          2.3959    5.1601   -0.2672 O.3       1 <0>        -0.1446
     22 H1         -5.2828   -3.8501   -0.6492 H         1 <0>         0.1386
     23 H2         -3.1079   -2.7161   -0.8522 H         1 <0>         0.1333
     24 H3         -4.7110    0.6994    1.1617 H         1 <0>         0.1449
     25 H4         -7.1679   -2.7138    0.4511 H         1 <0>         0.1331
     26 H5         -1.7155   -0.8027    0.0543 H         1 <0>         0.4251
     27 H6         -0.0059    0.0328    0.1616 H         1 <0>         0.1497
     28 H7          2.0746    1.3088    0.1572 H         1 <0>         0.1627
     29 H8         -0.0488    4.9543   -0.4107 H         1 <0>         0.1743
     30 H9         -4.4954    3.6350   -0.5619 H         1 <0>         0.2084
@<TRIPOS>BOND
     1    1    6 ar
     2    1    2 ar
     3    1   22 1
     4    2    3 ar
     5    2   23 1
     6    3    4 ar
     7    3    8 1
     8    4    5 ar
     9    4   24 1
    10    5    6 ar
    11    5    7 1
    12    6   25 1
    13    8    9 1
    14    8   26 1
    15    9   18 ar
    16    9   10 ar
    17   10   15 ar
    18   10   11 ar
    19   11   12 ar
    20   11   27 1
    21   12   13 ar
    22   12   28 1
    23   13   14 ar
    24   13   19 1
    25   14   15 ar
    26   14   29 1
    27   15   16 ar
    28   16   17 ar
    29   17   18 ar
    30   17   30 1
    31   19   20 2
    32   19   21 1
@<TRIPOS>MOLECULE
ZINC03815358
   38    40     0     0     0
SMALL
USER_CHARGES

@<TRIPOS>ATOM
      1 C1          1.0128    4.4235    4.5589 C.3       1 <0>         0.0220
      2 O1         -0.1576    3.6265    4.3661 O.3       1 <0>        -0.2979
      3 C2         -0.3631    3.1228    3.1198 C.ar      1 <0>         0.1291
      4 C3          0.5334    3.3908    2.1257 C.ar      1 <0>        -0.1614
      5 C4          0.3242    2.8726    0.8393 C.ar      1 <0>        -0.0978
      6 C5         -0.8148    2.0737    0.5758 C.ar      1 <0>         0.1669
      7 C6         -1.7217    1.8124    1.6141 C.ar      1 <0>        -0.1763
      8 C7         -1.4934    2.3332    2.8676 C.ar      1 <0>         0.1559
      9 O2         -2.3729    2.0789    3.8713 O.3       1 <0>        -0.2959
     10 C8         -3.5050    1.2674    3.5518 C.3       1 <0>         0.0193
     11 N1         -1.0231    1.5790   -0.6534 N.ar      1 <0>        -0.4601
     12 C9         -0.1930    1.8010   -1.6402 C.ar      1 <0>         0.1789
     13 C10         0.9615    2.5819   -1.4693 C.ar      1 <0>        -0.0854
     14 C11         1.2365    3.1342   -0.2092 C.ar      1 <0>         0.2590
     15 N2          2.3609    3.9073    0.0004 N.pl3     1 <0>        -0.7002
     16 C12         3.5582    3.3058    0.4009 C.ar      1 <0>         0.2068
     17 C13         3.5866    1.9521    0.7117 C.ar      1 <0>        -0.1481
     18 C14         4.7709    1.3587    1.1024 C.ar      1 <0>        -0.0929
     19 C15         5.9278    2.1139    1.1948 C.ar      1 <0>         0.0660
     20 C16         5.9013    3.4655    0.8904 C.ar      1 <0>        -0.0288
     21 C17         4.7191    4.0622    0.4939 C.ar      1 <0>        -0.1453
     22 Cl1         7.3534    4.4096    1.0065 Cl        1 <0>        -0.0409
     23 F1          7.0841    1.5321    1.5817 F         1 <0>        -0.1274
     24 C18         1.8485    2.8124   -2.5697 C.1       1 <0>         0.2524
     25 N3          2.5522    2.9953   -3.4425 N.1       1 <0>        -0.3918
     26 H1          1.0558    4.7613    5.5943 H         1 <0>         0.1076
     27 H2          1.8983    3.8291    4.3335 H         1 <0>         0.0597
     28 H3          0.9770    5.2879    3.8959 H         1 <0>         0.0588
     29 H4          1.4015    4.0002    2.3293 H         1 <0>         0.1486
     30 H5         -2.5954    1.2047    1.4305 H         1 <0>         0.1580
     31 H6         -4.1247    1.1425    4.4397 H         1 <0>         0.1079
     32 H7         -4.0877    1.7496    2.7669 H         1 <0>         0.0630
     33 H8         -3.1661    0.2913    3.2049 H         1 <0>         0.0631
     34 H9         -0.4032    1.3769   -2.6110 H         1 <0>         0.1746
     35 H10         2.3205    4.8676   -0.1300 H         1 <0>         0.4209
     36 H11         2.6839    1.3632    0.6440 H         1 <0>         0.1367
     37 H12         4.7937    0.3055    1.3405 H         1 <0>         0.1491
     38 H13         4.6983    5.1156    0.2570 H         1 <0>         0.1458
@<TRIPOS>BOND
     1    1    2 1
     2    1   26 1
     3    1   27 1
     4    1   28 1
     5    2    3 1
     6    3    8 ar
     7    3    4 ar
     8    4    5 ar
     9    4   29 1
    10    5   14 ar
    11    5    6 ar
    12    6    7 ar
    13    6   11 ar
    14    7    8 ar
    15    7   30 1
    16    8    9 1
    17    9   10 1
    18   10   31 1
    19   10   32 1
    20   10   33 1
    21   11   12 ar
    22   12   13 ar
    23   12   34 1
    24   13   14 ar
    25   13   24 1
    26   14   15 1
    27   15   16 1
    28   15   35 1
    29   16   21 ar
    30   16   17 ar
    31   17   18 ar
    32   17   36 1
    33   18   19 ar
    34   18   37 1
    35   19   20 ar
    36   19   23 1
    37   20   21 ar
    38   20   22 1
    39   21   38 1
    40   24   25 3
@<TRIPOS>MOLECULE
ZINC03815359
   32    34     0     0     0
SMALL
USER_CHARGES

@<TRIPOS>ATOM
      1 C1          4.3515   -1.6234    0.1542 C.3       1 <0>        -0.0844
      2 C2          3.7504   -0.2548   -0.0373 C.2       1 <0>        -0.1400
      3 C3          4.4171    0.9084   -0.1180 C.2       1 <0>         0.0744
      4 N1          3.5316    1.9403   -0.2925 N.pl3     1 <0>        -0.5645
      5 H1          3.7765    2.8750   -0.3779 H         1 <0>         0.4228
      6 C4          2.2520    1.4583   -0.3289 C.ar      1 <0>         0.3470
      7 C5          2.3299    0.0620   -0.1709 C.ar      1 <0>        -0.2468
      8 C6          1.1408   -0.6828   -0.1723 C.ar      1 <0>         0.4773
      9 N2         -0.0102   -0.0336   -0.3234 N.ar      1 <0>        -0.5838
     10 C7         -0.0377    1.2787   -0.4688 C.ar      1 <0>         0.3573
     11 N3          1.0515    2.0167   -0.4736 N.ar      1 <0>        -0.5610
     12 N4          1.1649   -2.0584   -0.0197 N.pl3     1 <0>        -0.6450
     13 C8         -0.0327   -2.7700    0.0939 C.ar      1 <0>         0.1871
     14 C9         -0.1264   -4.0603   -0.4130 C.ar      1 <0>        -0.1628
     15 C10        -1.3103   -4.7620   -0.2993 C.ar      1 <0>        -0.0681
     16 C11        -2.4033   -4.1824    0.3183 C.ar      1 <0>        -0.1740
     17 C12        -2.3145   -2.8965    0.8250 C.ar      1 <0>         0.1206
     18 C13        -1.1292   -2.1910    0.7186 C.ar      1 <0>        -0.1526
     19 F1         -3.3839   -2.3331    1.4284 F         1 <0>        -0.1365
     20 C14         5.9141    1.0569   -0.0299 C.3       1 <0>        -0.0924
     21 H2          4.5675   -2.0648   -0.8187 H         1 <0>         0.0716
     22 H3          5.2748   -1.5378    0.7273 H         1 <0>         0.0745
     23 H4          3.6472   -2.2576    0.6926 H         1 <0>         0.0592
     24 H5         -0.9936    1.7658   -0.5934 H         1 <0>         0.2031
     25 H6          2.0129   -2.5285    0.0083 H         1 <0>         0.4221
     26 H7          0.7263   -4.5142   -0.8960 H         1 <0>         0.1306
     27 H8         -1.3826   -5.7650   -0.6931 H         1 <0>         0.1370
     28 H9         -3.3279   -4.7337    0.4061 H         1 <0>         0.1358
     29 H10        -1.0581   -1.1899    1.1176 H         1 <0>         0.1491
     30 H11         6.3461    0.9813   -1.0278 H         1 <0>         0.0815
     31 H12         6.1582    2.0288    0.3990 H         1 <0>         0.0721
     32 H13         6.3209    0.2680    0.6028 H         1 <0>         0.0889
@<TRIPOS>BOND
     1    1    2 1
     2    1   21 1
     3    1   22 1
     4    1   23 1
     5    2    7 1
     6    2    3 2
     7    3    4 1
     8    3   20 1
     9    4    5 1
    10    4    6 1
    11    6   11 ar
    12    6    7 ar
    13    7    8 ar
    14    8    9 ar
    15    8   12 1
    16    9   10 ar
    17   10   11 ar
    18   10   24 1
    19   12   13 1
    20   12   25 1
    21   13   18 ar
    22   13   14 ar
    23   14   15 ar
    24   14   26 1
    25   15   16 ar
    26   15   27 1
    27   16   17 ar
    28   16   28 1
    29   17   18 ar
    30   17   19 1
    31   18   29 1
    32   20   30 1
    33   20   31 1
    34   20   32 1
@<TRIPOS>MOLECULE
ZINC03815360
   32    34     0     0     0
SMALL
USER_CHARGES

@<TRIPOS>ATOM
      1 C1          4.3516   -1.6233    0.1547 C.3       1 <0>        -0.0845
      2 C2          3.7505   -0.2548   -0.0372 C.2       1 <0>        -0.1396
      3 C3          4.4172    0.9084   -0.1178 C.2       1 <0>         0.0736
      4 N1          3.5316    1.9404   -0.2920 N.pl3     1 <0>        -0.5645
      5 H1          3.7765    2.8750   -0.3776 H         1 <0>         0.4227
      6 C4          2.2521    1.4584   -0.3284 C.ar      1 <0>         0.3471
      7 C5          2.3300    0.0620   -0.1706 C.ar      1 <0>        -0.2481
      8 C6          1.1409   -0.6828   -0.1720 C.ar      1 <0>         0.4789
      9 N2         -0.0102   -0.0335   -0.3229 N.ar      1 <0>        -0.5855
     10 C7         -0.0377    1.2788   -0.4681 C.ar      1 <0>         0.3573
     11 N3          1.0515    2.0167   -0.4728 N.ar      1 <0>        -0.5625
     12 N4          1.1650   -2.0582   -0.0197 N.pl3     1 <0>        -0.6449
     13 C8         -0.0337   -2.7705    0.0940 C.ar      1 <0>         0.1472
     14 C9         -1.1304   -2.1911    0.7189 C.ar      1 <0>        -0.0855
     15 C10        -2.3142   -2.8944    0.8259 C.ar      1 <0>        -0.1315
     16 C11        -2.4050   -4.1801    0.3199 C.ar      1 <0>         0.0790
     17 C12        -1.3113   -4.7617   -0.2989 C.ar      1 <0>        -0.1315
     18 C13        -0.1271   -4.0602   -0.4127 C.ar      1 <0>        -0.1228
     19 F1         -3.5626   -4.8680    0.4297 F         1 <0>        -0.1406
     20 C14         5.9143    1.0569   -0.0306 C.3       1 <0>        -0.0924
     21 H2          4.5673   -2.0651   -0.8181 H         1 <0>         0.0714
     22 H3          5.2750   -1.5375    0.7275 H         1 <0>         0.0742
     23 H4          3.6474   -2.2572    0.6935 H         1 <0>         0.0593
     24 H5         -0.9935    1.7660   -0.5924 H         1 <0>         0.2027
     25 H6          2.0130   -2.5283    0.0081 H         1 <0>         0.4205
     26 H7         -1.0587   -1.1898    1.1173 H         1 <0>         0.1466
     27 H8         -3.1686   -2.4425    1.3078 H         1 <0>         0.1386
     28 H9         -1.3844   -5.7646   -0.6931 H         1 <0>         0.1388
     29 H10         0.7256   -4.5141   -0.8957 H         1 <0>         0.1338
     30 H11         6.3456    0.9818   -1.0288 H         1 <0>         0.0813
     31 H12         6.1587    2.0286    0.3986 H         1 <0>         0.0720
     32 H13         6.3215    0.2677    0.6014 H         1 <0>         0.0887
@<TRIPOS>BOND
     1    1    2 1
     2    1   21 1
     3    1   22 1
     4    1   23 1
     5    2    7 1
     6    2    3 2
     7    3    4 1
     8    3   20 1
     9    4    5 1
    10    4    6 1
    11    6   11 ar
    12    6    7 ar
    13    7    8 ar
    14    8    9 ar
    15    8   12 1
    16    9   10 ar
    17   10   11 ar
    18   10   24 1
    19   12   13 1
    20   12   25 1
    21   13   18 ar
    22   13   14 ar
    23   14   15 ar
    24   14   26 1
    25   15   16 ar
    26   15   27 1
    27   16   17 ar
    28   16   19 1
    29   17   18 ar
    30   17   28 1
    31   18   29 1
    32   20   30 1
    33   20   31 1
    34   20   32 1
@<TRIPOS>MOLECULE
ZINC03815361
   35    37     0     0     0
SMALL
USER_CHARGES

@<TRIPOS>ATOM
      1 C1         -1.4143   -6.1598   -0.8483 C.3       1 <0>        -0.1149
      2 C2         -1.3114   -4.7603   -0.2989 C.ar      1 <0>        -0.0662
      3 C3         -2.4036   -4.1789    0.3192 C.ar      1 <0>        -0.1389
      4 C4         -2.3137   -2.8949    0.8242 C.ar      1 <0>        -0.0957
      5 C5         -1.1299   -2.1909    0.7187 C.ar      1 <0>        -0.1189
      6 C6         -0.0329   -2.7699    0.0939 C.ar      1 <0>         0.1591
      7 C7         -0.1268   -4.0601   -0.4128 C.ar      1 <0>        -0.1526
      8 N1          1.1648   -2.0582   -0.0197 N.pl3     1 <0>        -0.6458
      9 C8          1.1406   -0.6826   -0.1719 C.ar      1 <0>         0.4804
     10 C9          2.3300    0.0624   -0.1705 C.ar      1 <0>        -0.2497
     11 C10         3.7505   -0.2545   -0.0368 C.2       1 <0>        -0.1391
     12 C11         4.4171    0.9088   -0.1171 C.2       1 <0>         0.0720
     13 N2          3.5316    1.9406   -0.2915 N.pl3     1 <0>        -0.5648
     14 H1          3.7764    2.8753   -0.3763 H         1 <0>         0.4222
     15 C12         2.2521    1.4584   -0.3283 C.ar      1 <0>         0.3464
     16 N3          1.0513    2.0169   -0.4726 N.ar      1 <0>        -0.5643
     17 C13        -0.0377    1.2792   -0.4679 C.ar      1 <0>         0.3565
     18 N4         -0.0102   -0.0335   -0.3228 N.ar      1 <0>        -0.5835
     19 C14         5.9142    1.0574   -0.0287 C.3       1 <0>        -0.0917
     20 C15         4.3515   -1.6230    0.1553 C.3       1 <0>        -0.0843
     21 H2         -1.1289   -6.8749   -0.0767 H         1 <0>         0.0711
     22 H3         -2.4404   -6.3529   -1.1610 H         1 <0>         0.0680
     23 H4         -0.7478   -6.2640   -1.7045 H         1 <0>         0.0654
     24 H5         -3.3289   -4.7289    0.4073 H         1 <0>         0.1216
     25 H6         -3.1685   -2.4436    1.3060 H         1 <0>         0.1249
     26 H7         -1.0588   -1.1900    1.1179 H         1 <0>         0.1359
     27 H8          0.7258   -4.5149   -0.8950 H         1 <0>         0.1217
     28 H9          2.0128   -2.5283    0.0081 H         1 <0>         0.4185
     29 H10        -0.9936    1.7663   -0.5922 H         1 <0>         0.2018
     30 H11         6.3463    0.9820   -1.0265 H         1 <0>         0.0809
     31 H12         6.1581    2.0292    0.4005 H         1 <0>         0.0716
     32 H13         6.3209    0.2684    0.6039 H         1 <0>         0.0883
     33 H14         4.5674   -2.0648   -0.8175 H         1 <0>         0.0710
     34 H15         5.2747   -1.5373    0.7284 H         1 <0>         0.0739
     35 H16         3.6471   -2.2569    0.6938 H         1 <0>         0.0591
@<TRIPOS>BOND
     1    1    2 1
     2    1   21 1
     3    1   22 1
     4    1   23 1
     5    2    7 ar
     6    2    3 ar
     7    3    4 ar
     8    3   24 1
     9    4    5 ar
    10    4   25 1
    11    5    6 ar
    12    5   26 1
    13    6    7 ar
    14    6    8 1
    15    7   27 1
    16    8    9 1
    17    8   28 1
    18    9   18 ar
    19    9   10 ar
    20   10   15 ar
    21   10   11 1
    22   11   12 2
    23   11   20 1
    24   12   13 1
    25   12   19 1
    26   13   14 1
    27   13   15 1
    28   15   16 ar
    29   16   17 ar
    30   17   18 ar
    31   17   29 1
    32   19   30 1
    33   19   31 1
    34   19   32 1
    35   20   33 1
    36   20   34 1
    37   20   35 1
@<TRIPOS>MOLECULE
ZINC03815362
   33    35     0     0     0
SMALL
USER_CHARGES

@<TRIPOS>ATOM
      1 C1          5.9506    2.8074   -0.3307 C.ar      1 <0>        -0.0973
      2 C2          5.9590    1.5604    0.2674 C.ar      1 <0>        -0.0912
      3 C3          4.7895    1.0261    0.7760 C.ar      1 <0>        -0.1617
      4 C4          3.6094    1.7390    0.6928 C.ar      1 <0>        -0.0649
      5 C5          3.5964    2.9895    0.0884 C.ar      1 <0>         0.1574
      6 C6          4.7734    3.5233   -0.4215 C.ar      1 <0>        -0.1185
      7 N1          2.4031    3.7117   -0.0014 N.pl3     1 <0>        -0.6404
      8 C7          1.2034    3.0463   -0.1533 C.ar      1 <0>         0.4461
      9 C8         -0.0265    3.7489   -0.1294 C.ar      1 <0>        -0.1311
     10 C9         -0.0854    5.1352    0.0472 C.ar      1 <0>        -0.1828
     11 C10        -1.3140    5.7635    0.0624 C.ar      1 <0>         0.2144
     12 C11        -2.4919    5.0270   -0.0985 C.ar      1 <0>        -0.1313
     13 C12        -2.4556    3.6769   -0.2721 C.ar      1 <0>        -0.0574
     14 C13        -1.2232    3.0091   -0.2913 C.ar      1 <0>         0.1389
     15 N2         -1.1403    1.6809   -0.4649 N.ar      1 <0>        -0.5271
     16 C14         0.0266    1.0825   -0.4733 C.ar      1 <0>         0.3220
     17 N3          1.1707    1.7320   -0.3261 N.ar      1 <0>        -0.5734
     18 N4         -1.3817    7.1481    0.2392 N.pl3     1 <0>        -0.8728
     19 C15         4.8036   -0.3328    1.4273 C.3       1 <0>         0.5094
     20 F1          6.1029   -0.8507    1.3975 F         1 <0>        -0.1768
     21 F2          4.3776   -0.2180    2.7549 F         1 <0>        -0.1769
     22 F3          3.9435   -1.1911    0.7341 F         1 <0>        -0.1721
     23 H1          6.8659    3.2218   -0.7269 H         1 <0>         0.1399
     24 H2          6.8813    1.0028    0.3378 H         1 <0>         0.1400
     25 H3          2.6970    1.3229    1.0938 H         1 <0>         0.1482
     26 H4          4.7675    4.4970   -0.8887 H         1 <0>         0.1342
     27 H5          2.4181    4.6806    0.0431 H         1 <0>         0.4226
     28 H6          0.8217    5.7080    0.1718 H         1 <0>         0.1237
     29 H7         -3.4441    5.5363   -0.0845 H         1 <0>         0.1355
     30 H8         -3.3740    3.1219   -0.3942 H         1 <0>         0.1448
     31 H9          0.0558    0.0117   -0.6110 H         1 <0>         0.1959
     32 H10        -2.2430    7.5942    0.2500 H         1 <0>         0.4020
     33 H11        -0.5674    7.6631    0.3512 H         1 <0>         0.4010
@<TRIPOS>BOND
     1    1    6 ar
     2    1    2 ar
     3    1   23 1
     4    2    3 ar
     5    2   24 1
     6    3    4 ar
     7    3   19 1
     8    4    5 ar
     9    4   25 1
    10    5    6 ar
    11    5    7 1
    12    6   26 1
    13    7    8 1
    14    7   27 1
    15    8   17 ar
    16    8    9 ar
    17    9   14 ar
    18    9   10 ar
    19   10   11 ar
    20   10   28 1
    21   11   12 ar
    22   11   18 1
    23   12   13 ar
    24   12   29 1
    25   13   14 ar
    26   13   30 1
    27   14   15 ar
    28   15   16 ar
    29   16   17 ar
    30   16   31 1
    31   18   32 1
    32   18   33 1
    33   19   20 1
    34   19   21 1
    35   19   22 1
@<TRIPOS>MOLECULE
ZINC03815364
   33    35     0     0     0
SMALL
USER_CHARGES

@<TRIPOS>ATOM
      1 C1         -7.1149    5.4514    0.0971 C.ar      1 <0>        -0.0988
      2 C2         -6.5787    5.0354   -1.1072 C.ar      1 <0>        -0.1196
      3 C3         -5.4831    4.1926   -1.1216 C.ar      1 <0>        -0.0971
      4 C4         -4.9241    3.7653    0.0683 C.ar      1 <0>        -0.1336
      5 C5         -5.4638    4.1767    1.2726 C.ar      1 <0>        -0.0970
      6 C6         -6.5559    5.0242    1.2870 C.ar      1 <0>        -0.1197
      7 C7         -3.7300    2.8460    0.0526 C.3       1 <0>         0.1593
      8 N1         -2.5006    3.6426    0.0446 N.pl3     1 <0>        -0.6597
      9 C8         -1.2740    3.0160    0.0300 C.ar      1 <0>         0.5212
     10 C9         -0.0745    3.7650    0.0221 C.ar      1 <0>        -0.2645
     11 C10        -0.0557    5.1619    0.0281 C.ar      1 <0>         0.2636
     12 C11         2.2642    5.1758    0.0064 C.ar      1 <0>         0.4420
     13 C12         2.3453    3.7954   -0.0009 C.ar      1 <0>        -0.1941
     14 C13         1.1566    3.0567    0.0070 C.ar      1 <0>         0.3056
     15 N2          1.1330    1.7181    0.0005 N.ar      1 <0>        -0.5634
     16 C14        -0.0126    1.0758    0.0080 C.ar      1 <0>         0.4322
     17 N3         -1.1838    1.6912    0.0170 N.ar      1 <0>        -0.5915
     18 N4          3.4343    5.9239   -0.0013 N.pl3     1 <0>        -0.8292
     19 H1         -7.9704    6.1105    0.1084 H         1 <0>         0.1295
     20 H2         -7.0155    5.3692   -2.0368 H         1 <0>         0.1295
     21 H3         -5.0642    3.8675   -2.0625 H         1 <0>         0.1258
     22 H4         -5.0298    3.8394    2.2022 H         1 <0>         0.1259
     23 H5         -6.9746    5.3494    2.2279 H         1 <0>         0.1295
     24 H6         -3.7641    2.2215   -0.8401 H         1 <0>         0.0977
     25 H7         -3.7471    2.2131    0.9398 H         1 <0>         0.0976
     26 H8         -2.5503    4.6114    0.0497 H         1 <0>         0.4152
     27 H9         -0.9838    5.7141    0.0393 H         1 <0>         0.1954
     28 H10         3.3042    3.2985   -0.0122 H         1 <0>         0.1911
     29 H11         0.0021   -0.0041    0.0020 H         1 <0>         0.2197
     30 H12         4.2954    5.4774   -0.0117 H         1 <0>         0.4384
     31 H13         3.3905    6.8929    0.0037 H         1 <0>         0.4189
     32 N5          1.0900    5.8897    0.0206 N.ar      1 <0>        -0.5426
     33 H14         1.0800    6.9164    0.0253 H         1 <0>         0.4728
@<TRIPOS>BOND
     1    1    6 ar
     2    1    2 ar
     3    1   19 1
     4    2    3 ar
     5    2   20 1
     6    3    4 ar
     7    3   21 1
     8    4    5 ar
     9    4    7 1
    10    5    6 ar
    11    5   22 1
    12    6   23 1
    13    7    8 1
    14    7   24 1
    15    7   25 1
    16    8    9 1
    17    8   26 1
    18    9   17 ar
    19    9   10 ar
    20   10   14 ar
    21   10   11 ar
    22   11   27 1
    23   11   32 ar
    24   12   13 ar
    25   12   18 1
    26   12   32 ar
    27   13   14 ar
    28   13   28 1
    29   14   15 ar
    30   15   16 ar
    31   16   17 ar
    32   16   29 1
    33   18   30 1
    34   18   31 1
    35   32   33 1
@<TRIPOS>MOLECULE
ZINC03815365
   36    38     0     0     0
SMALL
USER_CHARGES

@<TRIPOS>ATOM
      1 C1          8.2775   -3.2631   -7.0277 C.3       1 <0>         0.0203
      2 O1          7.0376   -2.5694   -6.8747 O.3       1 <0>        -0.3009
      3 C2          6.6158   -2.3329   -5.6052 C.ar      1 <0>         0.1544
      4 C3          7.3807   -2.7603   -4.5425 C.ar      1 <0>        -0.2056
      5 C4          6.9436   -2.5153   -3.2351 C.ar      1 <0>         0.2219
      6 C5          5.7205   -1.8311   -3.0264 C.ar      1 <0>        -0.2167
      7 C6          4.9617   -1.4071   -4.1239 C.ar      1 <0>        -0.0613
      8 C7          5.4070   -1.6562   -5.3910 C.ar      1 <0>         0.0745
      9 O2          4.6695   -1.2435   -6.4563 O.3       1 <0>        -0.4825
     10 C8          5.3044   -1.5983   -1.6939 C.ar      1 <0>         0.4825
     11 N1          6.0829   -2.0274   -0.7095 N.ar      1 <0>        -0.6008
     12 C9          7.2157   -2.6676   -0.9525 C.ar      1 <0>         0.3584
     13 N2          7.6513   -2.9112   -2.1655 N.ar      1 <0>        -0.5605
     14 N3          4.1233   -0.9376   -1.4260 N.pl3     1 <0>        -0.6922
     15 C10         3.7112   -0.7071   -0.0392 C.3       1 <0>         0.1697
     16 C11         2.3960    0.0285   -0.0217 C.ar      1 <0>        -0.1174
     17 C12         1.2084   -0.6789   -0.0136 C.ar      1 <0>        -0.0991
     18 C13         0.0021   -0.0041    0.0020 C.ar      1 <0>        -0.1218
     19 C14        -0.0167    1.3781    0.0096 C.ar      1 <0>        -0.1085
     20 C15         1.1709    2.0855    0.0021 C.ar      1 <0>        -0.1215
     21 C16         2.3773    1.4107   -0.0141 C.ar      1 <0>        -0.0987
     22 H1          8.4966   -3.3860   -8.0884 H         1 <0>         0.1064
     23 H2          9.0754   -2.6894   -6.5561 H         1 <0>         0.0619
     24 H3          8.2064   -4.2428   -6.5554 H         1 <0>         0.0615
     25 H4          8.3111   -3.2804   -4.7164 H         1 <0>         0.1501
     26 H5          4.0290   -0.8849   -3.9695 H         1 <0>         0.1395
     27 H6          4.0246   -1.8950   -6.7642 H         1 <0>         0.3900
     28 H7          7.8104   -2.9998   -0.1144 H         1 <0>         0.1959
     29 H8          3.5657   -0.6257   -2.1559 H         1 <0>         0.4121
     30 H9          4.4679   -0.1107    0.4703 H         1 <0>         0.0819
     31 H10         3.5990   -1.6641    0.4703 H         1 <0>         0.0819
     32 H11         1.2231   -1.7587   -0.0199 H         1 <0>         0.1244
     33 H12        -0.9258   -0.5567    0.0079 H         1 <0>         0.1255
     34 H13        -0.9592    1.9054    0.0170 H         1 <0>         0.1248
     35 H14         1.1563    3.1654    0.0077 H         1 <0>         0.1256
     36 H15         3.3051    1.9634   -0.0207 H         1 <0>         0.1246
@<TRIPOS>BOND
     1    1    2 1
     2    1   22 1
     3    1   23 1
     4    1   24 1
     5    2    3 1
     6    3    8 ar
     7    3    4 ar
     8    4    5 ar
     9    4   25 1
    10    5   13 ar
    11    5    6 ar
    12    6    7 ar
    13    6   10 ar
    14    7    8 ar
    15    7   26 1
    16    8    9 1
    17    9   27 1
    18   10   11 ar
    19   10   14 1
    20   11   12 ar
    21   12   13 ar
    22   12   28 1
    23   14   15 1
    24   14   29 1
    25   15   16 1
    26   15   30 1
    27   15   31 1
    28   16   21 ar
    29   16   17 ar
    30   17   18 ar
    31   17   32 1
    32   18   19 ar
    33   18   33 1
    34   19   20 ar
    35   19   34 1
    36   20   21 ar
    37   20   35 1
    38   21   36 1
@<TRIPOS>MOLECULE
ZINC03815366
   40    43     0     0     0
SMALL
USER_CHARGES

@<TRIPOS>ATOM
      1 C1          3.9732    3.6195    0.0048 C.ar      1 <0>        -0.1196
      2 C2          3.3738    4.4689   -0.9079 C.ar      1 <0>        -0.1112
      3 C3          2.0036    4.6319   -0.9063 C.ar      1 <0>        -0.1078
      4 C4          1.2229    3.9385    0.0177 C.ar      1 <0>        -0.0117
      5 C5          1.8331    3.0880    0.9387 C.ar      1 <0>        -0.1263
      6 C6          3.2038    2.9289    0.9240 C.ar      1 <0>        -0.1127
      7 C7         -0.2494    4.1097    0.0250 C.2       1 <0>        -0.0943
      8 C8         -0.9291    5.2829    0.0338 C.2       1 <0>         0.0611
      9 N1         -2.2760    5.0342    0.0389 N.pl3     1 <0>        -0.4082
     10 C9         -2.5086    3.6829    0.0334 C.ar      1 <0>         0.3514
     11 C10        -1.2577    3.0416    0.0304 C.ar      1 <0>        -0.2506
     12 C11        -1.2185    1.6412    0.0167 C.ar      1 <0>         0.4947
     13 N2         -2.3712    0.9770    0.0186 N.ar      1 <0>        -0.5987
     14 C12        -3.5254    1.6185    0.0275 C.ar      1 <0>         0.3636
     15 N3         -3.6085    2.9315    0.0346 N.ar      1 <0>        -0.5644
     16 N4         -0.0111    0.9658    0.0074 N.pl3     1 <0>        -0.8300
     17 C13        -3.2725    6.0187    0.0487 C.ar      1 <0>         0.1189
     18 C14        -4.3120    5.9657   -0.8708 C.ar      1 <0>        -0.0917
     19 C15        -5.2957    6.9348   -0.8551 C.ar      1 <0>        -0.1040
     20 C16        -5.2405    7.9634    0.0678 C.ar      1 <0>        -0.0928
     21 C17        -4.2041    8.0217    0.9811 C.ar      1 <0>        -0.0790
     22 C18        -3.2199    7.0525    0.9739 C.ar      1 <0>        -0.0971
     23 C19        -4.1477    9.1442    1.9850 C.3       1 <0>         0.1167
     24 O1         -3.4090   10.2375    1.4363 O.3       1 <0>        -0.5672
     25 H1          5.0459    3.4948   -0.0004 H         1 <0>         0.1247
     26 H2          3.9795    5.0051   -1.6234 H         1 <0>         0.1263
     27 H3          1.5367    5.2950   -1.6196 H         1 <0>         0.1253
     28 H4          1.2339    2.5517    1.6596 H         1 <0>         0.1246
     29 H5          3.6772    2.2675    1.6345 H         1 <0>         0.1265
     30 H6         -0.4774    6.2639    0.0370 H         1 <0>         0.1820
     31 H7         -4.4385    1.0417    0.0287 H         1 <0>         0.2015
     32 H8          0.0021   -0.0041    0.0020 H         1 <0>         0.4080
     33 H9          0.8223    1.4622    0.0021 H         1 <0>         0.4125
     34 H10        -4.3532    5.1653   -1.5946 H         1 <0>         0.1313
     35 H11        -6.1063    6.8921   -1.5674 H         1 <0>         0.1358
     36 H12        -6.0084    8.7228    0.0750 H         1 <0>         0.1311
     37 H13        -2.4105    7.0986    1.6875 H         1 <0>         0.1299
     38 H14        -5.1602    9.4719    2.2209 H         1 <0>         0.0604
     39 H15        -3.6580    8.7946    2.8939 H         1 <0>         0.0570
     40 H16        -3.3321   10.9973    2.0294 H         1 <0>         0.3839
@<TRIPOS>BOND
     1    1    6 ar
     2    1    2 ar
     3    1   25 1
     4    2    3 ar
     5    2   26 1
     6    3    4 ar
     7    3   27 1
     8    4    5 ar
     9    4    7 1
    10    5    6 ar
    11    5   28 1
    12    6   29 1
    13    7   11 1
    14    7    8 2
    15    8    9 1
    16    8   30 1
    17    9   10 1
    18    9   17 1
    19   10   15 ar
    20   10   11 ar
    21   11   12 ar
    22   12   13 ar
    23   12   16 1
    24   13   14 ar
    25   14   15 ar
    26   14   31 1
    27   16   32 1
    28   16   33 1
    29   17   22 ar
    30   17   18 ar
    31   18   19 ar
    32   18   34 1
    33   19   20 ar
    34   19   35 1
    35   20   21 ar
    36   20   36 1
    37   21   22 ar
    38   21   23 1
    39   22   37 1
    40   23   24 1
    41   23   38 1
    42   23   39 1
    43   24   40 1
@<TRIPOS>MOLECULE
ZINC03815367
   30    32     0     0     0
SMALL
USER_CHARGES

@<TRIPOS>ATOM
      1 C1          6.3903   -5.7741   -0.0946 C.ar      1 <0>        -0.1085
      2 C2          5.7550   -5.5382    1.1103 C.ar      1 <0>        -0.1217
      3 C3          4.4615   -5.0509    1.1258 C.ar      1 <0>        -0.0979
      4 C4          3.8031   -4.7999   -0.0635 C.ar      1 <0>        -0.1164
      5 C5          4.4364   -5.0412   -1.2683 C.ar      1 <0>        -0.0979
      6 C6          5.7320   -5.5231   -1.2839 C.ar      1 <0>        -0.1217
      7 C7          2.3928   -4.2691   -0.0465 C.3       1 <0>         0.1663
      8 N1          2.4224   -2.8044   -0.0376 N.pl3     1 <0>        -0.6744
      9 C8          1.2425   -2.0911   -0.0218 C.ar      1 <0>         0.4907
     10 C9          1.2495   -0.6715   -0.0134 C.ar      1 <0>        -0.0156
     11 C10         0.0021   -0.0041    0.0020 C.ar      1 <0>         0.1428
     12 C11        -0.0170    1.4009    0.0097 C.ar      1 <0>        -0.0651
     13 C12         1.1805    2.0604    0.0019 C.ar      1 <0>        -0.1293
     14 C13         2.3718    1.3387   -0.0125 C.ar      1 <0>         0.1060
     15 N2          2.3823    0.0265   -0.0201 N.ar      1 <0>        -0.4452
     16 N3         -1.1234   -0.7309    0.0083 N.ar      1 <0>        -0.5524
     17 C14        -1.0686   -2.0416    0.0004 C.ar      1 <0>         0.3554
     18 N4          0.0724   -2.7126   -0.0144 N.ar      1 <0>        -0.5925
     19 H1          7.4012   -6.1541   -0.1067 H         1 <0>         0.1248
     20 H2          6.2694   -5.7343    2.0395 H         1 <0>         0.1255
     21 H3          3.9652   -4.8666    2.0671 H         1 <0>         0.1241
     22 H4          3.9205   -4.8493   -2.1975 H         1 <0>         0.1241
     23 H5          6.2284   -5.7071   -2.2252 H         1 <0>         0.1255
     24 H6          1.8804   -4.6276    0.8462 H         1 <0>         0.0827
     25 H7          1.8632   -4.6164   -0.9336 H         1 <0>         0.0827
     26 H8          3.2720   -2.3364   -0.0429 H         1 <0>         0.4228
     27 H9         -0.9505    1.9440    0.0171 H         1 <0>         0.1513
     28 H10         1.2028    3.1401    0.0078 H         1 <0>         0.1479
     29 H11         3.3106    1.8726   -0.0183 H         1 <0>         0.1665
     30 H12        -1.9946   -2.5974    0.0059 H         1 <0>         0.1996
@<TRIPOS>BOND
     1    1    6 ar
     2    1    2 ar
     3    1   19 1
     4    2    3 ar
     5    2   20 1
     6    3    4 ar
     7    3   21 1
     8    4    5 ar
     9    4    7 1
    10    5    6 ar
    11    5   22 1
    12    6   23 1
    13    7    8 1
    14    7   24 1
    15    7   25 1
    16    8    9 1
    17    8   26 1
    18    9   18 ar
    19    9   10 ar
    20   10   15 ar
    21   10   11 ar
    22   11   12 ar
    23   11   16 ar
    24   12   13 ar
    25   12   27 1
    26   13   14 ar
    27   13   28 1
    28   14   15 ar
    29   14   29 1
    30   16   17 ar
    31   17   18 ar
    32   17   30 1
@<TRIPOS>MOLECULE
ZINC03815368
   51    53     0     0     0
SMALL
USER_CHARGES

@<TRIPOS>ATOM
      1 C1          4.7452    4.1433    2.4915 C.3       1 <0>        -0.1183
      2 C2          5.3689    4.5451    1.1798 C.ar      1 <0>        -0.0599
      3 C3          6.5375    5.2792    1.1660 C.ar      1 <0>        -0.1258
      4 C4          7.1078    5.6539   -0.0372 C.ar      1 <0>        -0.1015
      5 C5          6.5144    5.2909   -1.2329 C.ar      1 <0>        -0.1257
      6 C6          5.3491    4.5516   -1.2314 C.ar      1 <0>        -0.0598
      7 C7          4.7698    4.1711   -0.0220 C.ar      1 <0>        -0.0609
      8 C8          3.5179    3.3767   -0.0138 C.ar      1 <0>        -0.1501
      9 C9          3.5691    1.9916   -0.0217 C.ar      1 <0>         0.0324
     10 C10         2.3540    1.2879   -0.0135 C.ar      1 <0>        -0.2938
     11 C11         2.3093   -0.1169   -0.0206 C.ar      1 <0>         0.2630
     12 N1          1.1319   -0.7082   -0.0125 N.ar      1 <0>        -0.5712
     13 C12         0.0021   -0.0041    0.0020 C.ar      1 <0>         0.5940
     14 N2         -0.0158    1.3152    0.0093 N.ar      1 <0>        -0.5641
     15 C13         1.1302    2.0077    0.0020 C.ar      1 <0>         0.4256
     16 N3          1.1376    3.3417    0.0087 N.ar      1 <0>        -0.4765
     17 C14         2.2646    4.0243    0.0012 C.ar      1 <0>         0.4710
     18 N4          2.2178    5.4108    0.0086 N.am      1 <0>        -0.6598
     19 C15         1.0286    6.0449    0.0233 C.2       1 <0>         0.6903
     20 O1         -0.0031    5.4018    0.0301 O.2       1 <0>        -0.5047
     21 N5          0.9831    7.3918    0.0305 N.am      1 <0>        -0.7358
     22 C16        -0.3096    8.0810    0.0465 C.3       1 <0>         0.1880
     23 C17        -1.0868    7.6782    1.3014 C.3       1 <0>        -0.1660
     24 C18        -0.0809    9.5938    0.0519 C.3       1 <0>        -0.1554
     25 C19        -1.1110    7.6908   -1.1969 C.3       1 <0>        -0.1660
     26 N6         -1.2015   -0.6829    0.0094 N.pl3     1 <0>        -0.8116
     27 C20         4.7044    4.1560   -2.5348 C.3       1 <0>        -0.1193
     28 H1          5.1451    3.1785    2.8036 H         1 <0>         0.0748
     29 H2          4.9749    4.8937    3.2480 H         1 <0>         0.0694
     30 H3          3.6645    4.0671    2.3717 H         1 <0>         0.0636
     31 H4          7.0053    5.5651    2.0965 H         1 <0>         0.1253
     32 H5          8.0197    6.2325   -0.0432 H         1 <0>         0.1248
     33 H6          6.9641    5.5863   -2.1693 H         1 <0>         0.1253
     34 H7          4.5145    1.4696   -0.0332 H         1 <0>         0.1502
     35 H8          3.2193   -0.6983   -0.0320 H         1 <0>         0.1798
     36 H9          3.0410    5.9239    0.0032 H         1 <0>         0.4149
     37 H10         1.8063    7.9050    0.0251 H         1 <0>         0.3940
     38 H11        -0.5158    7.9563    2.1873 H         1 <0>         0.0525
     39 H12        -2.0485    8.1910    1.3133 H         1 <0>         0.0639
     40 H13        -1.2496    6.6005    1.2976 H         1 <0>         0.0815
     41 H14         0.4728    9.8808   -0.8421 H         1 <0>         0.0622
     42 H15        -1.0427   10.1066    0.0638 H         1 <0>         0.0765
     43 H16         0.4900    9.8719    0.9378 H         1 <0>         0.0622
     44 H17        -1.2739    6.6130   -1.2008 H         1 <0>         0.0815
     45 H18        -2.0728    8.2036   -1.1850 H         1 <0>         0.0639
     46 H19        -0.5573    7.9777   -2.0909 H         1 <0>         0.0525
     47 H20        -2.0366   -0.1895    0.0197 H         1 <0>         0.4182
     48 H21        -1.2113   -1.6529    0.0042 H         1 <0>         0.4167
     49 H22         3.9981    4.9282   -2.8399 H         1 <0>         0.0705
     50 H23         5.4720    4.0428   -3.3003 H         1 <0>         0.0707
     51 H24         4.1766    3.2109   -2.4070 H         1 <0>         0.0672
@<TRIPOS>BOND
     1    1    2 1
     2    1   28 1
     3    1   29 1
     4    1   30 1
     5    2    7 ar
     6    2    3 ar
     7    3    4 ar
     8    3   31 1
     9    4    5 ar
    10    4   32 1
    11    5    6 ar
    12    5   33 1
    13    6    7 ar
    14    6   27 1
    15    7    8 1
    16    8   17 ar
    17    8    9 ar
    18    9   10 ar
    19    9   34 1
    20   10   15 ar
    21   10   11 ar
    22   11   12 ar
    23   11   35 1
    24   12   13 ar
    25   13   14 ar
    26   13   26 1
    27   14   15 ar
    28   15   16 ar
    29   16   17 ar
    30   17   18 1
    31   18   19 am
    32   18   36 1
    33   19   20 2
    34   19   21 am
    35   21   22 1
    36   21   37 1
    37   22   23 1
    38   22   24 1
    39   22   25 1
    40   23   38 1
    41   23   39 1
    42   23   40 1
    43   24   41 1
    44   24   42 1
    45   24   43 1
    46   25   44 1
    47   25   45 1
    48   25   46 1
    49   26   47 1
    50   26   48 1
    51   27   49 1
    52   27   50 1
    53   27   51 1
@<TRIPOS>MOLECULE
ZINC03815369
   41    43     0     0     0
SMALL
USER_CHARGES

@<TRIPOS>ATOM
      1 C1          7.1605    4.2855    0.9911 C.3       1 <0>        -0.1287
      2 C2          5.9000    3.4658    0.8897 C.ar      1 <0>        -0.0093
      3 C3          4.7189    4.0625    0.4939 C.ar      1 <0>        -0.1760
      4 C4          3.5576    3.3063    0.4007 C.ar      1 <0>         0.2225
      5 C5          3.5867    1.9524    0.7113 C.ar      1 <0>        -0.1816
      6 C6          4.7716    1.3602    1.1009 C.ar      1 <0>        -0.0392
      7 C7          5.9271    2.1162    1.1928 C.ar      1 <0>        -0.1376
      8 Br1         7.5464    1.3028    1.7331 Br        1 <0>        -0.0500
      9 N1          2.3608    3.9075    0.0009 N.pl3     1 <0>        -0.7026
     10 C8          1.2363    3.1343   -0.2088 C.ar      1 <0>         0.2620
     11 C9          0.3242    2.8723    0.8397 C.ar      1 <0>        -0.0984
     12 C10         0.5339    3.3902    2.1266 C.ar      1 <0>        -0.1595
     13 C11        -0.3622    3.1219    3.1206 C.ar      1 <0>         0.1278
     14 C12        -1.4929    2.3321    2.8684 C.ar      1 <0>         0.1557
     15 C13        -1.7214    1.8118    1.6151 C.ar      1 <0>        -0.1768
     16 C14        -0.8145    2.0735    0.5763 C.ar      1 <0>         0.1669
     17 N2         -1.0233    1.5794   -0.6529 N.ar      1 <0>        -0.4614
     18 C15        -0.1933    1.8014   -1.6399 C.ar      1 <0>         0.1790
     19 C16         0.9611    2.5824   -1.4690 C.ar      1 <0>        -0.0876
     20 C17         1.8478    2.8134   -2.5695 C.1       1 <0>         0.2539
     21 N3          2.5513    2.9966   -3.4424 N.1       1 <0>        -0.3936
     22 O1         -2.3721    2.0774    3.8722 O.3       1 <0>        -0.2961
     23 C18        -3.5042    1.2660    3.5527 C.3       1 <0>         0.0194
     24 O2         -0.1562    3.6249    4.3671 O.3       1 <0>        -0.2982
     25 C19         1.0142    4.4219    4.5598 C.3       1 <0>         0.0224
     26 H1          7.2450    4.6993    1.9959 H         1 <0>         0.0810
     27 H2          8.0233    3.6521    0.7852 H         1 <0>         0.0798
     28 H3          7.1248    5.0981    0.2654 H         1 <0>         0.0730
     29 H4          4.6984    5.1161    0.2574 H         1 <0>         0.1329
     30 H5          2.6843    1.3628    0.6437 H         1 <0>         0.1277
     31 H6          4.7958    0.3069    1.3381 H         1 <0>         0.1349
     32 H7          2.3202    4.8678   -0.1292 H         1 <0>         0.4190
     33 H8          1.4020    3.9996    2.3302 H         1 <0>         0.1482
     34 H9         -2.5951    1.2041    1.4316 H         1 <0>         0.1578
     35 H10        -0.4036    1.3774   -2.6106 H         1 <0>         0.1741
     36 H11        -4.1237    1.1407    4.4408 H         1 <0>         0.1078
     37 H12        -4.0871    1.7483    2.7681 H         1 <0>         0.0628
     38 H13        -3.1652    0.2899    3.2055 H         1 <0>         0.0630
     39 H14         0.9779    5.2867    3.8974 H         1 <0>         0.0583
     40 H15         1.0576    4.7591    5.5955 H         1 <0>         0.1073
     41 H16         1.8996    3.8278    4.3337 H         1 <0>         0.0596
@<TRIPOS>BOND
     1    1    2 1
     2    1   26 1
     3    1   27 1
     4    1   28 1
     5    2    7 ar
     6    2    3 ar
     7    3    4 ar
     8    3   29 1
     9    4    5 ar
    10    4    9 1
    11    5    6 ar
    12    5   30 1
    13    6    7 ar
    14    6   31 1
    15    7    8 1
    16    9   10 1
    17    9   32 1
    18   10   19 ar
    19   10   11 ar
    20   11   16 ar
    21   11   12 ar
    22   12   13 ar
    23   12   33 1
    24   13   14 ar
    25   13   24 1
    26   14   15 ar
    27   14   22 1
    28   15   16 ar
    29   15   34 1
    30   16   17 ar
    31   17   18 ar
    32   18   19 ar
    33   18   35 1
    34   19   20 1
    35   20   21 3
    36   22   23 1
    37   23   36 1
    38   23   37 1
    39   23   38 1
    40   24   25 1
    41   25   39 1
    42   25   40 1
    43   25   41 1
@<TRIPOS>MOLECULE
ZINC03815370
   45    48     0     0     0
SMALL
USER_CHARGES

@<TRIPOS>ATOM
      1 C1          2.1351    5.3790    0.7348 C.3       1 <0>         0.0700
      2 N1          2.2364    3.9321    0.5291 N.am      1 <0>        -0.5060
      3 C2          1.0995    3.1962    0.3092 C.ar      1 <0>         0.4678
      4 C3          1.1796    1.8010    0.1088 C.ar      1 <0>        -0.2800
      5 C4          2.4340    1.1499    0.1330 C.2       1 <0>         0.0325
      6 C5          3.5632    1.8925    0.3526 C.2       1 <0>        -0.1667
      7 C6          3.4448    3.3377    0.5574 C.2       1 <0>         0.5573
      8 O1          4.4443    4.0058    0.7538 O.2       1 <0>        -0.5027
      9 C7          4.8929    1.2397    0.3829 C.ar      1 <0>        -0.0090
     10 C8          5.4100    0.7585    1.5863 C.ar      1 <0>        -0.0065
     11 C9          6.6480    0.1466    1.6068 C.ar      1 <0>        -0.1066
     12 C10         7.3794    0.0195    0.4396 C.ar      1 <0>        -0.0879
     13 C11         6.8749    0.4991   -0.7557 C.ar      1 <0>        -0.1065
     14 C12         5.6360    1.1087   -0.7908 C.ar      1 <0>        -0.0067
     15 Cl1         5.0051    1.7110   -2.2918 Cl        1 <0>        -0.0503
     16 Cl2         4.4965    0.9229    3.0534 Cl        1 <0>        -0.0503
     17 C13        -0.0067    1.0857   -0.1133 C.ar      1 <0>         0.2650
     18 N2         -1.1490    1.7465   -0.1308 N.ar      1 <0>        -0.5700
     19 C14        -1.1870    3.0598    0.0667 C.ar      1 <0>         0.6103
     20 N3         -0.0945    3.7774    0.2800 N.ar      1 <0>        -0.5969
     21 N4         -2.4101    3.7010    0.0435 N.pl3     1 <0>        -0.6154
     22 C15        -3.5906    2.9540   -0.0549 C.ar      1 <0>         0.1268
     23 C16        -3.6700    1.6985    0.5301 C.ar      1 <0>        -0.0737
     24 C17        -4.8381    0.9657    0.4365 C.ar      1 <0>        -0.1359
     25 C18        -5.9252    1.4757   -0.2491 C.ar      1 <0>        -0.0914
     26 C19        -5.8515    2.7238   -0.8395 C.ar      1 <0>        -0.1899
     27 C20        -4.6864    3.4672   -0.7454 C.ar      1 <0>         0.1048
     28 O2         -4.6123    4.6947   -1.3261 O.3       1 <0>        -0.3202
     29 C21        -5.7745    5.1565   -2.0175 C.3       1 <0>         0.0288
     30 H1          2.0119    5.5872    1.7976 H         1 <0>         0.0744
     31 H2          3.0429    5.8619    0.3729 H         1 <0>         0.0918
     32 H3          1.2753    5.7646    0.1869 H         1 <0>         0.0951
     33 H4          2.5008    0.0828   -0.0198 H         1 <0>         0.1500
     34 H5          7.0478   -0.2296    2.5369 H         1 <0>         0.1436
     35 H6          8.3489   -0.4561    0.4618 H         1 <0>         0.1452
     36 H7          7.4511    0.3970   -1.6634 H         1 <0>         0.1435
     37 H8          0.0148    0.0175   -0.2710 H         1 <0>         0.1879
     38 H9         -2.4515    4.6688    0.0955 H         1 <0>         0.4292
     39 H10        -2.8208    1.2957    1.0621 H         1 <0>         0.1424
     40 H11        -4.9003   -0.0096    0.8960 H         1 <0>         0.1293
     41 H12        -6.8343    0.8975   -0.3238 H         1 <0>         0.1276
     42 H13        -6.7023    3.1190   -1.3745 H         1 <0>         0.1329
     43 H14        -5.5813    6.1458   -2.4324 H         1 <0>         0.1015
     44 H15        -6.0159    4.4648   -2.8246 H         1 <0>         0.0572
     45 H16        -6.6127    5.2112   -1.3229 H         1 <0>         0.0574
@<TRIPOS>BOND
     1    1    2 1
     2    1   30 1
     3    1   31 1
     4    1   32 1
     5    2    7 am
     6    2    3 1
     7    3   20 ar
     8    3    4 ar
     9    4    5 1
    10    4   17 ar
    11    5    6 2
    12    5   33 1
    13    6    7 1
    14    6    9 1
    15    7    8 2
    16    9   14 ar
    17    9   10 ar
    18   10   11 ar
    19   10   16 1
    20   11   12 ar
    21   11   34 1
    22   12   13 ar
    23   12   35 1
    24   13   14 ar
    25   13   36 1
    26   14   15 1
    27   17   18 ar
    28   17   37 1
    29   18   19 ar
    30   19   20 ar
    31   19   21 1
    32   21   22 1
    33   21   38 1
    34   22   27 ar
    35   22   23 ar
    36   23   24 ar
    37   23   39 1
    38   24   25 ar
    39   24   40 1
    40   25   26 ar
    41   25   41 1
    42   26   27 ar
    43   26   42 1
    44   27   28 1
    45   28   29 1
    46   29   43 1
    47   29   44 1
    48   29   45 1
@<TRIPOS>MOLECULE
ZINC03815371
   41    44     0     0     0
SMALL
USER_CHARGES

@<TRIPOS>ATOM
      1 C1          4.8068    0.2243   -0.0302 C.3       1 <0>         0.0217
      2 O1          4.7932    1.6532   -0.0180 O.3       1 <0>        -0.3004
      3 C2          3.5758    2.2589   -0.0042 C.ar      1 <0>         0.1121
      4 C3          2.4422    1.4968   -0.0025 C.ar      1 <0>        -0.1518
      5 C4          1.1883    2.1194    0.0112 C.ar      1 <0>        -0.1790
      6 C5          1.1019    3.5338    0.0233 C.ar      1 <0>         0.1970
      7 C6          2.2769    4.2952    0.0213 C.ar      1 <0>        -0.1811
      8 C7          3.4981    3.6585    0.0077 C.ar      1 <0>         0.1597
      9 O2          4.6398    4.3949    0.0063 O.3       1 <0>        -0.2980
     10 C8          4.4948    5.8165    0.0188 C.3       1 <0>         0.0204
     11 N1         -0.1125    4.1054    0.0358 N.ar      1 <0>        -0.5413
     12 C9         -1.1957    3.3656    0.0369 C.ar      1 <0>         0.3334
     13 N2         -1.1637    2.0425    0.0204 N.ar      1 <0>        -0.5210
     14 C10        -0.0163    1.3769    0.0132 C.ar      1 <0>         0.4517
     15 N3          0.0021   -0.0041    0.0020 N.pl3     1 <0>        -0.6279
     16 C11        -1.1895   -0.7177    0.1147 C.ar      1 <0>         0.3543
     17 C12        -1.1447   -2.0937    0.2101 C.ar      1 <0>        -0.2103
     18 C13        -2.3543   -2.7982    0.3231 C.ar      1 <0>         0.0085
     19 C14        -2.3967   -4.1972    0.4252 C.ar      1 <0>        -0.1242
     20 C15        -3.6003   -4.8252    0.5328 C.ar      1 <0>        -0.0878
     21 C16        -4.7906   -4.0996    0.5436 C.ar      1 <0>        -0.1326
     22 C17        -4.7877   -2.7416    0.4470 C.ar      1 <0>        -0.0743
     23 C18        -3.5664   -2.0579    0.3336 C.ar      1 <0>        -0.1402
     24 C19        -3.5051   -0.6596    0.2312 C.ar      1 <0>         0.1823
     25 N4         -2.3440   -0.0561    0.1334 N.ar      1 <0>        -0.4599
     26 H1          5.8378   -0.1292   -0.0405 H         1 <0>         0.1067
     27 H2          4.3028   -0.1514    0.8603 H         1 <0>         0.0571
     28 H3          4.2900   -0.1364   -0.9196 H         1 <0>         0.0570
     29 H4          2.5128    0.4192   -0.0114 H         1 <0>         0.1375
     30 H5          2.2259    5.3740    0.0308 H         1 <0>         0.1557
     31 H6          3.9526    6.1185    0.9149 H         1 <0>         0.0619
     32 H7          5.4803    6.2822    0.0162 H         1 <0>         0.1068
     33 H8          3.9410    6.1330   -0.8650 H         1 <0>         0.0619
     34 H9         -2.1567    3.8582    0.0471 H         1 <0>         0.1968
     35 H10         0.8444   -0.4772   -0.0843 H         1 <0>         0.4258
     36 H11        -0.2001   -2.6173    0.1984 H         1 <0>         0.1361
     37 H12        -1.4820   -4.7714    0.4188 H         1 <0>         0.1297
     38 H13        -3.6331   -5.9018    0.6114 H         1 <0>         0.1266
     39 H14        -5.7310   -4.6236    0.6304 H         1 <0>         0.1266
     40 H15        -5.7185   -2.1939    0.4568 H         1 <0>         0.1335
     41 H16        -4.4155   -0.0786    0.2374 H         1 <0>         0.1690
@<TRIPOS>BOND
     1    1    2 1
     2    1   26 1
     3    1   27 1
     4    1   28 1
     5    2    3 1
     6    3    8 ar
     7    3    4 ar
     8    4    5 ar
     9    4   29 1
    10    5   14 ar
    11    5    6 ar
    12    6    7 ar
    13    6   11 ar
    14    7    8 ar
    15    7   30 1
    16    8    9 1
    17    9   10 1
    18   10   31 1
    19   10   32 1
    20   10   33 1
    21   11   12 ar
    22   12   13 ar
    23   12   34 1
    24   13   14 ar
    25   14   15 1
    26   15   16 1
    27   15   35 1
    28   16   25 ar
    29   16   17 ar
    30   17   18 ar
    31   17   36 1
    32   18   23 ar
    33   18   19 ar
    34   19   20 ar
    35   19   37 1
    36   20   21 ar
    37   20   38 1
    38   21   22 ar
    39   21   39 1
    40   22   23 ar
    41   22   40 1
    42   23   24 ar
    43   24   25 ar
    44   24   41 1
@<TRIPOS>MOLECULE
ZINC03815372
   41    44     0     0     0
SMALL
USER_CHARGES

@<TRIPOS>ATOM
      1 C1          0.0686    1.0901    0.1116 C.3       1 <0>         0.0696
      2 N1         -0.4259    1.5832    1.3995 N.am      1 <0>        -0.5060
      3 C2         -0.5383    2.9341    1.6115 C.ar      1 <0>         0.4668
      4 C3         -1.0177    3.4257    2.8451 C.ar      1 <0>        -0.2745
      5 C4         -1.3764    2.5288    3.8772 C.2       1 <0>         0.0297
      6 C5         -1.2560    1.1827    3.6583 C.2       1 <0>        -0.1618
      7 C6         -0.7604    0.7059    2.3652 C.2       1 <0>         0.5574
      8 O1         -0.6506   -0.4901    2.1619 O.2       1 <0>        -0.5012
      9 C7         -1.6232    0.2169    4.7201 C.ar      1 <0>        -0.0111
     10 C8         -0.6650   -0.2112    5.6398 C.ar      1 <0>        -0.0064
     11 C9         -1.0149   -1.1086    6.6296 C.ar      1 <0>        -0.1063
     12 C10        -2.3095   -1.5900    6.7049 C.ar      1 <0>        -0.0869
     13 C11        -3.2629   -1.1733    5.7934 C.ar      1 <0>        -0.1063
     14 C12        -2.9273   -0.2729    4.8013 C.ar      1 <0>        -0.0063
     15 Cl1        -4.1250    0.2479    3.6577 Cl        1 <0>        -0.0501
     16 Cl2         0.9618    0.3871    5.5434 Cl        1 <0>        -0.0500
     17 C13        -1.1222    4.8138    3.0193 C.ar      1 <0>         0.2647
     18 N2         -0.7728    5.6039    2.0214 N.ar      1 <0>        -0.5690
     19 C14        -0.3302    5.1055    0.8722 C.ar      1 <0>         0.6088
     20 N3         -0.2140    3.8034    0.6611 N.ar      1 <0>        -0.5926
     21 N4          0.0221    5.9779   -0.1398 N.pl3     1 <0>        -0.6260
     22 C15        -0.1982    7.3501    0.0120 C.ar      1 <0>         0.1651
     23 C16        -1.3044    7.8034    0.7198 C.ar      1 <0>        -0.0950
     24 C17        -1.5171    9.1593    0.8718 C.ar      1 <0>        -0.0925
     25 C18        -0.6360   10.0663    0.3119 C.ar      1 <0>        -0.1036
     26 C19         0.4641    9.6187   -0.3977 C.ar      1 <0>        -0.0706
     27 C20         0.6851    8.2628   -0.5493 C.ar      1 <0>        -0.1174
     28 Br1         1.6659   10.8630   -1.1614 Br        1 <0>        -0.0432
     29 H1          0.0952    0.0006    0.1257 H         1 <0>         0.1011
     30 H2          1.0729    1.4758   -0.0637 H         1 <0>         0.0805
     31 H3         -0.5942    1.4272   -0.6853 H         1 <0>         0.0807
     32 H4         -1.7402    2.8998    4.8239 H         1 <0>         0.1513
     33 H5         -0.2751   -1.4382    7.3442 H         1 <0>         0.1440
     34 H6         -2.5770   -2.2945    7.4785 H         1 <0>         0.1456
     35 H7         -4.2719   -1.5532    5.8573 H         1 <0>         0.1440
     36 H8         -1.4807    5.2273    3.9504 H         1 <0>         0.1893
     37 H9          0.4222    5.6382   -0.9555 H         1 <0>         0.4284
     38 H10        -1.9953    7.0959    1.1539 H         1 <0>         0.1415
     39 H11        -2.3751    9.5119    1.4249 H         1 <0>         0.1374
     40 H12        -0.8073   11.1263    0.4286 H         1 <0>         0.1353
     41 H13         1.5436    7.9136   -1.1039 H         1 <0>         0.1360
@<TRIPOS>BOND
     1    1    2 1
     2    1   29 1
     3    1   30 1
     4    1   31 1
     5    2    7 am
     6    2    3 1
     7    3   20 ar
     8    3    4 ar
     9    4    5 1
    10    4   17 ar
    11    5    6 2
    12    5   32 1
    13    6    7 1
    14    6    9 1
    15    7    8 2
    16    9   14 ar
    17    9   10 ar
    18   10   11 ar
    19   10   16 1
    20   11   12 ar
    21   11   33 1
    22   12   13 ar
    23   12   34 1
    24   13   14 ar
    25   13   35 1
    26   14   15 1
    27   17   18 ar
    28   17   36 1
    29   18   19 ar
    30   19   20 ar
    31   19   21 1
    32   21   22 1
    33   21   37 1
    34   22   27 ar
    35   22   23 ar
    36   23   24 ar
    37   23   38 1
    38   24   25 ar
    39   24   39 1
    40   25   26 ar
    41   25   40 1
    42   26   27 ar
    43   26   28 1
    44   27   41 1
@<TRIPOS>MOLECULE
ZINC03815373
   34    36     0     0     0
SMALL
USER_CHARGES

@<TRIPOS>ATOM
      1 C1         -8.2262    1.2385   -1.0600 C.3       1 <0>         0.0229
      2 O1         -7.1366    0.6554   -0.3424 O.3       1 <0>        -0.3104
      3 C2         -5.9965    1.3903   -0.2471 C.ar      1 <0>         0.1425
      4 C3         -4.9004    0.8839    0.4358 C.ar      1 <0>        -0.1348
      5 C4         -3.7422    1.6295    0.5330 C.ar      1 <0>        -0.0527
      6 C5         -3.6748    2.8866   -0.0534 C.ar      1 <0>         0.0682
      7 C6         -4.7744    3.3950   -0.7324 C.ar      1 <0>        -0.0821
      8 C7         -5.9300    2.6459   -0.8332 C.ar      1 <0>        -0.1924
      9 N1         -2.5010    3.6432    0.0446 N.pl3     1 <0>        -0.6000
     10 C8         -1.2740    3.0160    0.0323 C.ar      1 <0>         0.5162
     11 C9         -0.0820    3.7450    0.2512 C.ar      1 <0>        -0.2611
     12 C10        -0.0711    5.1214    0.4897 C.ar      1 <0>         0.2635
     13 C11         2.2420    5.1176    0.6696 C.ar      1 <0>         0.4421
     14 C12         2.3305    3.7565    0.4415 C.ar      1 <0>        -0.1923
     15 C13         1.1494    3.0377    0.2253 C.ar      1 <0>         0.3047
     16 N2          1.1333    1.7187   -0.0041 N.ar      1 <0>        -0.5590
     17 C14        -0.0054    1.0944   -0.2012 C.ar      1 <0>         0.4282
     18 N3         -1.1761    1.7105   -0.1914 N.ar      1 <0>        -0.5812
     19 N4          3.4046    5.8460    0.8856 N.pl3     1 <0>        -0.8285
     20 H1         -8.5190    2.1724   -0.5802 H         1 <0>         0.0596
     21 H2         -7.9197    1.4380   -2.0868 H         1 <0>         0.0598
     22 H3         -9.0710    0.5497   -1.0603 H         1 <0>         0.1075
     23 H4         -4.9529   -0.0937    0.8918 H         1 <0>         0.1431
     24 H5         -2.8889    1.2351    1.0647 H         1 <0>         0.1421
     25 H6         -4.7243    4.3743   -1.1849 H         1 <0>         0.1320
     26 H7         -6.7838    3.0393   -1.3650 H         1 <0>         0.1401
     27 H8         -2.5514    4.6088    0.1213 H         1 <0>         0.4222
     28 H9         -0.9995    5.6727    0.5125 H         1 <0>         0.1966
     29 H10         3.2893    3.2595    0.4309 H         1 <0>         0.1919
     30 H11         0.0153    0.0302   -0.3840 H         1 <0>         0.2210
     31 H12         4.2657    5.3995    0.8754 H         1 <0>         0.4387
     32 H13         3.3556    6.8013    1.0467 H         1 <0>         0.4193
     33 N5          1.0674    5.8300    0.7009 N.ar      1 <0>        -0.5412
     34 H14         1.0516    6.8419    0.8744 H         1 <0>         0.4734
@<TRIPOS>BOND
     1    1    2 1
     2    1   20 1
     3    1   21 1
     4    1   22 1
     5    2    3 1
     6    3    8 ar
     7    3    4 ar
     8    4    5 ar
     9    4   23 1
    10    5    6 ar
    11    5   24 1
    12    6    7 ar
    13    6    9 1
    14    7    8 ar
    15    7   25 1
    16    8   26 1
    17    9   10 1
    18    9   27 1
    19   10   18 ar
    20   10   11 ar
    21   11   15 ar
    22   11   12 ar
    23   12   28 1
    24   12   33 ar
    25   13   14 ar
    26   13   19 1
    27   13   33 ar
    28   14   15 ar
    29   14   29 1
    30   15   16 ar
    31   16   17 ar
    32   17   18 ar
    33   17   30 1
    34   19   31 1
    35   19   32 1
    36   33   34 1
@<TRIPOS>MOLECULE
ZINC03815374
   27    29     0     0     0
SMALL
USER_CHARGES

@<TRIPOS>ATOM
      1 C1         -2.1331   -4.2657    0.2885 C.ar      1 <0>        -0.0920
      2 C2         -2.1734   -2.8896    0.4019 C.ar      1 <0>        -0.1284
      3 C3         -1.1329   -2.1214   -0.1045 C.ar      1 <0>         0.1505
      4 C4         -0.0571   -2.7397   -0.7289 C.ar      1 <0>        -0.0820
      5 C5         -0.0199   -4.1169   -0.8341 C.ar      1 <0>        -0.0717
      6 C6         -1.0586   -4.8790   -0.3283 C.ar      1 <0>        -0.1020
      7 Br1         1.4474   -4.9607   -1.6774 Br        1 <0>        -0.0403
      8 N1         -1.1711   -0.7287    0.0088 N.pl3     1 <0>        -0.6322
      9 C7          0.0001   -0.0172    0.1624 C.ar      1 <0>         0.4867
     10 C8         -0.0034    1.3973    0.1621 C.ar      1 <0>        -0.2601
     11 C9         -1.1811    2.1411    0.0026 C.ar      1 <0>         0.0116
     12 C10        -1.0875    3.5056    0.0198 C.ar      1 <0>        -0.2107
     13 C11         0.1569    4.1136    0.1824 C.ar      1 <0>         0.3935
     14 N2          1.2581    3.4079    0.3266 N.ar      1 <0>        -0.5057
     15 C12         1.2297    2.0749    0.3232 C.ar      1 <0>         0.4089
     16 N3          2.3452    1.3446    0.4689 N.ar      1 <0>        -0.5362
     17 C13         2.2906    0.0334    0.4616 C.ar      1 <0>         0.3823
     18 N4          1.1623   -0.6407    0.3141 N.ar      1 <0>        -0.5830
     19 F1          0.2338    5.4624    0.1925 F         1 <0>        -0.0950
     20 H1         -2.9422   -4.8631    0.6819 H         1 <0>         0.1388
     21 H2         -3.0132   -2.4114    0.8842 H         1 <0>         0.1331
     22 H3          0.7513   -2.1449   -1.1279 H         1 <0>         0.1487
     23 H4         -1.0297   -5.9551   -0.4159 H         1 <0>         0.1362
     24 H5         -2.0213   -0.2628   -0.0205 H         1 <0>         0.4240
     25 H6         -2.1348    1.6510   -0.1266 H         1 <0>         0.1515
     26 H7         -1.9746    4.1105   -0.0963 H         1 <0>         0.1629
     27 H8          3.2096   -0.5209    0.5820 H         1 <0>         0.2105
@<TRIPOS>BOND
     1    1    6 ar
     2    1    2 ar
     3    1   20 1
     4    2    3 ar
     5    2   21 1
     6    3    4 ar
     7    3    8 1
     8    4    5 ar
     9    4   22 1
    10    5    6 ar
    11    5    7 1
    12    6   23 1
    13    8    9 1
    14    8   24 1
    15    9   18 ar
    16    9   10 ar
    17   10   15 ar
    18   10   11 ar
    19   11   12 ar
    20   11   25 1
    21   12   13 ar
    22   12   26 1
    23   13   14 ar
    24   13   19 1
    25   14   15 ar
    26   15   16 ar
    27   16   17 ar
    28   17   18 ar
    29   17   27 1
@<TRIPOS>MOLECULE
ZINC03815375
   27    29     0     0     0
SMALL
USER_CHARGES

@<TRIPOS>ATOM
      1 C1         -0.4436   -6.4627    0.2582 C.ar      1 <0>        -0.0920
      2 C2         -0.5852   -5.0935    0.3735 C.ar      1 <0>        -0.1303
      3 C3          0.3958   -4.2500   -0.1318 C.ar      1 <0>         0.1531
      4 C4          1.5145   -4.7865   -0.7566 C.ar      1 <0>        -0.0829
      5 C5          1.6526   -6.1570   -0.8646 C.ar      1 <0>        -0.0713
      6 C6          0.6732   -6.9943   -0.3594 C.ar      1 <0>        -0.1037
      7 Br1         3.1780   -6.8892   -1.7090 Br        1 <0>        -0.0413
      8 N1          0.2549   -2.8641   -0.0170 N.pl3     1 <0>        -0.6345
      9 C7          1.3700   -2.0683    0.1378 C.ar      1 <0>         0.4786
     10 C8          1.2623   -0.6570    0.1391 C.ar      1 <0>        -0.2456
     11 C9          0.0339   -0.0014   -0.0146 C.ar      1 <0>        -0.0203
     12 C10         0.0297    1.3680   -0.0007 C.ar      1 <0>        -0.1912
     13 C11         1.2235    2.0624    0.1626 C.ar      1 <0>         0.1827
     14 N2          2.3718    1.4407    0.3062 N.ar      1 <0>        -0.4708
     15 C12         2.4422    0.1094    0.3014 C.ar      1 <0>         0.3706
     16 N3          3.6084   -0.5371    0.4467 N.ar      1 <0>        -0.5345
     17 C13         3.6504   -1.8485    0.4379 C.ar      1 <0>         0.3707
     18 N4          2.5749   -2.6041    0.2892 N.ar      1 <0>        -0.5833
     19 H1         -1.2065   -7.1187    0.6507 H         1 <0>         0.1384
     20 H2         -1.4579   -4.6792    0.8564 H         1 <0>         0.1323
     21 H3          2.2771   -4.1332   -1.1542 H         1 <0>         0.1484
     22 H4          0.7814   -8.0652   -0.4482 H         1 <0>         0.1358
     23 H5         -0.6274   -2.4622   -0.0461 H         1 <0>         0.4232
     24 H6         -0.8824   -0.5591   -0.1405 H         1 <0>         0.1385
     25 H7         -0.8981    1.9075   -0.1208 H         1 <0>         0.1492
     26 H8          1.2061    3.1422    0.1713 H         1 <0>         0.1733
     27 H9          4.6078   -2.3337    0.5580 H         1 <0>         0.2066
@<TRIPOS>BOND
     1    1    6 ar
     2    1    2 ar
     3    1   19 1
     4    2    3 ar
     5    2   20 1
     6    3    4 ar
     7    3    8 1
     8    4    5 ar
     9    4   21 1
    10    5    6 ar
    11    5    7 1
    12    6   22 1
    13    8    9 1
    14    8   23 1
    15    9   18 ar
    16    9   10 ar
    17   10   15 ar
    18   10   11 ar
    19   11   12 ar
    20   11   24 1
    21   12   13 ar
    22   12   25 1
    23   13   14 ar
    24   13   26 1
    25   14   15 ar
    26   15   16 ar
    27   16   17 ar
    28   17   18 ar
    29   17   27 1
@<TRIPOS>MOLECULE
ZINC03815376
   40    43     0     0     0
SMALL
USER_CHARGES

@<TRIPOS>ATOM
      1 C1         -0.8019   -5.5009   -0.0181 C.ar      1 <0>        -0.1196
      2 C2          0.2175   -5.3887   -0.9465 C.ar      1 <0>        -0.1112
      3 C3          1.0279   -4.2718   -0.9537 C.ar      1 <0>        -0.1078
      4 C4          0.8180   -3.2556   -0.0225 C.ar      1 <0>        -0.0119
      5 C5         -0.2070   -3.3772    0.9148 C.ar      1 <0>        -0.1263
      6 C6         -1.0152   -4.4957    0.9080 C.ar      1 <0>        -0.1126
      7 C7          1.6851   -2.0534   -0.0251 C.2       1 <0>        -0.0938
      8 C8          3.0408   -2.0316   -0.0379 C.2       1 <0>         0.0607
      9 N1          3.4801   -0.7343   -0.0351 N.pl3     1 <0>        -0.4092
     10 C9          2.4136    0.1273   -0.0203 C.ar      1 <0>         0.3518
     11 C10         1.2440   -0.6524   -0.0133 C.ar      1 <0>        -0.2509
     12 C11         0.0021   -0.0041    0.0020 C.ar      1 <0>         0.4947
     13 N2         -0.0160    1.3262    0.0093 N.ar      1 <0>        -0.5986
     14 C12         1.1068    2.0214    0.0023 C.ar      1 <0>         0.3637
     15 N3          2.2937    1.4540   -0.0120 N.ar      1 <0>        -0.5644
     16 N4         -1.1762   -0.7291    0.0089 N.pl3     1 <0>        -0.8299
     17 C13         4.8254   -0.3440   -0.0454 C.ar      1 <0>         0.1278
     18 C14         5.2709    0.5927   -0.9686 C.ar      1 <0>        -0.1004
     19 C15         6.5967    0.9798   -0.9725 C.ar      1 <0>        -0.0814
     20 C16         7.4825    0.4271   -0.0658 C.ar      1 <0>        -0.0883
     21 C17         7.0430   -0.5102    0.8511 C.ar      1 <0>        -0.0833
     22 C18         5.7173   -0.8971    0.8637 C.ar      1 <0>        -0.1199
     23 C19         8.9296    0.8475   -0.0765 C.3       1 <0>         0.1152
     24 O1          9.6670   -0.0060   -0.9540 O.3       1 <0>        -0.5676
     25 H1         -1.4339   -6.3767   -0.0165 H         1 <0>         0.1248
     26 H2          0.3791   -6.1765   -1.6674 H         1 <0>         0.1263
     27 H3          1.8230   -4.1849   -1.6795 H         1 <0>         0.1253
     28 H4         -0.3711   -2.5954    1.6416 H         1 <0>         0.1246
     29 H5         -1.8126   -4.5888    1.6305 H         1 <0>         0.1266
     30 H6          3.6772   -2.9041   -0.0481 H         1 <0>         0.1822
     31 H7          1.0483    3.0998    0.0087 H         1 <0>         0.2016
     32 H8         -2.0294   -0.2679    0.0192 H         1 <0>         0.4080
     33 H9         -1.1490   -1.6987    0.0035 H         1 <0>         0.4125
     34 H10         4.5806    1.0212   -1.6801 H         1 <0>         0.1319
     35 H11         6.9428    1.7119   -1.6871 H         1 <0>         0.1334
     36 H12         7.7373   -0.9403    1.5577 H         1 <0>         0.1335
     37 H13         5.3747   -1.6295    1.5798 H         1 <0>         0.1320
     38 H14         9.0061    1.8781   -0.4230 H         1 <0>         0.0586
     39 H15         9.3375    0.7718    0.9315 H         1 <0>         0.0581
     40 H16        10.6086    0.2070   -1.0104 H         1 <0>         0.3835
@<TRIPOS>BOND
     1    1    6 ar
     2    1    2 ar
     3    1   25 1
     4    2    3 ar
     5    2   26 1
     6    3    4 ar
     7    3   27 1
     8    4    5 ar
     9    4    7 1
    10    5    6 ar
    11    5   28 1
    12    6   29 1
    13    7   11 1
    14    7    8 2
    15    8    9 1
    16    8   30 1
    17    9   10 1
    18    9   17 1
    19   10   15 ar
    20   10   11 ar
    21   11   12 ar
    22   12   13 ar
    23   12   16 1
    24   13   14 ar
    25   14   15 ar
    26   14   31 1
    27   16   32 1
    28   16   33 1
    29   17   22 ar
    30   17   18 ar
    31   18   19 ar
    32   18   34 1
    33   19   20 ar
    34   19   35 1
    35   20   21 ar
    36   20   23 1
    37   21   22 ar
    38   21   36 1
    39   22   37 1
    40   23   24 1
    41   23   38 1
    42   23   39 1
    43   24   40 1
@<TRIPOS>MOLECULE
ZINC03815377
   36    39     0     0     0
SMALL
USER_CHARGES

@<TRIPOS>ATOM
      1 C1         -5.2407    7.9631    0.0745 C.ar      1 <0>        -0.1131
      2 C2         -4.2036    8.0208    0.9873 C.ar      1 <0>        -0.1044
      3 C3         -3.2196    7.0517    0.9790 C.ar      1 <0>        -0.1178
      4 C4         -3.2724    6.0186    0.0526 C.ar      1 <0>         0.1185
      5 C5         -4.3120    5.9666   -0.8664 C.ar      1 <0>        -0.0984
      6 C6         -5.2961    6.9356   -0.8493 C.ar      1 <0>        -0.1026
      7 N1         -2.2760    5.0342    0.0416 N.pl3     1 <0>        -0.4078
      8 C7         -0.9291    5.2829    0.0363 C.2       1 <0>         0.0678
      9 C8         -0.2494    4.1097    0.0262 C.2       1 <0>        -0.0998
     10 C9         -1.2577    3.0416    0.0304 C.ar      1 <0>        -0.2508
     11 C10        -2.5086    3.6829    0.0349 C.ar      1 <0>         0.3530
     12 N2         -3.6085    2.9315    0.0360 N.ar      1 <0>        -0.5637
     13 C11        -3.5254    1.6185    0.0280 C.ar      1 <0>         0.3649
     14 N3         -2.3712    0.9770    0.0186 N.ar      1 <0>        -0.5971
     15 C12        -1.2185    1.6412    0.0167 C.ar      1 <0>         0.4948
     16 N4         -0.0111    0.9658    0.0074 N.pl3     1 <0>        -0.8295
     17 C13         1.2229    3.9385    0.0179 C.ar      1 <0>         0.0040
     18 C14         2.0031    4.6336   -0.9056 C.ar      1 <0>        -0.1040
     19 C15         3.3733    4.4711   -0.9088 C.ar      1 <0>        -0.0967
     20 C16         3.9741    3.6205    0.0019 C.ar      1 <0>        -0.1111
     21 C17         3.2053    2.9273    0.9210 C.ar      1 <0>        -0.0283
     22 C18         1.8333    3.0867    0.9370 C.ar      1 <0>        -0.1197
     23 Cl1         3.9674    1.8615    2.0599 Cl        1 <0>        -0.0628
     24 H1         -6.0092    8.7219    0.0832 H         1 <0>         0.1304
     25 H2         -4.1632    8.8244    1.7078 H         1 <0>         0.1329
     26 H3         -2.4100    7.0972    1.6924 H         1 <0>         0.1294
     27 H4         -4.3533    5.1670   -1.5912 H         1 <0>         0.1295
     28 H5         -6.1072    6.8934   -1.5612 H         1 <0>         0.1329
     29 H6         -0.4774    6.2639    0.0403 H         1 <0>         0.1834
     30 H7         -4.4385    1.0417    0.0288 H         1 <0>         0.2022
     31 H8          0.0021   -0.0041    0.0020 H         1 <0>         0.4092
     32 H9          0.8223    1.4622    0.0021 H         1 <0>         0.4108
     33 H10         1.5356    5.2982   -1.6170 H         1 <0>         0.1332
     34 H11         3.9781    5.0094   -1.6236 H         1 <0>         0.1377
     35 H12         5.0470    3.4965   -0.0045 H         1 <0>         0.1368
     36 H13         1.2344    2.5493    1.6574 H         1 <0>         0.1362
@<TRIPOS>BOND
     1    1    6 ar
     2    1    2 ar
     3    1   24 1
     4    2    3 ar
     5    2   25 1
     6    3    4 ar
     7    3   26 1
     8    4    5 ar
     9    4    7 1
    10    5    6 ar
    11    5   27 1
    12    6   28 1
    13    7   11 1
    14    7    8 1
    15    8    9 2
    16    8   29 1
    17    9   10 1
    18    9   17 1
    19   10   15 ar
    20   10   11 ar
    21   11   12 ar
    22   12   13 ar
    23   13   14 ar
    24   13   30 1
    25   14   15 ar
    26   15   16 1
    27   16   31 1
    28   16   32 1
    29   17   22 ar
    30   17   18 ar
    31   18   19 ar
    32   18   33 1
    33   19   20 ar
    34   19   34 1
    35   20   21 ar
    36   20   35 1
    37   21   22 ar
    38   21   23 1
    39   22   36 1
@<TRIPOS>MOLECULE
ZINC03815378
   59    62     0     0     0
SMALL
USER_CHARGES

@<TRIPOS>ATOM
      1 C1         -4.2619   17.2670   -2.7549 C.3       1 <0>        -0.1538
      2 C2         -3.9777   15.7668   -2.8529 C.3       1 <0>         0.0612
      3 O1         -3.1608   15.3543   -1.7255 O.3       1 <0>        -0.3608
      4 C3         -2.8202   14.0575   -1.6619 C.2       1 <0>         0.4593
      5 O2         -3.1923   13.2924   -2.5199 O.2       1 <0>        -0.5075
      6 C4         -1.9737   13.5559   -0.5205 C.3       1 <0>        -0.1147
      7 C5         -1.7324   12.0541   -0.6861 C.3       1 <0>        -0.1044
      8 C6         -0.8730   11.5448    0.4727 C.3       1 <0>        -0.0787
      9 C7         -0.6353   10.0657    0.3096 C.ar      1 <0>        -0.0942
     10 C8          0.4644    9.6177   -0.3992 C.ar      1 <0>        -0.0947
     11 C9          0.6854    8.2628   -0.5502 C.ar      1 <0>        -0.1398
     12 C10        -0.1984    7.3498    0.0109 C.ar      1 <0>         0.1521
     13 C11        -1.3048    7.8032    0.7177 C.ar      1 <0>        -0.1058
     14 C12        -1.5171    9.1594    0.8694 C.ar      1 <0>        -0.0956
     15 N1          0.0221    5.9776   -0.1405 N.pl3     1 <0>        -0.6257
     16 C13        -0.3308    5.1054    0.8714 C.ar      1 <0>         0.6088
     17 N2         -0.7743    5.6040    2.0204 N.ar      1 <0>        -0.5668
     18 C14        -1.1239    4.8143    3.0182 C.ar      1 <0>         0.2642
     19 C15        -1.0186    3.4258    2.8444 C.ar      1 <0>        -0.2777
     20 C16        -1.3778    2.5291    3.8764 C.2       1 <0>         0.0316
     21 C17        -1.2571    1.1829    3.6579 C.2       1 <0>        -0.1648
     22 C18        -0.7607    0.7060    2.3653 C.2       1 <0>         0.5578
     23 O3         -0.6502   -0.4900    2.1623 O.2       1 <0>        -0.5029
     24 N3         -0.4261    1.5833    1.3995 N.am      1 <0>        -0.5062
     25 C19        -0.5385    2.9342    1.6115 C.ar      1 <0>         0.4667
     26 N4         -0.2143    3.8035    0.6607 N.ar      1 <0>        -0.5954
     27 C20         0.0685    1.0902    0.1117 C.3       1 <0>         0.0700
     28 C21        -1.6250    0.2173    4.7197 C.ar      1 <0>        -0.0100
     29 C22        -0.6674   -0.2105    5.6401 C.ar      1 <0>        -0.0064
     30 C23        -1.0180   -1.1071    6.6305 C.ar      1 <0>        -0.1065
     31 C24        -2.3125   -1.5890    6.7046 C.ar      1 <0>        -0.0875
     32 C25        -3.2653   -1.1729    5.7921 C.ar      1 <0>        -0.1064
     33 C26        -2.9291   -0.2726    4.8001 C.ar      1 <0>        -0.0065
     34 Cl1        -4.1260    0.2478    3.6556 Cl        1 <0>        -0.0501
     35 Cl2         0.9594    0.3880    5.5447 Cl        1 <0>        -0.0503
     36 H1         -4.7924   17.4763   -1.8259 H         1 <0>         0.0672
     37 H2         -3.3208   17.8167   -2.7677 H         1 <0>         0.0672
     38 H3         -4.8751   17.5766   -3.6012 H         1 <0>         0.0807
     39 H4         -3.4472   15.5574   -3.7818 H         1 <0>         0.0701
     40 H5         -4.9188   15.2171   -2.8400 H         1 <0>         0.0701
     41 H6         -2.4894   13.7392    0.4222 H         1 <0>         0.1074
     42 H7         -1.0178   14.0796   -0.5196 H         1 <0>         0.1072
     43 H8         -1.2168   11.8708   -1.6288 H         1 <0>         0.0742
     44 H9         -2.6884   11.5304   -0.6870 H         1 <0>         0.0745
     45 H10        -1.3886   11.7282    1.4154 H         1 <0>         0.0764
     46 H11         0.0829   12.0685    0.4736 H         1 <0>         0.0758
     47 H12         1.1513   10.3281   -0.8348 H         1 <0>         0.1267
     48 H13         1.5446    7.9136   -1.1035 H         1 <0>         0.1253
     49 H14        -1.9961    7.0959    1.1517 H         1 <0>         0.1344
     50 H15        -2.3750    9.5125    1.4223 H         1 <0>         0.1258
     51 H16         0.4229    5.6378   -0.9559 H         1 <0>         0.4263
     52 H17        -1.4830    5.2278    3.9490 H         1 <0>         0.1880
     53 H18        -1.7424    2.9003    4.8229 H         1 <0>         0.1505
     54 H19         0.0950    0.0006    0.1258 H         1 <0>         0.1006
     55 H20         1.0728    1.4758   -0.0636 H         1 <0>         0.0800
     56 H21        -0.5943    1.4272   -0.6853 H         1 <0>         0.0803
     57 H22        -0.2789   -1.4359    7.3460 H         1 <0>         0.1437
     58 H23        -2.5805   -2.2934    7.4782 H         1 <0>         0.1454
     59 H24        -4.2741   -1.5532    5.8553 H         1 <0>         0.1437
@<TRIPOS>BOND
     1    1    2 1
     2    1   36 1
     3    1   37 1
     4    1   38 1
     5    2    3 1
     6    2   39 1
     7    2   40 1
     8    3    4 1
     9    4    5 2
    10    4    6 1
    11    6    7 1
    12    6   41 1
    13    6   42 1
    14    7    8 1
    15    7   43 1
    16    7   44 1
    17    8    9 1
    18    8   45 1
    19    8   46 1
    20    9   14 ar
    21    9   10 ar
    22   10   11 ar
    23   10   47 1
    24   11   12 ar
    25   11   48 1
    26   12   13 ar
    27   12   15 1
    28   13   14 ar
    29   13   49 1
    30   14   50 1
    31   15   16 1
    32   15   51 1
    33   16   26 ar
    34   16   17 ar
    35   17   18 ar
    36   18   19 ar
    37   18   52 1
    38   19   25 ar
    39   19   20 1
    40   20   21 2
    41   20   53 1
    42   21   22 1
    43   21   28 1
    44   22   23 2
    45   22   24 am
    46   24   25 1
    47   24   27 1
    48   25   26 ar
    49   27   54 1
    50   27   55 1
    51   27   56 1
    52   28   33 ar
    53   28   29 ar
    54   29   30 ar
    55   29   35 1
    56   30   31 ar
    57   30   57 1
    58   31   32 ar
    59   31   58 1
    60   32   33 ar
    61   32   59 1
    62   33   34 1
@<TRIPOS>MOLECULE
ZINC03815379
   75    79     0     0     0
SMALL
USER_CHARGES

@<TRIPOS>ATOM
      1 C1         17.6153   -0.7836   -1.7674 C.3       1 <0>        -0.0461
      2 C2         16.6203   -2.6587   -0.6017 C.3       1 <0>        -0.0268
      3 C3         15.5490   -3.7472   -0.7019 C.3       1 <0>        -0.0260
      4 C4         14.1571   -2.2571   -2.0061 C.3       1 <0>        -0.0333
      5 C5         15.2284   -1.1687   -1.9060 C.3       1 <0>        -0.0263
      6 C6         13.1620   -4.1322   -0.8404 C.3       1 <0>        -0.0008
      7 C7         11.8009   -3.4458   -0.7102 C.3       1 <0>        -0.1688
      8 C8         10.6933   -4.5011   -0.7338 C.3       1 <0>         0.1457
      9 N1          9.3899   -3.8439   -0.6091 N.pl3     1 <0>        -0.7057
     10 C9          8.2326   -4.5993   -0.6058 C.ar      1 <0>         0.5860
     11 N2          8.3336   -5.9221   -0.7171 N.ar      1 <0>        -0.5779
     12 C10         7.2657   -6.6941   -0.7205 C.ar      1 <0>         0.2691
     13 C11         6.0019   -6.0908   -0.6024 C.ar      1 <0>        -0.2837
     14 C12         4.8170   -6.8450   -0.5980 C.ar      1 <0>         0.0458
     15 C13         3.6151   -6.1659   -0.4776 C.ar      1 <0>        -0.1488
     16 C14         3.6214   -4.7591   -0.3651 C.ar      1 <0>         0.4900
     17 N3          4.7461   -4.0733   -0.3767 N.ar      1 <0>        -0.4754
     18 C15         5.9306   -4.6779   -0.4851 C.ar      1 <0>         0.4296
     19 N4          7.0732   -3.9798   -0.4922 N.ar      1 <0>        -0.5537
     20 N5          2.4159   -4.0829   -0.2453 N.am      1 <0>        -0.6545
     21 C16         2.4047   -2.7396   -0.1368 C.2       1 <0>         0.6931
     22 O1          3.4509   -2.1204   -0.1441 O.2       1 <0>        -0.4948
     23 N6          1.2336   -2.0827   -0.0204 N.am      1 <0>        -0.6769
     24 C17         1.2132   -0.6815   -0.0198 C.ar      1 <0>         0.1218
     25 C18         2.1374    0.0268   -0.7760 C.ar      1 <0>        -0.0777
     26 C19         2.1165    1.4076   -0.7753 C.ar      1 <0>        -0.1324
     27 C20         1.1724    2.0869   -0.0194 C.ar      1 <0>         0.1174
     28 C21         0.2487    1.3798    0.7363 C.ar      1 <0>        -0.1872
     29 C22         0.2686   -0.0010    0.7366 C.ar      1 <0>        -0.1001
     30 O2          1.1526    3.4465   -0.0188 O.3       1 <0>        -0.3174
     31 C23         0.1534    4.0805    0.7823 C.3       1 <0>         0.0254
     32 C24         2.3334   -6.9109   -0.4667 C.ar      1 <0>        -0.0525
     33 C25         1.6588   -7.1615   -1.6616 C.ar      1 <0>        -0.0124
     34 C26         0.4677   -7.8608   -1.6452 C.ar      1 <0>        -0.1019
     35 C27        -0.0618   -8.3027   -0.4463 C.ar      1 <0>        -0.0775
     36 C28         0.5994   -8.0524    0.7426 C.ar      1 <0>        -0.1020
     37 C29         1.7942   -7.3592    0.7391 C.ar      1 <0>        -0.0127
     38 Cl1         2.6226   -7.0462    2.2322 Cl        1 <0>        -0.0435
     39 Cl2         2.3181   -6.6015   -3.1667 Cl        1 <0>        -0.0436
     40 H1         18.5870   -1.2771   -1.7491 H         1 <0>         0.1362
     41 H2         17.5415   -0.1595   -2.6580 H         1 <0>         0.1361
     42 H3         17.5065   -0.1624   -0.8784 H         1 <0>         0.1328
     43 H4         16.4476   -2.0597    0.2924 H         1 <0>         0.1558
     44 H5         17.6052   -3.1221   -0.5444 H         1 <0>         0.1757
     45 H6         15.5788   -4.3701    0.1920 H         1 <0>         0.1759
     46 H7         15.7375   -4.3631   -1.5812 H         1 <0>         0.1573
     47 H8         14.3297   -2.8561   -2.9003 H         1 <0>         0.1581
     48 H9         13.1721   -1.7938   -2.0631 H         1 <0>         0.1751
     49 H10        15.0399   -0.5527   -1.0266 H         1 <0>         0.1561
     50 H11        15.1987   -0.5454   -2.7997 H         1 <0>         0.1755
     51 H12        13.3013   -4.8236   -0.0094 H         1 <0>         0.1482
     52 H13        13.2035   -4.6815   -1.7810 H         1 <0>         0.1461
     53 H14        11.6616   -2.7544   -1.5413 H         1 <0>         0.0954
     54 H15        11.7594   -2.8965    0.2303 H         1 <0>         0.0999
     55 H16        10.8325   -5.1925    0.0973 H         1 <0>         0.0799
     56 H17        10.7347   -5.0504   -1.6743 H         1 <0>         0.0790
     57 H18         9.3392   -2.8785   -0.5289 H         1 <0>         0.4169
     58 H19         7.3596   -7.7661   -0.8117 H         1 <0>         0.1837
     59 H20         4.8419   -7.9212   -0.6854 H         1 <0>         0.1565
     60 H21         1.5812   -4.5770   -0.2395 H         1 <0>         0.4176
     61 H22         0.4049   -2.5799    0.0630 H         1 <0>         0.4079
     62 H23         2.8727   -0.5019   -1.3643 H         1 <0>         0.1414
     63 H24         2.8381    1.9588   -1.3600 H         1 <0>         0.1339
     64 H25        -0.4860    1.9093    1.3247 H         1 <0>         0.1349
     65 H26        -0.4508   -0.5514    1.3247 H         1 <0>         0.1303
     66 H27         0.2487    5.1626    0.6929 H         1 <0>         0.1024
     67 H28        -0.8350    3.7734    0.4406 H         1 <0>         0.0576
     68 H29         0.2844    3.7890    1.8244 H         1 <0>         0.0564
     69 H30        -0.0532   -8.0596   -2.5702 H         1 <0>         0.1485
     70 H31        -0.9957   -8.8451   -0.4383 H         1 <0>         0.1507
     71 H32         0.1808   -8.4001    1.6755 H         1 <0>         0.1485
     72 N7         16.5551   -1.8132   -1.8124 N.4       1 <0>        -0.4065
     73 H33        16.6985   -2.4037   -2.6401 H         1 <0>         0.4405
     74 N8         14.2222   -3.1026   -0.7954 N.4       1 <0>        -0.4062
     75 H34        14.0789   -2.5122    0.0323 H         1 <0>         0.4384
@<TRIPOS>BOND
     1    1   40 1
     2    1   41 1
     3    1   42 1
     4    1   72 1
     5    2    3 1
     6    2   43 1
     7    2   44 1
     8    2   72 1
     9    3   45 1
    10    3   46 1
    11    3   74 1
    12    4    5 1
    13    4   47 1
    14    4   48 1
    15    4   74 1
    16    5   49 1
    17    5   50 1
    18    5   72 1
    19    6    7 1
    20    6   51 1
    21    6   52 1
    22    6   74 1
    23    7    8 1
    24    7   53 1
    25    7   54 1
    26    8    9 1
    27    8   55 1
    28    8   56 1
    29    9   10 1
    30    9   57 1
    31   10   19 ar
    32   10   11 ar
    33   11   12 ar
    34   12   13 ar
    35   12   58 1
    36   13   18 ar
    37   13   14 ar
    38   14   15 ar
    39   14   59 1
    40   15   16 ar
    41   15   32 1
    42   16   17 ar
    43   16   20 1
    44   17   18 ar
    45   18   19 ar
    46   20   21 am
    47   20   60 1
    48   21   22 2
    49   21   23 am
    50   23   24 1
    51   23   61 1
    52   24   29 ar
    53   24   25 ar
    54   25   26 ar
    55   25   62 1
    56   26   27 ar
    57   26   63 1
    58   27   28 ar
    59   27   30 1
    60   28   29 ar
    61   28   64 1
    62   29   65 1
    63   30   31 1
    64   31   66 1
    65   31   67 1
    66   31   68 1
    67   32   37 ar
    68   32   33 ar
    69   33   34 ar
    70   33   39 1
    71   34   35 ar
    72   34   69 1
    73   35   36 ar
    74   35   70 1
    75   36   37 ar
    76   36   71 1
    77   37   38 1
    78   72   73 1
    79   74   75 1
@<TRIPOS>MOLECULE
ZINC03815382
   30    33     0     0     0
SMALL
USER_CHARGES

@<TRIPOS>ATOM
      1 C1          7.1690    0.6904    0.2249 C.ar      1 <0>        -0.0837
      2 C2          6.0374   -0.0937    0.3381 C.ar      1 <0>        -0.1425
      3 C3          4.8217    0.3688   -0.1492 C.ar      1 <0>         0.1661
      4 C4          4.7488    1.6170   -0.7545 C.ar      1 <0>        -0.1081
      5 C5          5.8833    2.3992   -0.8597 C.ar      1 <0>        -0.0137
      6 C6          7.0930    1.9347   -0.3728 C.ar      1 <0>        -0.1258
      7 Cl1         5.7926    3.9623   -1.6094 Cl        1 <0>        -0.0628
      8 N1          3.6752   -0.4225   -0.0359 N.pl3     1 <0>        -0.6418
      9 C7          2.4351    0.1742    0.1378 C.ar      1 <0>         0.4881
     10 C8          1.2729   -0.5858    0.1382 C.ar      1 <0>        -0.2855
     11 C9          0.0208    0.0150    0.3139 C.ar      1 <0>         0.2253
     12 C10        -1.1394   -0.8956    0.2947 C.ar      1 <0>        -0.1420
     13 C11        -2.5035   -0.5592    0.4471 C.ar      1 <0>         0.0027
     14 C12        -3.4474   -1.5610    0.3995 C.ar      1 <0>        -0.1819
     15 C13        -3.0603   -2.8768    0.2050 C.ar      1 <0>         0.1536
     16 N2         -1.7849   -3.1829    0.0635 N.ar      1 <0>        -0.4506
     17 C14        -0.8491   -2.2580    0.1022 C.ar      1 <0>         0.1265
     18 S1          0.9201   -2.3119   -0.0474 S.3       1 <0>         0.1357
     19 N3          0.0241    1.3568    0.4804 N.ar      1 <0>        -0.5267
     20 C15         1.1397    2.0419    0.4756 C.ar      1 <0>         0.3457
     21 N4          2.3284    1.4913    0.3091 N.ar      1 <0>        -0.5438
     22 H1          8.1144    0.3308    0.6034 H         1 <0>         0.1385
     23 H2          6.0978   -1.0654    0.8054 H         1 <0>         0.1326
     24 H3          3.8059    1.9776   -1.1384 H         1 <0>         0.1470
     25 H4          7.9794    2.5455   -0.4603 H         1 <0>         0.1359
     26 H5          3.7467   -1.3889   -0.0788 H         1 <0>         0.4248
     27 H6         -2.8013    0.4678    0.5985 H         1 <0>         0.1499
     28 H7         -4.4937   -1.3197    0.5146 H         1 <0>         0.1514
     29 H8         -3.8069   -3.6563    0.1686 H         1 <0>         0.1779
     30 H9          1.0850    3.1118    0.6127 H         1 <0>         0.2074
@<TRIPOS>BOND
     1    1    6 ar
     2    1    2 ar
     3    1   22 1
     4    2    3 ar
     5    2   23 1
     6    3    4 ar
     7    3    8 1
     8    4    5 ar
     9    4   24 1
    10    5    6 ar
    11    5    7 1
    12    6   25 1
    13    8    9 1
    14    8   26 1
    15    9   21 ar
    16    9   10 ar
    17   10   18 1
    18   10   11 ar
    19   11   12 1
    20   11   19 ar
    21   12   17 ar
    22   12   13 ar
    23   13   14 ar
    24   13   27 1
    25   14   15 ar
    26   14   28 1
    27   15   16 ar
    28   15   29 1
    29   16   17 ar
    30   17   18 1
    31   19   20 ar
    32   20   21 ar
    33   20   30 1
@<TRIPOS>MOLECULE
ZINC03815383
   31    34     0     0     0
SMALL
USER_CHARGES

@<TRIPOS>ATOM
      1 C1          5.6759   -1.8289    0.2090 C.ar      1 <0>        -0.1415
      2 C2          6.4305   -0.6822    0.0142 C.ar      1 <0>        -0.0637
      3 C3          5.8223    0.5516   -0.0724 C.ar      1 <0>        -0.1200
      4 C4          4.4401    0.6565    0.0345 C.ar      1 <0>         0.1031
      5 C5          3.6786   -0.5053    0.2312 C.ar      1 <0>        -0.1305
      6 C6          4.3045   -1.7457    0.3174 C.ar      1 <0>        -0.0348
      7 C7          2.2777   -0.0572    0.3005 C.ar      1 <0>         0.1722
      8 C8          2.3175    1.3329    0.1398 C.ar      1 <0>        -0.0790
      9 O1          3.6017    1.7148   -0.0133 O.3       1 <0>        -0.1863
     10 C9          1.1034    2.0292    0.1642 C.ar      1 <0>         0.4620
     11 N1         -0.0228    1.3448    0.3377 N.ar      1 <0>        -0.5378
     12 C10        -0.0118    0.0336    0.4855 C.ar      1 <0>         0.3303
     13 N2          1.1055   -0.6631    0.4690 N.ar      1 <0>        -0.5102
     14 N3          1.0761    3.4078    0.0105 N.pl3     1 <0>        -0.6450
     15 C11        -0.1476    4.0768   -0.0792 C.ar      1 <0>         0.1621
     16 C12        -0.2770    5.3628    0.4306 C.ar      1 <0>        -0.1332
     17 C13        -1.4873    6.0215    0.3406 C.ar      1 <0>        -0.0902
     18 C14        -2.5706    5.4027   -0.2563 C.ar      1 <0>        -0.1080
     19 C15        -2.4455    4.1223   -0.7655 C.ar      1 <0>        -0.0694
     20 C16        -1.2353    3.4598   -0.6832 C.ar      1 <0>        -0.0896
     21 Br1        -3.9297    3.2809   -1.5812 Br        1 <0>        -0.0437
     22 H1          6.1641   -2.7900    0.2756 H         1 <0>         0.1394
     23 H2          7.5046   -0.7564   -0.0701 H         1 <0>         0.1440
     24 H3          6.4203    1.4382   -0.2236 H         1 <0>         0.1407
     25 H4          3.7176   -2.6395    0.4692 H         1 <0>         0.1386
     26 H5         -0.9490   -0.4848    0.6241 H         1 <0>         0.2122
     27 H6          1.9064    3.9073   -0.0346 H         1 <0>         0.4274
     28 H7          0.5682    5.8468    0.8972 H         1 <0>         0.1321
     29 H8         -1.5880    7.0212    0.7364 H         1 <0>         0.1375
     30 H9         -3.5160    5.9201   -0.3253 H         1 <0>         0.1350
     31 H10        -1.1368    2.4619   -1.0844 H         1 <0>         0.1463
@<TRIPOS>BOND
     1    1    6 ar
     2    1    2 ar
     3    1   22 1
     4    2    3 ar
     5    2   23 1
     6    3    4 ar
     7    3   24 1
     8    4    9 1
     9    4    5 ar
    10    5    6 ar
    11    5    7 1
    12    6   25 1
    13    7   13 ar
    14    7    8 ar
    15    8    9 1
    16    8   10 ar
    17   10   11 ar
    18   10   14 1
    19   11   12 ar
    20   12   13 ar
    21   12   26 1
    22   14   15 1
    23   14   27 1
    24   15   20 ar
    25   15   16 ar
    26   16   17 ar
    27   16   28 1
    28   17   18 ar
    29   17   29 1
    30   18   19 ar
    31   18   30 1
    32   19   20 ar
    33   19   21 1
    34   20   31 1
@<TRIPOS>MOLECULE
ZINC03815384
   38    40     0     0     0
SMALL
USER_CHARGES

@<TRIPOS>ATOM
      1 C1          1.0140    4.4214    4.5598 C.3       1 <0>         0.0221
      2 O1         -0.1564    3.6245    4.3670 O.3       1 <0>        -0.2983
      3 C2         -0.3622    3.1214    3.1206 C.ar      1 <0>         0.1277
      4 C3          0.5341    3.3898    2.1263 C.ar      1 <0>        -0.1595
      5 C4          0.3245    2.8722    0.8397 C.ar      1 <0>        -0.0982
      6 C5         -0.8146    2.0734    0.5761 C.ar      1 <0>         0.1668
      7 C6         -1.7212    1.8117    1.6146 C.ar      1 <0>        -0.1767
      8 C7         -1.4927    2.3319    2.8683 C.ar      1 <0>         0.1557
      9 O2         -2.3719    2.0771    3.8720 O.3       1 <0>        -0.2961
     10 C8         -3.5041    1.2659    3.5525 C.3       1 <0>         0.0194
     11 N1         -1.0234    1.5795   -0.6532 N.ar      1 <0>        -0.4614
     12 C9         -0.1933    1.8016   -1.6401 C.ar      1 <0>         0.1792
     13 C10         0.9612    2.5824   -1.4691 C.ar      1 <0>        -0.0872
     14 C11         1.2365    3.1342   -0.2088 C.ar      1 <0>         0.2628
     15 N2          2.3612    3.9073    0.0009 N.pl3     1 <0>        -0.7025
     16 C12         3.5575    3.3062    0.4006 C.ar      1 <0>         0.2309
     17 C13         3.5864    1.9520    0.7112 C.ar      1 <0>        -0.1910
     18 C14         4.7706    1.3589    1.1018 C.ar      1 <0>        -0.0438
     19 C15         5.9263    2.1126    1.1942 C.ar      1 <0>        -0.1969
     20 C16         5.9012    3.4636    0.8902 C.ar      1 <0>         0.1442
     21 C17         4.7187    4.0621    0.4937 C.ar      1 <0>        -0.2170
     22 F1          7.0319    4.1973    0.9815 F         1 <0>        -0.1352
     23 C18         1.8480    2.8135   -2.5695 C.1       1 <0>         0.2538
     24 N3          2.5515    2.9968   -3.4424 N.1       1 <0>        -0.3936
     25 H1          1.0573    4.7588    5.5954 H         1 <0>         0.1074
     26 H2          1.8994    3.8272    4.3340 H         1 <0>         0.0598
     27 H3          0.9781    5.2861    3.8972 H         1 <0>         0.0584
     28 H4          1.4022    3.9991    2.3300 H         1 <0>         0.1484
     29 H5         -2.5950    1.2040    1.4310 H         1 <0>         0.1578
     30 H6         -4.1236    1.1406    4.4405 H         1 <0>         0.1077
     31 H7         -4.0870    1.7484    2.7679 H         1 <0>         0.0629
     32 H8         -3.1652    0.2898    3.2052 H         1 <0>         0.0630
     33 H9         -0.4035    1.3777   -2.6109 H         1 <0>         0.1743
     34 H10         2.3208    4.8676   -0.1292 H         1 <0>         0.4193
     35 H11         2.6838    1.3629    0.6435 H         1 <0>         0.1266
     36 H12         4.7933    0.3057    1.3398 H         1 <0>         0.1363
     37 H13         6.8502    1.6468    1.5036 H         1 <0>         0.1362
     38 H14         4.6985    5.1157    0.2573 H         1 <0>         0.1370
@<TRIPOS>BOND
     1    1    2 1
     2    1   25 1
     3    1   26 1
     4    1   27 1
     5    2    3 1
     6    3    8 ar
     7    3    4 ar
     8    4    5 ar
     9    4   28 1
    10    5   14 ar
    11    5    6 ar
    12    6    7 ar
    13    6   11 ar
    14    7    8 ar
    15    7   29 1
    16    8    9 1
    17    9   10 1
    18   10   30 1
    19   10   31 1
    20   10   32 1
    21   11   12 ar
    22   12   13 ar
    23   12   33 1
    24   13   14 ar
    25   13   23 1
    26   14   15 1
    27   15   16 1
    28   15   34 1
    29   16   21 ar
    30   16   17 ar
    31   17   18 ar
    32   17   35 1
    33   18   19 ar
    34   18   36 1
    35   19   20 ar
    36   19   37 1
    37   20   21 ar
    38   20   22 1
    39   21   38 1
    40   23   24 3
@<TRIPOS>MOLECULE
ZINC03815385
   37    40     0     0     0
SMALL
USER_CHARGES

@<TRIPOS>ATOM
      1 C1         -2.8758   -0.0762    0.5305 C.3       1 <0>         0.0825
      2 N1         -2.4828    1.3333    0.4591 N.pl3     1 <0>        -0.5089
      3 C2         -1.1848    1.7994    0.5726 C.ar      1 <0>         0.1397
      4 C3          0.0284    1.1508    0.7813 C.ar      1 <0>        -0.1442
      5 C4          1.1956    1.8795    0.8614 C.ar      1 <0>        -0.0806
      6 C5          1.1741    3.2606    0.7409 C.ar      1 <0>        -0.1511
      7 C6         -0.0183    3.9216    0.5391 C.ar      1 <0>        -0.0531
      8 C7         -1.2057    3.1974    0.4562 C.ar      1 <0>        -0.0968
      9 C8         -2.6143    3.5788    0.2514 C.ar      1 <0>        -0.1073
     10 C9         -3.3552    2.3888    0.2623 C.ar      1 <0>         0.1505
     11 C10        -4.7354    2.4420    0.0878 C.ar      1 <0>        -0.1426
     12 C11        -5.3654    3.6553   -0.0935 C.ar      1 <0>        -0.0735
     13 C12        -4.6381    4.8334   -0.1046 C.ar      1 <0>        -0.1542
     14 C13        -3.2628    4.8044    0.0668 C.ar      1 <0>         0.1991
     15 N2         -2.5294    5.9913    0.0557 N.pl3     1 <0>        -0.6963
     16 C14        -1.7313    6.3089   -1.0460 C.ar      1 <0>         0.2201
     17 C15        -1.7611    5.5082   -2.1814 C.ar      1 <0>        -0.1620
     18 C16        -0.9740    5.8268   -3.2703 C.ar      1 <0>        -0.0683
     19 C17        -0.1494    6.9363   -3.2287 C.ar      1 <0>        -0.1424
     20 C18        -0.1133    7.7332   -2.0983 C.ar      1 <0>        -0.0441
     21 C19        -0.9019    7.4223   -1.0067 C.ar      1 <0>        -0.1644
     22 Br1         1.0165    9.2488   -2.0465 Br        1 <0>        -0.0510
     23 H1         -2.8485   -0.5121   -0.4681 H         1 <0>         0.0683
     24 H2         -2.1852   -0.6135    1.1805 H         1 <0>         0.0817
     25 H3         -3.8862   -0.1517    0.9324 H         1 <0>         0.0820
     26 H4          0.0560    0.0754    0.8761 H         1 <0>         0.1223
     27 H5          2.1349    1.3703    1.0190 H         1 <0>         0.1290
     28 H6          2.0954    3.8206    0.8050 H         1 <0>         0.1261
     29 H7         -0.0322    4.9974    0.4452 H         1 <0>         0.1222
     30 H8         -5.3144    1.5304    0.0944 H         1 <0>         0.1255
     31 H9         -6.4366    3.6868   -0.2277 H         1 <0>         0.1341
     32 H10        -5.1434    5.7771   -0.2474 H         1 <0>         0.1306
     33 H11        -2.5738    6.5959    0.8129 H         1 <0>         0.4109
     34 H12        -2.4019    4.6395   -2.2134 H         1 <0>         0.1250
     35 H13        -0.9992    5.2064   -4.1539 H         1 <0>         0.1301
     36 H14         0.4680    7.1810   -4.0804 H         1 <0>         0.1297
     37 H15        -0.8731    8.0441   -0.1241 H         1 <0>         0.1315
@<TRIPOS>BOND
     1    1    2 1
     2    1   23 1
     3    1   24 1
     4    1   25 1
     5    2   10 1
     6    2    3 1
     7    3    8 ar
     8    3    4 ar
     9    4    5 ar
    10    4   26 1
    11    5    6 ar
    12    5   27 1
    13    6    7 ar
    14    6   28 1
    15    7    8 ar
    16    7   29 1
    17    8    9 1
    18    9   14 ar
    19    9   10 ar
    20   10   11 ar
    21   11   12 ar
    22   11   30 1
    23   12   13 ar
    24   12   31 1
    25   13   14 ar
    26   13   32 1
    27   14   15 1
    28   15   16 1
    29   15   33 1
    30   16   21 ar
    31   16   17 ar
    32   17   18 ar
    33   17   34 1
    34   18   19 ar
    35   18   35 1
    36   19   20 ar
    37   19   36 1
    38   20   21 ar
    39   20   22 1
    40   21   37 1
@<TRIPOS>MOLECULE
ZINC03815386
   27    29     0     0     0
SMALL
USER_CHARGES

@<TRIPOS>ATOM
      1 C1         -4.6537   -3.0458   -0.3020 C.ar      1 <0>        -0.1272
      2 C2         -4.5251   -4.4277   -0.4148 C.ar      1 <0>        -0.0681
      3 C3         -3.2980   -5.0208   -0.4253 C.ar      1 <0>        -0.1085
      4 C4         -2.1458   -4.2292   -0.3210 C.ar      1 <0>         0.1824
      5 C5         -2.2787   -2.8232   -0.2063 C.ar      1 <0>        -0.1625
      6 C6         -3.5543   -2.2460   -0.1987 C.ar      1 <0>        -0.0612
      7 C7         -1.1014   -2.0472   -0.1021 C.ar      1 <0>         0.3999
      8 N1          0.0653   -2.6737   -0.1225 N.ar      1 <0>        -0.5760
      9 C8          0.1417   -3.9912   -0.2260 C.ar      1 <0>         0.3401
     10 N2         -0.9154   -4.7615   -0.3258 N.ar      1 <0>        -0.5241
     11 O1         -1.1648   -0.7006    0.0099 O.3       1 <0>        -0.2323
     12 C9          0.0009   -0.0026   -0.0167 C.ar      1 <0>         0.0922
     13 C10         0.7169    0.1097   -1.2002 C.ar      1 <0>        -0.0965
     14 C11         1.9017    0.8192   -1.2250 C.ar      1 <0>        -0.0968
     15 C12         2.3749    1.4180   -0.0720 C.ar      1 <0>        -0.0825
     16 C13         1.6636    1.3075    1.1094 C.ar      1 <0>        -0.0792
     17 C14         0.4772    0.5984    1.1392 C.ar      1 <0>        -0.0835
     18 Br1         2.3143    2.1273    2.6844 Br        1 <0>        -0.0349
     19 H1         -5.6380   -2.6014   -0.2959 H         1 <0>         0.1359
     20 H2         -5.4116   -5.0392   -0.4948 H         1 <0>         0.1382
     21 H3         -3.2139   -6.0940   -0.5130 H         1 <0>         0.1452
     22 H4         -3.6665   -1.1754   -0.1114 H         1 <0>         0.1401
     23 H5          1.1183   -4.4522   -0.2330 H         1 <0>         0.2020
     24 H6          0.3480   -0.3577   -2.1013 H         1 <0>         0.1329
     25 H7          2.4589    0.9067   -2.1460 H         1 <0>         0.1423
     26 H8          3.3014    1.9726   -0.0936 H         1 <0>         0.1410
     27 H9         -0.0804    0.5162    2.0604 H         1 <0>         0.1414
@<TRIPOS>BOND
     1    1    6 ar
     2    1    2 ar
     3    1   19 1
     4    2    3 ar
     5    2   20 1
     6    3    4 ar
     7    3   21 1
     8    4   10 ar
     9    4    5 ar
    10    5    6 ar
    11    5    7 ar
    12    6   22 1
    13    7    8 ar
    14    7   11 1
    15    8    9 ar
    16    9   10 ar
    17    9   23 1
    18   11   12 1
    19   12   17 ar
    20   12   13 ar
    21   13   14 ar
    22   13   24 1
    23   14   15 ar
    24   14   25 1
    25   15   16 ar
    26   15   26 1
    27   16   17 ar
    28   16   18 1
    29   17   27 1
@<TRIPOS>MOLECULE
ZINC03815387
   42    44     0     0     0
SMALL
USER_CHARGES

@<TRIPOS>ATOM
      1 C1          2.1867   -4.0260    1.3859 C.3       1 <0>         0.0225
      2 O1          0.9491   -4.7321    1.4955 O.3       1 <0>        -0.2987
      3 C2         -0.1838   -4.0423    1.1959 C.ar      1 <0>         0.1261
      4 C3         -0.0981   -2.7351    0.8117 C.ar      1 <0>        -0.1572
      5 C4         -1.2649   -2.0210    0.5021 C.ar      1 <0>        -0.0995
      6 C5         -2.5273   -2.6559    0.5934 C.ar      1 <0>         0.1665
      7 C6         -2.5897   -3.9990    0.9950 C.ar      1 <0>        -0.1771
      8 C7         -1.4290   -4.6798    1.2849 C.ar      1 <0>         0.1553
      9 O2         -1.4916   -5.9812    1.6697 O.3       1 <0>        -0.2964
     10 C8         -2.7895   -6.5748    1.7412 C.3       1 <0>         0.0195
     11 N1         -3.6464   -1.9803    0.2936 N.ar      1 <0>        -0.4628
     12 C9         -3.6202   -0.7277   -0.0841 C.ar      1 <0>         0.1795
     13 C10        -2.4137   -0.0183   -0.1975 C.ar      1 <0>        -0.0896
     14 C11        -1.2056   -0.6660    0.1014 C.ar      1 <0>         0.2668
     15 N2          0.0021   -0.0041    0.0020 N.pl3     1 <0>        -0.7050
     16 C12         0.7476   -0.0838   -1.1771 C.ar      1 <0>         0.2212
     17 C13         0.3437   -0.9349   -2.1994 C.ar      1 <0>        -0.1838
     18 C14         1.0776   -1.0113   -3.3673 C.ar      1 <0>        -0.0540
     19 C15         2.2203   -0.2500   -3.5200 C.ar      1 <0>        -0.1762
     20 C16         2.6330    0.5992   -2.4997 C.ar      1 <0>        -0.0394
     21 C17         1.8949    0.6819   -1.3265 C.ar      1 <0>        -0.1598
     22 S1          4.0912    1.5690   -2.6947 S.3       1 <0>        -0.1142
     23 C18         4.6928    1.1291   -4.3485 C.3       1 <0>        -0.1441
     24 C19        -2.4164    1.3520   -0.6134 C.1       1 <0>         0.2548
     25 N3         -2.4186    2.4390   -0.9433 N.1       1 <0>        -0.3950
     26 H1          2.3174   -3.6790    0.3609 H         1 <0>         0.0596
     27 H2          2.1777   -3.1702    2.0609 H         1 <0>         0.0584
     28 H3          3.0088   -4.6903    1.6523 H         1 <0>         0.1070
     29 H4          0.8656   -2.2519    0.7467 H         1 <0>         0.1486
     30 H5         -3.5440   -4.4996    1.0663 H         1 <0>         0.1573
     31 H6         -3.2611   -6.5368    0.7592 H         1 <0>         0.0627
     32 H7         -2.6971   -7.6131    2.0599 H         1 <0>         0.1074
     33 H8         -3.4004   -6.0274    2.4590 H         1 <0>         0.0627
     34 H9         -4.5492   -0.2275   -0.3146 H         1 <0>         0.1737
     35 H10         0.3329    0.5164    0.7507 H         1 <0>         0.4183
     36 H11        -0.5470   -1.5342   -2.0820 H         1 <0>         0.1224
     37 H12         0.7596   -1.6708   -4.1613 H         1 <0>         0.1284
     38 H13         2.7938   -0.3150   -4.4328 H         1 <0>         0.1235
     39 H14         2.2133    1.3406   -0.5320 H         1 <0>         0.1294
     40 H15         4.9024    0.0601   -4.3865 H         1 <0>         0.0855
     41 H16         3.9327    1.3769   -5.0894 H         1 <0>         0.0853
     42 H17         5.6048    1.6861   -4.5634 H         1 <0>         0.1104
@<TRIPOS>BOND
     1    1    2 1
     2    1   26 1
     3    1   27 1
     4    1   28 1
     5    2    3 1
     6    3    8 ar
     7    3    4 ar
     8    4    5 ar
     9    4   29 1
    10    5   14 ar
    11    5    6 ar
    12    6    7 ar
    13    6   11 ar
    14    7    8 ar
    15    7   30 1
    16    8    9 1
    17    9   10 1
    18   10   31 1
    19   10   32 1
    20   10   33 1
    21   11   12 ar
    22   12   13 ar
    23   12   34 1
    24   13   14 ar
    25   13   24 1
    26   14   15 1
    27   15   16 1
    28   15   35 1
    29   16   21 ar
    30   16   17 ar
    31   17   18 ar
    32   17   36 1
    33   18   19 ar
    34   18   37 1
    35   19   20 ar
    36   19   38 1
    37   20   21 ar
    38   20   22 1
    39   21   39 1
    40   22   23 1
    41   23   40 1
    42   23   41 1
    43   23   42 1
    44   24   25 3
@<TRIPOS>MOLECULE
ZINC03815388
   30    32     0     0     0
SMALL
USER_CHARGES

@<TRIPOS>ATOM
      1 C1         -0.0093    1.0764   -0.0397 C.ar      1 <0>        -0.1367
      2 C2          0.9255    1.7676    0.7090 C.ar      1 <0>        -0.1001
      3 C3          0.9121    3.1484    0.7292 C.ar      1 <0>        -0.1502
      4 C4         -0.0487    3.8427    0.0050 C.ar      1 <0>         0.1531
      5 C5         -0.9896    3.1451   -0.7419 C.ar      1 <0>        -0.1122
      6 C6         -0.9669    1.7644   -0.7622 C.ar      1 <0>        -0.1000
      7 N1         -0.0691    5.2401    0.0281 N.pl3     1 <0>        -0.6408
      8 C7         -1.2701    5.9145   -0.0615 C.ar      1 <0>         0.4497
      9 C8         -1.3059    7.3275   -0.1567 C.ar      1 <0>        -0.1342
     10 C9         -0.1395    8.0994   -0.1756 C.ar      1 <0>        -0.1808
     11 C10        -0.2386    9.4723   -0.2752 C.ar      1 <0>         0.2118
     12 C11        -1.4898   10.0909   -0.3623 C.ar      1 <0>        -0.1318
     13 C12        -2.6365    9.3567   -0.3508 C.ar      1 <0>        -0.0589
     14 C13        -2.5694    7.9602   -0.2506 C.ar      1 <0>         0.1389
     15 N2         -3.6738    7.1977   -0.2351 N.ar      1 <0>        -0.5321
     16 C14        -3.5804    5.8931   -0.1400 C.ar      1 <0>         0.3210
     17 N3         -2.4220    5.2577   -0.0551 N.ar      1 <0>        -0.5725
     18 N4          0.9216   10.2512   -0.2889 N.pl3     1 <0>        -0.8736
     19 H1          0.0057   -0.0034   -0.0568 H         1 <0>         0.1226
     20 H2          1.6695    1.2271    1.2754 H         1 <0>         0.1252
     21 H3          1.6447    3.6878    1.3111 H         1 <0>         0.1224
     22 H4         -1.7381    3.6819   -1.3058 H         1 <0>         0.1365
     23 H5         -1.6981    1.2214   -1.3426 H         1 <0>         0.1253
     24 H6          0.7608    5.7360    0.1071 H         1 <0>         0.4190
     25 H7          0.8288    7.6260   -0.1082 H         1 <0>         0.1232
     26 H8         -1.5474   11.1666   -0.4393 H         1 <0>         0.1347
     27 H9         -3.5953    9.8492   -0.4184 H         1 <0>         0.1439
     28 H10        -4.4897    5.3105   -0.1301 H         1 <0>         0.1943
     29 H11         0.8568   11.2165   -0.3584 H         1 <0>         0.4015
     30 H12         1.7916    9.8265   -0.2287 H         1 <0>         0.4007
@<TRIPOS>BOND
     1    1    6 ar
     2    1    2 ar
     3    1   19 1
     4    2    3 ar
     5    2   20 1
     6    3    4 ar
     7    3   21 1
     8    4    5 ar
     9    4    7 1
    10    5    6 ar
    11    5   22 1
    12    6   23 1
    13    7    8 1
    14    7   24 1
    15    8   17 ar
    16    8    9 ar
    17    9   14 ar
    18    9   10 ar
    19   10   11 ar
    20   10   25 1
    21   11   12 ar
    22   11   18 1
    23   12   13 ar
    24   12   26 1
    25   13   14 ar
    26   13   27 1
    27   14   15 ar
    28   15   16 ar
    29   16   17 ar
    30   16   28 1
    31   18   29 1
    32   18   30 1
@<TRIPOS>MOLECULE
ZINC03815389
   40    43     0     0     0
SMALL
USER_CHARGES

@<TRIPOS>ATOM
      1 C1          5.9393    3.2604   -0.0258 C.3       1 <0>         0.0210
      2 O1          4.7414    4.0393   -0.0059 O.3       1 <0>        -0.2998
      3 C2          3.5634    3.3601    0.0010 C.ar      1 <0>         0.1156
      4 C3          3.5713    1.9942   -0.0112 C.ar      1 <0>        -0.1540
      5 C4          2.3590    1.2939   -0.0042 C.ar      1 <0>        -0.1741
      6 C5          1.1328    2.0041    0.0156 C.ar      1 <0>         0.1960
      7 C6          1.1484    3.4041    0.0277 C.ar      1 <0>        -0.1802
      8 C7          2.3544    4.0694    0.0200 C.ar      1 <0>         0.1603
      9 O2          2.3724    5.4277    0.0313 O.3       1 <0>        -0.2974
     10 C8          1.1080    6.0932    0.0506 C.3       1 <0>         0.0202
     11 N1         -0.0150    1.3084    0.0220 N.ar      1 <0>        -0.5362
     12 C9          0.0024   -0.0032    0.0101 C.ar      1 <0>         0.3333
     13 N2          1.1225   -0.7080   -0.0085 N.ar      1 <0>        -0.5209
     14 C10         2.3114   -0.1202   -0.0163 C.ar      1 <0>         0.4477
     15 N3          3.4726   -0.8688   -0.0353 N.pl3     1 <0>        -0.6172
     16 C11         3.4084   -2.2528    0.0632 C.ar      1 <0>         0.3306
     17 C12         4.5949   -3.0015    0.1539 C.ar      1 <0>         0.0633
     18 N4          4.5539   -4.3082    0.2525 N.ar      1 <0>        -0.3983
     19 C13         3.3729   -4.9395    0.2565 C.ar      1 <0>         0.0430
     20 C14         3.3015   -6.3393    0.3559 C.ar      1 <0>        -0.0732
     21 C15         2.0876   -6.9552    0.3581 C.ar      1 <0>        -0.1099
     22 C16         0.9095   -6.2171    0.2635 C.ar      1 <0>        -0.0904
     23 C17         0.9401   -4.8598    0.1653 C.ar      1 <0>        -0.0875
     24 C18         2.1750   -4.1891    0.1599 C.ar      1 <0>         0.1173
     25 N5          2.2347   -2.8551    0.0653 N.ar      1 <0>        -0.4114
     26 H1          6.8041    3.9239   -0.0294 H         1 <0>         0.1071
     27 H2          5.9735    2.6237    0.8582 H         1 <0>         0.0580
     28 H3          5.9541    2.6395   -0.9216 H         1 <0>         0.0578
     29 H4          4.5081    1.4571   -0.0259 H         1 <0>         0.1391
     30 H5          0.2216    3.9583    0.0431 H         1 <0>         0.1563
     31 H6          1.2651    7.1718    0.0581 H         1 <0>         0.1073
     32 H7          0.5376    5.8153   -0.8357 H         1 <0>         0.0622
     33 H8          0.5567    5.8001    0.9441 H         1 <0>         0.0621
     34 H9         -0.9395   -0.5315    0.0154 H         1 <0>         0.1973
     35 H10         4.3326   -0.4277   -0.1174 H         1 <0>         0.4298
     36 H11         5.5489   -2.4952    0.1464 H         1 <0>         0.1734
     37 H12         4.2063   -6.9243    0.4306 H         1 <0>         0.1384
     38 H13         2.0368   -8.0313    0.4347 H         1 <0>         0.1355
     39 H14        -0.0413   -6.7293    0.2677 H         1 <0>         0.1361
     40 H15         0.0190   -4.3006    0.0926 H         1 <0>         0.1418
@<TRIPOS>BOND
     1    1    2 1
     2    1   26 1
     3    1   27 1
     4    1   28 1
     5    2    3 1
     6    3    8 ar
     7    3    4 ar
     8    4    5 ar
     9    4   29 1
    10    5   14 ar
    11    5    6 ar
    12    6    7 ar
    13    6   11 ar
    14    7    8 ar
    15    7   30 1
    16    8    9 1
    17    9   10 1
    18   10   31 1
    19   10   32 1
    20   10   33 1
    21   11   12 ar
    22   12   13 ar
    23   12   34 1
    24   13   14 ar
    25   14   15 1
    26   15   16 1
    27   15   35 1
    28   16   25 ar
    29   16   17 ar
    30   17   18 ar
    31   17   36 1
    32   18   19 ar
    33   19   24 ar
    34   19   20 ar
    35   20   21 ar
    36   20   37 1
    37   21   22 ar
    38   21   38 1
    39   22   23 ar
    40   22   39 1
    41   23   24 ar
    42   23   40 1
    43   24   25 ar
@<TRIPOS>MOLECULE
ZINC03815390
   54    57     0     0     0
SMALL
USER_CHARGES

@<TRIPOS>ATOM
      1 C1          5.5524    4.9236   -1.7521 C.3       1 <0>         0.0261
      2 O1          4.1411    5.1416   -1.8066 O.3       1 <0>        -0.3158
      3 C2          3.3775    4.4674   -0.9071 C.ar      1 <0>         0.1366
      4 C3          3.9760    3.6131    0.0094 C.ar      1 <0>        -0.2098
      5 C4          3.2035    2.9245    0.9257 C.ar      1 <0>        -0.0711
      6 C5          1.8321    3.0823    0.9352 C.ar      1 <0>        -0.1642
      7 C6          1.2230    3.9385    0.0187 C.ar      1 <0>         0.0307
      8 C7          2.0021    4.6284   -0.9082 C.ar      1 <0>        -0.1417
      9 C8         -0.2494    4.1097    0.0263 C.2       1 <0>        -0.0986
     10 C9         -0.9291    5.2829    0.0364 C.2       1 <0>         0.0679
     11 N1         -2.2759    5.0342    0.0416 N.pl3     1 <0>        -0.4070
     12 C10        -2.5086    3.6829    0.0349 C.ar      1 <0>         0.3517
     13 C11        -1.2577    3.0416    0.0304 C.ar      1 <0>        -0.2486
     14 C12        -1.2185    1.6412    0.0167 C.ar      1 <0>         0.4946
     15 N2         -2.3712    0.9770    0.0186 N.ar      1 <0>        -0.5990
     16 C13        -3.5254    1.6185    0.0280 C.ar      1 <0>         0.3626
     17 N3         -3.6085    2.9315    0.0360 N.ar      1 <0>        -0.5633
     18 N4         -0.0111    0.9658    0.0074 N.pl3     1 <0>        -0.8303
     19 C14        -3.2724    6.0187    0.0530 C.ar      1 <0>         0.1211
     20 C15        -4.3122    5.9667   -0.8659 C.ar      1 <0>        -0.0946
     21 C16        -5.2955    6.9365   -0.8493 C.ar      1 <0>        -0.0876
     22 C17        -5.2401    7.9637    0.0748 C.ar      1 <0>        -0.0613
     23 C18        -4.2031    8.0211    0.9877 C.ar      1 <0>        -0.0890
     24 C19        -3.2193    7.0517    0.9794 C.ar      1 <0>        -0.1141
     25 C20        -6.3118    9.0231    0.0866 C.3       1 <0>        -0.1032
     26 C21        -5.9087   10.1556   -0.8221 C.2       1 <0>         0.5132
     27 O2         -4.8549   10.1073   -1.4205 O.2       1 <0>        -0.5302
     28 N5         -6.7193   11.2222   -0.9699 N.am      1 <0>        -0.7273
     29 C22        -6.3274   12.3232   -1.8533 C.3       1 <0>         0.1188
     30 C23        -7.4155   13.3988   -1.8413 C.3       1 <0>         0.0626
     31 O3         -7.5023   13.9740   -0.5360 O.3       1 <0>        -0.5724
     32 H1          5.9276    5.2165   -0.7715 H         1 <0>         0.0571
     33 H2          5.7637    3.8678   -1.9215 H         1 <0>         0.0569
     34 H3          6.0422    5.5203   -2.5216 H         1 <0>         0.1019
     35 H4          5.0485    3.4861    0.0061 H         1 <0>         0.1303
     36 H5          3.6741    2.2607    1.6359 H         1 <0>         0.1299
     37 H6          1.2313    2.5426    1.6522 H         1 <0>         0.1276
     38 H7          1.5348    5.2894   -1.6232 H         1 <0>         0.1341
     39 H8         -0.4774    6.2639    0.0402 H         1 <0>         0.1831
     40 H9         -4.4385    1.0417    0.0288 H         1 <0>         0.2010
     41 H10         0.0021   -0.0041    0.0020 H         1 <0>         0.4075
     42 H11         0.8223    1.4622    0.0021 H         1 <0>         0.4129
     43 H12        -4.3538    5.1670   -1.5905 H         1 <0>         0.1301
     44 H13        -6.1067    6.8944   -1.5611 H         1 <0>         0.1300
     45 H14        -4.1621    8.8250    1.7078 H         1 <0>         0.1304
     46 H15        -2.4095    7.0972    1.6924 H         1 <0>         0.1303
     47 H16        -7.2509    8.5938   -0.2625 H         1 <0>         0.1068
     48 H17        -6.4395    9.3994    1.1016 H         1 <0>         0.1071
     49 H18        -7.5621   11.2609   -0.4913 H         1 <0>         0.4041
     50 H19        -5.3883   12.7525   -1.5042 H         1 <0>         0.0756
     51 H20        -6.1998   11.9469   -2.8683 H         1 <0>         0.0828
     52 H21        -7.1668   14.1753   -2.5647 H         1 <0>         0.0649
     53 H22        -8.3731   12.9498   -2.1049 H         1 <0>         0.0544
     54 H23        -8.1735   14.6653   -0.4547 H         1 <0>         0.3844
@<TRIPOS>BOND
     1    1    2 1
     2    1   32 1
     3    1   33 1
     4    1   34 1
     5    2    3 1
     6    3    8 ar
     7    3    4 ar
     8    4    5 ar
     9    4   35 1
    10    5    6 ar
    11    5   36 1
    12    6    7 ar
    13    6   37 1
    14    7    8 ar
    15    7    9 1
    16    8   38 1
    17    9   13 1
    18    9   10 2
    19   10   11 1
    20   10   39 1
    21   11   12 1
    22   11   19 1
    23   12   17 ar
    24   12   13 ar
    25   13   14 ar
    26   14   15 ar
    27   14   18 1
    28   15   16 ar
    29   16   17 ar
    30   16   40 1
    31   18   41 1
    32   18   42 1
    33   19   24 ar
    34   19   20 ar
    35   20   21 ar
    36   20   43 1
    37   21   22 ar
    38   21   44 1
    39   22   23 ar
    40   22   25 1
    41   23   24 ar
    42   23   45 1
    43   24   46 1
    44   25   26 1
    45   25   47 1
    46   25   48 1
    47   26   27 2
    48   26   28 am
    49   28   29 1
    50   28   49 1
    51   29   30 1
    52   29   50 1
    53   29   51 1
    54   30   31 1
    55   30   52 1
    56   30   53 1
    57   31   54 1
@<TRIPOS>MOLECULE
ZINC03815391
   44    47     0     0     0
SMALL
USER_CHARGES

@<TRIPOS>ATOM
      1 C1          5.5524    4.9236   -1.7521 C.3       1 <0>         0.0260
      2 O1          4.1411    5.1416   -1.8066 O.3       1 <0>        -0.3158
      3 C2          3.3775    4.4674   -0.9071 C.ar      1 <0>         0.1367
      4 C3          3.9760    3.6131    0.0094 C.ar      1 <0>        -0.2094
      5 C4          3.2035    2.9245    0.9257 C.ar      1 <0>        -0.0709
      6 C5          1.8321    3.0823    0.9352 C.ar      1 <0>        -0.1642
      7 C6          1.2230    3.9385    0.0187 C.ar      1 <0>         0.0298
      8 C7          2.0021    4.6284   -0.9082 C.ar      1 <0>        -0.1415
      9 C8         -0.2494    4.1097    0.0263 C.2       1 <0>        -0.0966
     10 C9         -0.9291    5.2829    0.0364 C.2       1 <0>         0.0663
     11 N1         -2.2759    5.0342    0.0416 N.pl3     1 <0>        -0.4079
     12 C10        -2.5086    3.6829    0.0349 C.ar      1 <0>         0.3518
     13 C11        -1.2577    3.0416    0.0304 C.ar      1 <0>        -0.2485
     14 C12        -1.2185    1.6412    0.0167 C.ar      1 <0>         0.4950
     15 N2         -2.3712    0.9770    0.0186 N.ar      1 <0>        -0.5985
     16 C13        -3.5254    1.6185    0.0280 C.ar      1 <0>         0.3637
     17 N3         -3.6085    2.9315    0.0360 N.ar      1 <0>        -0.5641
     18 N4         -0.0111    0.9658    0.0074 N.pl3     1 <0>        -0.8298
     19 C14        -3.2724    6.0187    0.0530 C.ar      1 <0>         0.1186
     20 C15        -4.3124    5.9667   -0.8660 C.ar      1 <0>        -0.0913
     21 C16        -5.2955    6.9363   -0.8495 C.ar      1 <0>        -0.1041
     22 C17        -5.2401    7.9637    0.0748 C.ar      1 <0>        -0.0926
     23 C18        -4.2032    8.0211    0.9876 C.ar      1 <0>        -0.0791
     24 C19        -3.2193    7.0515    0.9792 C.ar      1 <0>        -0.0968
     25 C20        -4.1461    9.1428    1.9923 C.3       1 <0>         0.1167
     26 O2         -3.4073   10.2362    1.4440 O.3       1 <0>        -0.5671
     27 H1          5.9276    5.2165   -0.7715 H         1 <0>         0.0572
     28 H2          5.7637    3.8678   -1.9215 H         1 <0>         0.0570
     29 H3          6.0422    5.5203   -2.5216 H         1 <0>         0.1021
     30 H4          5.0485    3.4861    0.0061 H         1 <0>         0.1306
     31 H5          3.6741    2.2607    1.6359 H         1 <0>         0.1301
     32 H6          1.2313    2.5426    1.6522 H         1 <0>         0.1276
     33 H7          1.5348    5.2894   -1.6232 H         1 <0>         0.1340
     34 H8         -0.4774    6.2639    0.0402 H         1 <0>         0.1832
     35 H9         -4.4385    1.0417    0.0288 H         1 <0>         0.2015
     36 H10         0.0021   -0.0041    0.0020 H         1 <0>         0.4078
     37 H11         0.8223    1.4622    0.0021 H         1 <0>         0.4130
     38 H12        -4.3540    5.1670   -1.5906 H         1 <0>         0.1315
     39 H13        -6.1063    6.8946   -1.5617 H         1 <0>         0.1358
     40 H14        -6.0082    8.7229    0.0833 H         1 <0>         0.1310
     41 H15        -2.4098    7.0967    1.6927 H         1 <0>         0.1302
     42 H16        -5.1584    9.4706    2.2289 H         1 <0>         0.0603
     43 H17        -3.6561    8.7923    2.9007 H         1 <0>         0.0570
     44 H18        -3.3299   10.9956    2.0376 H         1 <0>         0.3838
@<TRIPOS>BOND
     1    1    2 1
     2    1   27 1
     3    1   28 1
     4    1   29 1
     5    2    3 1
     6    3    8 ar
     7    3    4 ar
     8    4    5 ar
     9    4   30 1
    10    5    6 ar
    11    5   31 1
    12    6    7 ar
    13    6   32 1
    14    7    8 ar
    15    7    9 1
    16    8   33 1
    17    9   13 1
    18    9   10 2
    19   10   11 1
    20   10   34 1
    21   11   12 1
    22   11   19 1
    23   12   17 ar
    24   12   13 ar
    25   13   14 ar
    26   14   15 ar
    27   14   18 1
    28   15   16 ar
    29   16   17 ar
    30   16   35 1
    31   18   36 1
    32   18   37 1
    33   19   24 ar
    34   19   20 ar
    35   20   21 ar
    36   20   38 1
    37   21   22 ar
    38   21   39 1
    39   22   23 ar
    40   22   40 1
    41   23   24 ar
    42   23   25 1
    43   24   41 1
    44   25   26 1
    45   25   42 1
    46   25   43 1
    47   26   44 1
@<TRIPOS>MOLECULE
ZINC03815393
   30    32     0     0     0
SMALL
USER_CHARGES

@<TRIPOS>ATOM
      1 C1         -5.1556   -2.8530   -0.2504 C.ar      1 <0>        -0.0847
      2 C2         -3.9348   -2.2169   -0.3649 C.ar      1 <0>        -0.1385
      3 C3         -3.7713   -0.9337    0.1411 C.ar      1 <0>         0.1563
      4 C4         -4.8351   -0.2960    0.7664 C.ar      1 <0>        -0.1033
      5 C5         -6.0555   -0.9356    0.8733 C.ar      1 <0>        -0.0153
      6 C6         -6.2146   -2.2142    0.3673 C.ar      1 <0>        -0.1207
      7 Cl1        -7.3879   -0.1377    1.6491 Cl        1 <0>        -0.0597
      8 N1         -2.5370   -0.2878    0.0264 N.pl3     1 <0>        -0.6308
      9 C7         -2.4872    1.0821   -0.1285 C.ar      1 <0>         0.4696
     10 C8         -1.2488    1.7696   -0.1305 C.ar      1 <0>        -0.1666
     11 C9         -0.0286    1.1052    0.0354 C.ar      1 <0>        -0.0559
     12 C10         1.1321    1.8215    0.0321 C.ar      1 <0>        -0.0939
     13 C11         1.1183    3.2042   -0.1287 C.ar      1 <0>         0.0063
     14 C12        -0.0541    3.8815   -0.2869 C.ar      1 <0>        -0.0255
     15 C13        -1.2655    3.1769   -0.2879 C.ar      1 <0>         0.1889
     16 N2         -2.4466    3.7946   -0.4392 N.ar      1 <0>        -0.5308
     17 C14        -3.5628    3.1055   -0.4351 C.ar      1 <0>         0.3595
     18 N3         -3.5973    1.7909   -0.2856 N.ar      1 <0>        -0.5670
     19 N4          2.3966    3.9505   -0.1285 N.pl3     1 <0>         0.0192
     20 O1          3.4496    3.3546    0.0116 O.2       1 <0>        -0.1419
     21 O2          2.3955    5.1604   -0.2685 O.3       1 <0>        -0.1446
     22 H1         -5.2827   -3.8508   -0.6435 H         1 <0>         0.1398
     23 H2         -3.1082   -2.7167   -0.8480 H         1 <0>         0.1333
     24 H3         -4.7097    0.6998    1.1652 H         1 <0>         0.1476
     25 H4         -7.1680   -2.7139    0.4555 H         1 <0>         0.1374
     26 H5         -1.7155   -0.8027    0.0557 H         1 <0>         0.4256
     27 H6         -0.0057    0.0328    0.1606 H         1 <0>         0.1498
     28 H7          2.0747    1.3090    0.1555 H         1 <0>         0.1628
     29 H8         -0.0494    4.9543   -0.4110 H         1 <0>         0.1743
     30 H9         -4.4959    3.6348   -0.5598 H         1 <0>         0.2088
@<TRIPOS>BOND
     1    1    6 ar
     2    1    2 ar
     3    1   22 1
     4    2    3 ar
     5    2   23 1
     6    3    4 ar
     7    3    8 1
     8    4    5 ar
     9    4   24 1
    10    5    6 ar
    11    5    7 1
    12    6   25 1
    13    8    9 1
    14    8   26 1
    15    9   18 ar
    16    9   10 ar
    17   10   15 ar
    18   10   11 ar
    19   11   12 ar
    20   11   27 1
    21   12   13 ar
    22   12   28 1
    23   13   14 ar
    24   13   19 1
    25   14   15 ar
    26   14   29 1
    27   15   16 ar
    28   16   17 ar
    29   17   18 ar
    30   17   30 1
    31   19   20 2
    32   19   21 1
@<TRIPOS>MOLECULE
ZINC03815394
   39    42     0     0     0
SMALL
USER_CHARGES

@<TRIPOS>ATOM
      1 C1          2.5427   -3.8510   -1.7032 C.3       1 <0>        -0.1149
      2 C2          2.4771   -2.5531   -0.9402 C.ar      1 <0>        -0.0668
      3 C3          3.6202   -2.0349   -0.3590 C.ar      1 <0>        -0.1375
      4 C4          3.5644   -0.8444    0.3420 C.ar      1 <0>        -0.0963
      5 C5          2.3670   -0.1659    0.4595 C.ar      1 <0>        -0.1161
      6 C6          1.2163   -0.6859   -0.1187 C.ar      1 <0>         0.1595
      7 C7          1.2759   -1.8824   -0.8224 C.ar      1 <0>        -0.1506
      8 N1          0.0021   -0.0041    0.0020 N.pl3     1 <0>        -0.6466
      9 C8         -0.0177    1.3800   -0.0002 C.ar      1 <0>         0.4806
     10 C9         -1.2091    2.0822    0.2409 C.ar      1 <0>        -0.2445
     11 C10        -2.5863    1.7170    0.5408 C.2       1 <0>        -0.1340
     12 C11        -3.2804    2.8631    0.6801 C.2       1 <0>         0.0721
     13 N2         -2.4431    3.9299    0.4958 N.pl3     1 <0>        -0.5619
     14 H1         -2.7098    4.8612    0.5456 H         1 <0>         0.4215
     15 C12        -1.1738    3.4905    0.2317 C.ar      1 <0>         0.3444
     16 N3         -0.0140    4.0968   -0.0153 N.ar      1 <0>        -0.5642
     17 C13         1.0767    3.3971   -0.2404 C.ar      1 <0>         0.3561
     18 N4          1.0901    2.0762   -0.2363 N.ar      1 <0>        -0.5832
     19 C14        -4.7582    2.9155    0.9918 C.3       1 <0>        -0.0543
     20 C15        -5.3672    1.5398    0.6985 C.3       1 <0>        -0.1150
     21 C16        -4.5315    0.4545    1.3831 C.3       1 <0>        -0.1197
     22 C17        -3.1758    0.3367    0.6757 C.3       1 <0>        -0.0535
     23 H2          2.7632   -3.6458   -2.7508 H         1 <0>         0.0712
     24 H3          3.3275   -4.4801   -1.2832 H         1 <0>         0.0679
     25 H4          1.5849   -4.3658   -1.6276 H         1 <0>         0.0655
     26 H5          4.5586   -2.5612   -0.4532 H         1 <0>         0.1218
     27 H6          4.4589   -0.4423    0.7943 H         1 <0>         0.1249
     28 H7          2.3249    0.7661    1.0037 H         1 <0>         0.1323
     29 H8          0.3838   -2.2872   -1.2770 H         1 <0>         0.1218
     30 H9         -0.8267   -0.5008    0.0874 H         1 <0>         0.4186
     31 H10         1.9989    3.9238   -0.4364 H         1 <0>         0.2015
     32 H11        -4.9020    3.1633    2.0434 H         1 <0>         0.0852
     33 H12        -5.2377    3.6686    0.3665 H         1 <0>         0.0809
     34 H13        -5.3746    1.3677   -0.3778 H         1 <0>         0.0700
     35 H14        -6.3881    1.5061    1.0788 H         1 <0>         0.0765
     36 H15        -5.0561   -0.4992    1.3253 H         1 <0>         0.0728
     37 H16        -4.3745    0.7207    2.4284 H         1 <0>         0.0680
     38 H17        -3.3153   -0.1003   -0.3131 H         1 <0>         0.0754
     39 H18        -2.5079   -0.2908    1.2659 H         1 <0>         0.0708
@<TRIPOS>BOND
     1    1    2 1
     2    1   23 1
     3    1   24 1
     4    1   25 1
     5    2    7 ar
     6    2    3 ar
     7    3    4 ar
     8    3   26 1
     9    4    5 ar
    10    4   27 1
    11    5    6 ar
    12    5   28 1
    13    6    7 ar
    14    6    8 1
    15    7   29 1
    16    8    9 1
    17    8   30 1
    18    9   18 ar
    19    9   10 ar
    20   10   15 ar
    21   10   11 1
    22   11   22 1
    23   11   12 2
    24   12   13 1
    25   12   19 1
    26   13   14 1
    27   13   15 1
    28   15   16 ar
    29   16   17 ar
    30   17   18 ar
    31   17   31 1
    32   19   20 1
    33   19   32 1
    34   19   33 1
    35   20   21 1
    36   20   34 1
    37   20   35 1
    38   21   22 1
    39   21   36 1
    40   21   37 1
    41   22   38 1
    42   22   39 1
@<TRIPOS>MOLECULE
ZINC03815395
   40    43     0     0     0
SMALL
USER_CHARGES

@<TRIPOS>ATOM
      1 C1          5.8094    3.0824   -0.4953 C.3       1 <0>         0.0227
      2 O1          4.6194    3.8639   -0.3725 O.3       1 <0>        -0.2987
      3 C2          3.4345    3.2044   -0.4734 C.ar      1 <0>         0.1213
      4 C3          3.4266    1.8428   -0.5841 C.ar      1 <0>        -0.1450
      5 C4          2.2073    1.1629   -0.6885 C.ar      1 <0>        -0.1445
      6 C5          0.9904    1.8888   -0.6791 C.ar      1 <0>         0.1793
      7 C6          1.0220    3.2838   -0.5643 C.ar      1 <0>        -0.1817
      8 C7          2.2347    3.9291   -0.4630 C.ar      1 <0>         0.1628
      9 O2          2.2683    5.2826   -0.3515 O.3       1 <0>        -0.2956
     10 C8          1.0125    5.9646   -0.3469 C.3       1 <0>         0.0194
     11 N1         -0.1646    1.2123   -0.7800 N.ar      1 <0>        -0.5025
     12 C9         -0.1624   -0.0952   -0.8851 C.ar      1 <0>         0.3108
     13 N2          0.9485   -0.8145   -0.8987 N.ar      1 <0>        -0.5309
     14 C10         2.1435   -0.2461   -0.8049 C.ar      1 <0>         0.4615
     15 N3          3.2942   -1.0088   -0.8200 N.pl3     1 <0>        -0.5827
     16 C11         4.0251   -1.4022   -2.0275 C.3       1 <0>         0.1268
     17 C12         5.2196   -2.2290   -1.5243 C.3       1 <0>        -0.0811
     18 C13         5.0620   -2.2482   -0.0205 C.ar      1 <0>        -0.1566
     19 C14         3.9285   -1.5231    0.3133 C.ar      1 <0>         0.1941
     20 C15         3.5748   -1.3995    1.6583 C.ar      1 <0>        -0.1642
     21 C16         4.3444   -1.9921    2.6368 C.ar      1 <0>        -0.0759
     22 C17         5.4728   -2.7134    2.2933 C.ar      1 <0>        -0.1589
     23 C18         5.8299   -2.8400    0.9634 C.ar      1 <0>        -0.0634
     24 H1          6.6795    3.7382   -0.4650 H         1 <0>         0.1077
     25 H2          5.8627    2.3698    0.3279 H         1 <0>         0.0592
     26 H3          5.7938    2.5429   -1.4423 H         1 <0>         0.0580
     27 H4          4.3565    1.2936   -0.5908 H         1 <0>         0.1490
     28 H5          0.1023    3.8499   -0.5558 H         1 <0>         0.1580
     29 H6          0.4848    5.7605   -1.2786 H         1 <0>         0.0625
     30 H7          0.4129    5.6162    0.4941 H         1 <0>         0.0626
     31 H8          1.1818    7.0372   -0.2527 H         1 <0>         0.1085
     32 H9         -1.1097   -0.6078   -0.9645 H         1 <0>         0.2013
     33 H10         3.3893   -2.0072   -2.6740 H         1 <0>         0.0758
     34 H11         4.3770   -0.5193   -2.5611 H         1 <0>         0.0725
     35 H12         6.1601   -1.7533   -1.8021 H         1 <0>         0.0902
     36 H13         5.1720   -3.2418   -1.9246 H         1 <0>         0.0904
     37 H14         2.6944   -0.8377    1.9334 H         1 <0>         0.1112
     38 H15         4.0647   -1.8927    3.6752 H         1 <0>         0.1254
     39 H16         6.0739   -3.1766    3.0617 H         1 <0>         0.1257
     40 H17         6.7110   -3.4032    0.6934 H         1 <0>         0.1247
@<TRIPOS>BOND
     1    1    2 1
     2    1   24 1
     3    1   25 1
     4    1   26 1
     5    2    3 1
     6    3    8 ar
     7    3    4 ar
     8    4    5 ar
     9    4   27 1
    10    5   14 ar
    11    5    6 ar
    12    6    7 ar
    13    6   11 ar
    14    7    8 ar
    15    7   28 1
    16    8    9 1
    17    9   10 1
    18   10   29 1
    19   10   30 1
    20   10   31 1
    21   11   12 ar
    22   12   13 ar
    23   12   32 1
    24   13   14 ar
    25   14   15 1
    26   15   19 1
    27   15   16 1
    28   16   17 1
    29   16   33 1
    30   16   34 1
    31   17   18 1
    32   17   35 1
    33   17   36 1
    34   18   23 ar
    35   18   19 ar
    36   19   20 ar
    37   20   21 ar
    38   20   37 1
    39   21   22 ar
    40   21   38 1
    41   22   23 ar
    42   22   39 1
    43   23   40 1
@<TRIPOS>MOLECULE
ZINC03815396
   39    42     0     0     0
SMALL
USER_CHARGES

@<TRIPOS>ATOM
      1 C1          6.0066   -1.7947   -0.0628 C.3       1 <0>         0.0206
      2 O1          4.8301   -2.6057   -0.0563 O.3       1 <0>        -0.2991
      3 C2          3.6343   -1.9584   -0.0423 C.ar      1 <0>         0.1182
      4 C3          3.6055   -0.5928   -0.0352 C.ar      1 <0>        -0.1557
      5 C4          2.3748    0.0746   -0.0203 C.ar      1 <0>        -0.1690
      6 C5          1.1681   -0.6685   -0.0127 C.ar      1 <0>         0.1980
      7 C6          1.2213   -2.0676   -0.0202 C.ar      1 <0>        -0.1797
      8 C7          2.4446   -2.7002   -0.0349 C.ar      1 <0>         0.1620
      9 O2          2.4991   -4.0575   -0.0427 O.3       1 <0>        -0.2968
     10 C8          1.2530   -4.7569   -0.0345 C.3       1 <0>         0.0198
     11 N1          0.0021   -0.0041    0.0020 N.ar      1 <0>        -0.5311
     12 C9         -0.0157    1.3075    0.0092 C.ar      1 <0>         0.3378
     13 N2          1.0852    2.0423    0.0027 N.ar      1 <0>        -0.5225
     14 C10         2.2893    1.4868   -0.0119 C.ar      1 <0>         0.4486
     15 N3          3.4305    2.2667   -0.0182 N.pl3     1 <0>        -0.5981
     16 C11         3.3254    3.6489   -0.0098 C.ar      1 <0>         0.4786
     17 N4          4.4254    4.3796   -0.0160 N.ar      1 <0>        -0.4990
     18 C12         4.3184    5.7136   -0.0079 C.ar      1 <0>         0.1757
     19 C13         5.4472    6.5473   -0.0144 C.ar      1 <0>        -0.1110
     20 C14         5.2847    7.8993   -0.0059 C.ar      1 <0>        -0.0566
     21 C15         4.0127    8.4695    0.0090 C.ar      1 <0>        -0.1131
     22 C16         2.8951    7.6922    0.0156 C.ar      1 <0>        -0.0484
     23 C17         3.0226    6.2935    0.0073 C.ar      1 <0>        -0.0239
     24 N5          1.9544    5.4895    0.0127 N.ar      1 <0>        -0.1130
     25 N6          2.1148    4.2106   -0.0011 N.ar      1 <0>        -0.2169
     26 H1          6.0062   -1.1610   -0.9496 H         1 <0>         0.0582
     27 H2          6.0222   -1.1700    0.8302 H         1 <0>         0.0582
     28 H3          6.8889   -2.4347   -0.0739 H         1 <0>         0.1077
     29 H4          4.5276   -0.0306   -0.0414 H         1 <0>         0.1397
     30 H5          0.3096   -2.6466   -0.0143 H         1 <0>         0.1579
     31 H6          0.6762   -4.4819   -0.9175 H         1 <0>         0.0626
     32 H7          1.4390   -5.8309   -0.0420 H         1 <0>         0.1075
     33 H8          0.6932   -4.4914    0.8623 H         1 <0>         0.0626
     34 H9         -0.9715    1.8104    0.0164 H         1 <0>         0.2024
     35 H10         4.3048    1.8469   -0.0285 H         1 <0>         0.4339
     36 H11         6.4387    6.1193   -0.0263 H         1 <0>         0.1469
     37 H12         6.1544    8.5396   -0.0113 H         1 <0>         0.1438
     38 H13         3.9122    9.5448    0.0158 H         1 <0>         0.1436
     39 H14         1.9162    8.1483    0.0272 H         1 <0>         0.1493
@<TRIPOS>BOND
     1    1    2 1
     2    1   26 1
     3    1   27 1
     4    1   28 1
     5    2    3 1
     6    3    8 ar
     7    3    4 ar
     8    4    5 ar
     9    4   29 1
    10    5   14 ar
    11    5    6 ar
    12    6    7 ar
    13    6   11 ar
    14    7    8 ar
    15    7   30 1
    16    8    9 1
    17    9   10 1
    18   10   31 1
    19   10   32 1
    20   10   33 1
    21   11   12 ar
    22   12   13 ar
    23   12   34 1
    24   13   14 ar
    25   14   15 1
    26   15   16 1
    27   15   35 1
    28   16   25 ar
    29   16   17 ar
    30   17   18 ar
    31   18   23 ar
    32   18   19 ar
    33   19   20 ar
    34   19   36 1
    35   20   21 ar
    36   20   37 1
    37   21   22 ar
    38   21   38 1
    39   22   23 ar
    40   22   39 1
    41   23   24 ar
    42   24   25 ar
@<TRIPOS>MOLECULE
ZINC03815397
   40    42     0     0     0
SMALL
USER_CHARGES

@<TRIPOS>ATOM
      1 C1         -2.2836    9.3635   -0.9531 C.3       1 <0>         0.0227
      2 O1         -1.0692   10.1108   -0.8584 O.3       1 <0>        -0.2993
      3 C2          0.0621    9.4157   -0.5646 C.ar      1 <0>         0.1241
      4 C3         -0.0035    8.0650   -0.3771 C.ar      1 <0>        -0.1541
      5 C4          1.1616    7.3454   -0.0740 C.ar      1 <0>        -0.0999
      6 C5          2.4012    8.0210    0.0356 C.ar      1 <0>         0.1665
      7 C6          2.4428    9.4096   -0.1621 C.ar      1 <0>        -0.1776
      8 C7          1.2850   10.0925   -0.4581 C.ar      1 <0>         0.1550
      9 O2          1.3279   11.4368   -0.6494 O.3       1 <0>        -0.2968
     10 C8          2.6037   12.0689   -0.5278 C.3       1 <0>         0.0197
     11 N1          3.5191    7.3386    0.3243 N.ar      1 <0>        -0.4645
     12 C9          3.5120    6.0439    0.5135 C.ar      1 <0>         0.1799
     13 C10         2.3273    5.2946    0.4309 C.ar      1 <0>        -0.0922
     14 C11         1.1227    5.9460    0.1257 C.ar      1 <0>         0.2718
     15 N2         -0.0627    5.2446    0.0290 N.pl3     1 <0>        -0.7065
     16 C12        -0.5009    4.7813   -1.2142 C.ar      1 <0>         0.2461
     17 C13         0.1860    5.1342   -2.3700 C.ar      1 <0>        -0.2348
     18 C14        -0.2463    4.6763   -3.5993 C.ar      1 <0>        -0.0287
     19 C15        -1.3627    3.8665   -3.6848 C.ar      1 <0>        -0.2376
     20 C16        -2.0572    3.5142   -2.5340 C.ar      1 <0>         0.2553
     21 C17        -1.6222    3.9679   -1.2966 C.ar      1 <0>        -0.2579
     22 N3         -3.1887    2.7000   -2.6219 N.pl3     1 <0>        -0.8758
     23 C18         2.3493    3.8796    0.6499 C.1       1 <0>         0.2573
     24 N4          2.3668    2.7571    0.8236 N.1       1 <0>        -0.3984
     25 H1         -2.4817    8.8702   -0.0016 H         1 <0>         0.0576
     26 H2         -3.1068   10.0369   -1.1916 H         1 <0>         0.1061
     27 H3         -2.1884    8.6136   -1.7383 H         1 <0>         0.0602
     28 H4         -0.9501    7.5520   -0.4615 H         1 <0>         0.1488
     29 H5          3.3800    9.9405   -0.0826 H         1 <0>         0.1568
     30 H6          2.9972   11.9031    0.4750 H         1 <0>         0.0624
     31 H7          3.2899   11.6465   -1.2619 H         1 <0>         0.0626
     32 H8          2.4971   13.1393   -0.7039 H         1 <0>         0.1070
     33 H9          4.4391    5.5400    0.7438 H         1 <0>         0.1730
     34 H10        -0.5912    5.0734    0.8241 H         1 <0>         0.4158
     35 H11         1.0590    5.7670   -2.3066 H         1 <0>         0.1156
     36 H12         0.2893    4.9520   -4.4957 H         1 <0>         0.1231
     37 H13        -1.6985    3.5108   -4.6477 H         1 <0>         0.1188
     38 H14        -2.1580    3.6924   -0.4002 H         1 <0>         0.1201
     39 H15        -3.4901    2.3803   -3.4867 H         1 <0>         0.4000
     40 H16        -3.6731    2.4544   -1.8183 H         1 <0>         0.3980
@<TRIPOS>BOND
     1    1    2 1
     2    1   25 1
     3    1   26 1
     4    1   27 1
     5    2    3 1
     6    3    8 ar
     7    3    4 ar
     8    4    5 ar
     9    4   28 1
    10    5   14 ar
    11    5    6 ar
    12    6    7 ar
    13    6   11 ar
    14    7    8 ar
    15    7   29 1
    16    8    9 1
    17    9   10 1
    18   10   30 1
    19   10   31 1
    20   10   32 1
    21   11   12 ar
    22   12   13 ar
    23   12   33 1
    24   13   14 ar
    25   13   23 1
    26   14   15 1
    27   15   16 1
    28   15   34 1
    29   16   21 ar
    30   16   17 ar
    31   17   18 ar
    32   17   35 1
    33   18   19 ar
    34   18   36 1
    35   19   20 ar
    36   19   37 1
    37   20   21 ar
    38   20   22 1
    39   21   38 1
    40   22   39 1
    41   22   40 1
    42   23   24 3
@<TRIPOS>MOLECULE
ZINC03815398
   30    32     0     0     0
SMALL
USER_CHARGES

@<TRIPOS>ATOM
      1 C1          2.1568    5.6965    0.3948 C.ar      1 <0>        -0.0681
      2 C2          2.2602    4.3224    0.4910 C.ar      1 <0>        -0.1082
      3 C3          3.3215    3.6622   -0.1150 C.ar      1 <0>         0.1440
      4 C4          4.2796    4.3866   -0.8121 C.ar      1 <0>        -0.1679
      5 C5          4.1683    5.7617   -0.9097 C.ar      1 <0>         0.1237
      6 C6          3.1081    6.4160   -0.3037 C.ar      1 <0>        -0.1454
      7 F1          5.0965    6.4677   -1.5918 F         1 <0>        -0.1279
      8 N1          3.4281    2.2717   -0.0184 N.pl3     1 <0>        -0.6088
      9 C7          2.2915    1.4918   -0.0158 C.ar      1 <0>         0.5205
     10 C8          2.3670    0.0966    0.2019 C.ar      1 <0>        -0.2613
     11 C9          3.5748   -0.5691    0.4248 C.ar      1 <0>         0.2660
     12 C10         2.4713   -2.6008    0.6186 C.ar      1 <0>         0.4427
     13 C11         1.2298   -2.0298    0.4065 C.ar      1 <0>        -0.1900
     14 C12         1.1580   -0.6488    0.1914 C.ar      1 <0>         0.3037
     15 N2          0.0033   -0.0060   -0.0230 N.ar      1 <0>        -0.5550
     16 C13        -0.0052    1.2926   -0.2198 C.ar      1 <0>         0.4282
     17 N3          1.0940    2.0288   -0.2191 N.ar      1 <0>        -0.5788
     18 N4          2.5603   -3.9701    0.8332 N.pl3     1 <0>        -0.8270
     19 H1          1.3316    6.2094    0.8664 H         1 <0>         0.1462
     20 H2          1.5160    3.7615    1.0368 H         1 <0>         0.1424
     21 H3          5.1082    3.8765   -1.2809 H         1 <0>         0.1421
     22 H4          3.0249    7.4903   -0.3770 H         1 <0>         0.1461
     23 H5          4.3020    1.8557    0.0469 H         1 <0>         0.4250
     24 H6          4.5023   -0.0158    0.4354 H         1 <0>         0.1978
     25 H7          0.3358   -2.6358    0.4073 H         1 <0>         0.1930
     26 H8         -0.9525    1.7811   -0.3946 H         1 <0>         0.2226
     27 H9          1.7573   -4.5142    0.8332 H         1 <0>         0.4392
     28 H10         3.4255   -4.3823    0.9831 H         1 <0>         0.4199
     29 N5          3.6578   -1.9078    0.6347 N.ar      1 <0>        -0.5393
     30 H11         4.5570   -2.3763    0.7966 H         1 <0>         0.4744
@<TRIPOS>BOND
     1    1    6 ar
     2    1    2 ar
     3    1   19 1
     4    2    3 ar
     5    2   20 1
     6    3    4 ar
     7    3    8 1
     8    4    5 ar
     9    4   21 1
    10    5    6 ar
    11    5    7 1
    12    6   22 1
    13    8    9 1
    14    8   23 1
    15    9   17 ar
    16    9   10 ar
    17   10   14 ar
    18   10   11 ar
    19   11   24 1
    20   11   29 ar
    21   12   13 ar
    22   12   18 1
    23   12   29 ar
    24   13   14 ar
    25   13   25 1
    26   14   15 ar
    27   15   16 ar
    28   16   17 ar
    29   16   26 1
    30   18   27 1
    31   18   28 1
    32   29   30 1
@<TRIPOS>MOLECULE
ZINC03815399
   41    43     0     0     0
SMALL
USER_CHARGES

@<TRIPOS>ATOM
      1 C1          2.6418    0.1270    0.6033 C.3       1 <0>        -0.1213
      2 C2          1.6731    0.5361    1.6827 C.ar      1 <0>        -0.1167
      3 C3          0.3867    0.9391    1.3465 C.ar      1 <0>         0.2088
      4 C4         -0.5050    1.3099    2.3450 C.ar      1 <0>        -0.1625
      5 C5         -0.1090    1.2825    3.6680 C.ar      1 <0>        -0.0725
      6 C6          1.1735    0.8866    3.9995 C.ar      1 <0>        -0.1295
      7 C7          2.0648    0.5164    3.0075 C.ar      1 <0>        -0.0507
      8 Br1         3.8176   -0.0249    3.4664 Br        1 <0>        -0.0419
      9 N1         -0.0111    0.9658    0.0074 N.pl3     1 <0>        -0.7028
     10 C8         -1.3232    1.2475   -0.3176 C.ar      1 <0>         0.2642
     11 C9         -2.2648    0.2115   -0.5167 C.ar      1 <0>        -0.0977
     12 C10        -1.8946   -1.1359   -0.3910 C.ar      1 <0>        -0.1595
     13 C11        -2.8235   -2.1164   -0.5881 C.ar      1 <0>         0.1274
     14 C12        -4.1470   -1.7902   -0.9166 C.ar      1 <0>         0.1558
     15 C13        -4.5356   -0.4765   -1.0462 C.ar      1 <0>        -0.1769
     16 C14        -3.5989    0.5498   -0.8480 C.ar      1 <0>         0.1676
     17 N2         -3.9591    1.8358   -0.9705 N.ar      1 <0>        -0.4619
     18 C15        -3.1087    2.8143   -0.7923 C.ar      1 <0>         0.1790
     19 C16        -1.7674    2.5712   -0.4554 C.ar      1 <0>        -0.0907
     20 C17        -0.8611    3.6626   -0.2605 C.1       1 <0>         0.2536
     21 N3         -0.1421    4.5285   -0.1058 N.1       1 <0>        -0.3931
     22 O1         -5.0554   -2.7818   -1.1094 O.3       1 <0>        -0.2961
     23 C18        -6.3874   -2.3856   -1.4423 C.3       1 <0>         0.0194
     24 O2         -2.4619   -3.4215   -0.4652 O.3       1 <0>        -0.2982
     25 C19        -1.0989   -3.6882   -0.1289 C.3       1 <0>         0.0223
     26 H1          3.2000    1.0004    0.2660 H         1 <0>         0.0769
     27 H2          3.3342   -0.6161    0.9990 H         1 <0>         0.0823
     28 H3          2.0920   -0.2991   -0.2359 H         1 <0>         0.0644
     29 H4         -1.5069    1.6197    2.0871 H         1 <0>         0.1257
     30 H5         -0.8020    1.5712    4.4445 H         1 <0>         0.1345
     31 H6          1.4803    0.8658    5.0348 H         1 <0>         0.1335
     32 H7          0.6354    0.7905   -0.6942 H         1 <0>         0.4183
     33 H8         -0.8774   -1.3967   -0.1386 H         1 <0>         0.1479
     34 H9         -5.5575   -0.2361   -1.2999 H         1 <0>         0.1578
     35 H10        -3.4479    3.8337   -0.9024 H         1 <0>         0.1740
     36 H11        -6.7937   -1.7679   -0.6413 H         1 <0>         0.0629
     37 H12        -6.3754   -1.8148   -2.3708 H         1 <0>         0.0628
     38 H13        -7.0092   -3.2719   -1.5686 H         1 <0>         0.1077
     39 H14        -0.4472   -3.2749   -0.8986 H         1 <0>         0.0584
     40 H15        -0.8648   -3.2278    0.8310 H         1 <0>         0.0594
     41 H16        -0.9451   -4.7652   -0.0624 H         1 <0>         0.1074
@<TRIPOS>BOND
     1    1    2 1
     2    1   26 1
     3    1   27 1
     4    1   28 1
     5    2    7 ar
     6    2    3 ar
     7    3    4 ar
     8    3    9 1
     9    4    5 ar
    10    4   29 1
    11    5    6 ar
    12    5   30 1
    13    6    7 ar
    14    6   31 1
    15    7    8 1
    16    9   10 1
    17    9   32 1
    18   10   19 ar
    19   10   11 ar
    20   11   16 ar
    21   11   12 ar
    22   12   13 ar
    23   12   33 1
    24   13   14 ar
    25   13   24 1
    26   14   15 ar
    27   14   22 1
    28   15   16 ar
    29   15   34 1
    30   16   17 ar
    31   17   18 ar
    32   18   19 ar
    33   18   35 1
    34   19   20 1
    35   20   21 3
    36   22   23 1
    37   23   36 1
    38   23   37 1
    39   23   38 1
    40   24   25 1
    41   25   39 1
    42   25   40 1
    43   25   41 1
@<TRIPOS>MOLECULE
ZINC03815401
   46    48     0     0     0
SMALL
USER_CHARGES

@<TRIPOS>ATOM
      1 C1          3.9655    2.1808   -1.4074 C.3       1 <0>         0.0933
      2 N1          3.5505    1.2767   -2.4828 N.pl3     1 <0>        -0.6362
      3 C2          4.2631    1.2851   -3.7627 C.3       1 <0>         0.0881
      4 C3          2.4754    0.4067   -2.2878 C.ar      1 <0>         0.2537
      5 C4          2.0025   -0.3627   -3.3443 C.ar      1 <0>        -0.2384
      6 C5          0.9395   -1.2238   -3.1522 C.ar      1 <0>        -0.0291
      7 C6          0.3462   -1.3273   -1.9087 C.ar      1 <0>        -0.2344
      8 C7          0.8106   -0.5570   -0.8494 C.ar      1 <0>         0.2457
      9 C8          1.8785    0.3092   -1.0390 C.ar      1 <0>        -0.2558
     10 N2          0.2069   -0.6587    0.4067 N.pl3     1 <0>        -0.7069
     11 C9         -0.9364   -1.4167    0.5639 C.ar      1 <0>         0.2725
     12 C10        -0.8625   -2.8059    0.8174 C.ar      1 <0>        -0.0998
     13 C11         0.3758   -3.4578    0.9176 C.ar      1 <0>        -0.1540
     14 C12         0.4188   -4.7997    1.1629 C.ar      1 <0>         0.1240
     15 C13        -0.7648   -5.5356    1.3162 C.ar      1 <0>         0.1551
     16 C14        -1.9919   -4.9184    1.2325 C.ar      1 <0>        -0.1779
     17 C15        -2.0623   -3.5403    0.9760 C.ar      1 <0>         0.1666
     18 N3         -3.2495   -2.9243    0.8761 N.ar      1 <0>        -0.4646
     19 C16        -3.3473   -1.6415    0.6372 C.ar      1 <0>         0.1797
     20 C17        -2.2098   -0.8350    0.4715 C.ar      1 <0>        -0.0923
     21 C18        -2.3481    0.5664    0.2114 C.1       1 <0>         0.2576
     22 N4         -2.4578    1.6781    0.0051 N.1       1 <0>        -0.3986
     23 O1         -0.6993   -6.8706    1.5594 O.3       1 <0>        -0.2968
     24 C19        -1.9397   -7.5649    1.7060 C.3       1 <0>         0.0198
     25 O2          1.6205   -5.4287    1.2599 O.3       1 <0>        -0.2993
     26 C20         2.7894   -4.6235    1.0946 C.3       1 <0>         0.0228
     27 H1          4.7133    1.6876   -0.7863 H         1 <0>         0.0483
     28 H2          4.3915    3.0868   -1.8385 H         1 <0>         0.0669
     29 H3          3.1005    2.4408   -0.7972 H         1 <0>         0.0675
     30 H4          3.8014    0.5670   -4.4404 H         1 <0>         0.0802
     31 H5          4.2124    2.2821   -4.2003 H         1 <0>         0.0549
     32 H6          5.3058    1.0124   -3.5998 H         1 <0>         0.0543
     33 H7          2.4668   -0.2875   -4.3165 H         1 <0>         0.1230
     34 H8          0.5740   -1.8205   -3.9749 H         1 <0>         0.1229
     35 H9         -0.4818   -2.0047   -1.7607 H         1 <0>         0.1153
     36 H10         2.2443    0.9056   -0.2163 H         1 <0>         0.1224
     37 H11         0.5911   -0.1967    1.1682 H         1 <0>         0.4156
     38 H12         1.2927   -2.8990    0.8012 H         1 <0>         0.1487
     39 H13        -2.8976   -5.4944    1.3525 H         1 <0>         0.1567
     40 H14        -4.3268   -1.1921    0.5654 H         1 <0>         0.1728
     41 H15        -2.4963   -7.1418    2.5423 H         1 <0>         0.0624
     42 H16        -2.5239   -7.4622    0.7916 H         1 <0>         0.0625
     43 H17        -1.7449   -8.6204    1.8961 H         1 <0>         0.1069
     44 H18         2.7778   -4.1650    0.1058 H         1 <0>         0.0602
     45 H19         2.8044   -3.8441    1.8564 H         1 <0>         0.0576
     46 H20         3.6775   -5.2473    1.1954 H         1 <0>         0.1060
@<TRIPOS>BOND
     1    1    2 1
     2    1   27 1
     3    1   28 1
     4    1   29 1
     5    2    3 1
     6    2    4 1
     7    3   30 1
     8    3   31 1
     9    3   32 1
    10    4    9 ar
    11    4    5 ar
    12    5    6 ar
    13    5   33 1
    14    6    7 ar
    15    6   34 1
    16    7    8 ar
    17    7   35 1
    18    8    9 ar
    19    8   10 1
    20    9   36 1
    21   10   11 1
    22   10   37 1
    23   11   20 ar
    24   11   12 ar
    25   12   17 ar
    26   12   13 ar
    27   13   14 ar
    28   13   38 1
    29   14   15 ar
    30   14   25 1
    31   15   16 ar
    32   15   23 1
    33   16   17 ar
    34   16   39 1
    35   17   18 ar
    36   18   19 ar
    37   19   20 ar
    38   19   40 1
    39   20   21 1
    40   21   22 3
    41   23   24 1
    42   24   41 1
    43   24   42 1
    44   24   43 1
    45   25   26 1
    46   26   44 1
    47   26   45 1
    48   26   46 1
@<TRIPOS>MOLECULE
ZINC03815402
   40    43     0     0     0
SMALL
USER_CHARGES

@<TRIPOS>ATOM
      1 C1         -5.1597   -2.4861    0.8196 C.3       1 <0>         0.0275
      2 O1         -3.8948   -1.8378    0.9674 O.3       1 <0>        -0.3151
      3 C2         -3.7589   -0.6125    0.3957 C.ar      1 <0>         0.1465
      4 C3         -4.8224   -0.0460   -0.2936 C.ar      1 <0>        -0.2258
      5 C4         -4.6860    1.1998   -0.8755 C.ar      1 <0>        -0.0594
      6 C5         -3.4912    1.8858   -0.7733 C.ar      1 <0>        -0.1858
      7 C6         -2.4234    1.3239   -0.0847 C.ar      1 <0>         0.1953
      8 C7         -2.5569    0.0698    0.4956 C.ar      1 <0>        -0.1454
      9 N1         -1.2145    2.0178    0.0188 N.pl3     1 <0>        -0.6454
     10 C8         -0.0155    1.3264   -0.0035 C.ar      1 <0>         0.4790
     11 C9          1.2012    1.9900    0.2201 C.ar      1 <0>        -0.2430
     12 C10         1.5976    3.3610    0.5088 C.2       1 <0>        -0.1343
     13 C11         2.9402    3.3716    0.6204 C.2       1 <0>         0.0727
     14 N2          3.4253    2.1071    0.4235 N.pl3     1 <0>        -0.5620
     15 H1          4.3629    1.8605    0.4529 H         1 <0>         0.4216
     16 C12         2.3936    1.2411    0.1789 C.ar      1 <0>         0.3444
     17 N3          2.3171   -0.0652   -0.0691 N.ar      1 <0>        -0.5629
     18 C13         1.1538   -0.6446   -0.2715 C.ar      1 <0>         0.3568
     19 N4          0.0120    0.0189   -0.2428 N.ar      1 <0>        -0.5802
     20 C14         3.7466    4.6144    0.9182 C.3       1 <0>        -0.0544
     21 C15         2.8695    5.8415    0.6455 C.3       1 <0>        -0.1150
     22 C16         1.5239    5.6763    1.3577 C.3       1 <0>        -0.1198
     23 C17         0.7154    4.5727    0.6645 C.3       1 <0>        -0.0537
     24 H2         -5.1330   -3.4534    1.3214 H         1 <0>         0.1003
     25 H3         -5.9391   -1.8674    1.2643 H         1 <0>         0.0555
     26 H4         -5.3716   -2.6319   -0.2396 H         1 <0>         0.0563
     27 H5         -5.7576   -0.5799   -0.3755 H         1 <0>         0.1281
     28 H6         -5.5149    1.6380   -1.4115 H         1 <0>         0.1287
     29 H7         -3.3873    2.8596   -1.2287 H         1 <0>         0.1250
     30 H8         -1.7269   -0.3715    1.0274 H         1 <0>         0.1415
     31 H9         -1.2157    2.9838    0.1063 H         1 <0>         0.4211
     32 H10         1.1312   -1.7062   -0.4687 H         1 <0>         0.2019
     33 H11         4.0548    4.6091    1.9637 H         1 <0>         0.0853
     34 H12         4.6259    4.6432    0.2747 H         1 <0>         0.0808
     35 H13         2.7031    5.9382   -0.4274 H         1 <0>         0.0701
     36 H14         3.3700    6.7355    1.0175 H         1 <0>         0.0763
     37 H15         0.9712    6.6147    1.3134 H         1 <0>         0.0728
     38 H16         1.6941    5.4031    2.3991 H         1 <0>         0.0680
     39 H17         0.3907    4.9180   -0.3170 H         1 <0>         0.0757
     40 H18        -0.1528    4.3180    1.2722 H         1 <0>         0.0711
@<TRIPOS>BOND
     1    1    2 1
     2    1   24 1
     3    1   25 1
     4    1   26 1
     5    2    3 1
     6    3    8 ar
     7    3    4 ar
     8    4    5 ar
     9    4   27 1
    10    5    6 ar
    11    5   28 1
    12    6    7 ar
    13    6   29 1
    14    7    8 ar
    15    7    9 1
    16    8   30 1
    17    9   10 1
    18    9   31 1
    19   10   19 ar
    20   10   11 ar
    21   11   16 ar
    22   11   12 1
    23   12   23 1
    24   12   13 2
    25   13   14 1
    26   13   20 1
    27   14   15 1
    28   14   16 1
    29   16   17 ar
    30   17   18 ar
    31   18   19 ar
    32   18   32 1
    33   20   21 1
    34   20   33 1
    35   20   34 1
    36   21   22 1
    37   21   35 1
    38   21   36 1
    39   22   23 1
    40   22   37 1
    41   22   38 1
    42   23   39 1
    43   23   40 1
@<TRIPOS>MOLECULE
ZINC03815403
   40    43     0     0     0
SMALL
USER_CHARGES

@<TRIPOS>ATOM
      1 C1          0.0273    1.4526    0.0108 C.ar      1 <0>        -0.1077
      2 C2          1.2195    2.1520   -0.0116 C.ar      1 <0>        -0.1211
      3 C3          2.4212    1.4692   -0.0282 C.ar      1 <0>        -0.0990
      4 C4          2.4309    0.0869   -0.0214 C.ar      1 <0>        -0.1194
      5 C5          1.2388   -0.6126    0.0015 C.ar      1 <0>        -0.0995
      6 C6          0.0370    0.0703    0.0176 C.ar      1 <0>        -0.1214
      7 C7          3.7411   -0.6576   -0.0395 C.3       1 <0>         0.1690
      8 N1          4.1429   -0.9053   -1.4263 N.pl3     1 <0>        -0.6968
      9 C8          5.3193   -1.5773   -1.6950 C.ar      1 <0>         0.5185
     10 C9          5.7214   -1.8244   -3.0183 C.ar      1 <0>        -0.3488
     11 C10         6.9302   -2.5141   -3.2362 C.ar      1 <0>         0.3988
     12 N2          7.0847   -2.6214   -4.5850 N.pl3     1 <0>        -0.4755
     13 H1          7.8537   -3.0649   -5.0453 H         1 <0>         0.4565
     14 N3          5.9996   -2.0143   -5.2261 N.2       1 <0>        -0.2875
     15 C11         5.1701   -1.5302   -4.3375 C.2       1 <0>         0.3746
     16 N4          3.9762   -0.8558   -4.6027 N.pl3     1 <0>        -0.6373
     17 C12         3.6290   -0.5413   -5.9187 C.ar      1 <0>         0.1808
     18 C13         2.2941   -0.3690   -6.2645 C.ar      1 <0>        -0.1551
     19 C14         1.9538   -0.0576   -7.5660 C.ar      1 <0>        -0.0756
     20 C15         2.9396    0.0834   -8.5256 C.ar      1 <0>        -0.1369
     21 C16         4.2702   -0.0869   -8.1852 C.ar      1 <0>        -0.0033
     22 C17         4.6177   -0.3944   -6.8831 C.ar      1 <0>        -0.1380
     23 Cl1         5.5041    0.0912   -9.3933 Cl        1 <0>        -0.0632
     24 N5          7.6431   -2.9037   -2.1793 N.ar      1 <0>        -0.5778
     25 C18         7.2265   -2.6495   -0.9585 C.ar      1 <0>         0.3952
     26 N6          6.1022   -2.0017   -0.7079 N.ar      1 <0>        -0.6042
     27 H2         -0.9117    1.9861    0.0185 H         1 <0>         0.1250
     28 H3          1.2119    3.2320   -0.0169 H         1 <0>         0.1258
     29 H4          3.3526    2.0156   -0.0465 H         1 <0>         0.1248
     30 H5          1.2464   -1.6925    0.0065 H         1 <0>         0.1248
     31 H6         -0.8944   -0.4761    0.0352 H         1 <0>         0.1258
     32 H7          4.5050   -0.0608    0.4590 H         1 <0>         0.0836
     33 H8          3.6259   -1.6084    0.4808 H         1 <0>         0.0836
     34 H9          3.5827   -0.5974   -2.1560 H         1 <0>         0.4021
     35 H10         3.3880   -0.6058   -3.8730 H         1 <0>         0.4161
     36 H11         1.5235   -0.4789   -5.5159 H         1 <0>         0.1314
     37 H12         0.9164    0.0763   -7.8348 H         1 <0>         0.1379
     38 H13         2.6706    0.3273   -9.5427 H         1 <0>         0.1353
     39 H14         5.6563   -0.5236   -6.6167 H         1 <0>         0.1520
     40 H15         7.8299   -2.9802   -0.1261 H         1 <0>         0.2066
@<TRIPOS>BOND
     1    1    6 ar
     2    1    2 ar
     3    1   27 1
     4    2    3 ar
     5    2   28 1
     6    3    4 ar
     7    3   29 1
     8    4    5 ar
     9    4    7 1
    10    5    6 ar
    11    5   30 1
    12    6   31 1
    13    7    8 1
    14    7   32 1
    15    7   33 1
    16    8    9 1
    17    8   34 1
    18    9   26 ar
    19    9   10 ar
    20   10   15 1
    21   10   11 ar
    22   11   12 1
    23   11   24 ar
    24   12   13 1
    25   12   14 1
    26   14   15 2
    27   15   16 1
    28   16   17 1
    29   16   35 1
    30   17   22 ar
    31   17   18 ar
    32   18   19 ar
    33   18   36 1
    34   19   20 ar
    35   19   37 1
    36   20   21 ar
    37   20   38 1
    38   21   22 ar
    39   21   23 1
    40   22   39 1
    41   24   25 ar
    42   25   26 ar
    43   25   40 1
@<TRIPOS>MOLECULE
ZINC03815403
   40    43     0     0     0
SMALL
USER_CHARGES

@<TRIPOS>ATOM
      1 C1          0.0273    1.4526    0.0108 C.ar      1 <0>        -0.1077
      2 C2          1.2195    2.1520   -0.0116 C.ar      1 <0>        -0.1211
      3 C3          2.4212    1.4692   -0.0282 C.ar      1 <0>        -0.0990
      4 C4          2.4309    0.0869   -0.0214 C.ar      1 <0>        -0.1194
      5 C5          1.2388   -0.6126    0.0015 C.ar      1 <0>        -0.0995
      6 C6          0.0370    0.0703    0.0176 C.ar      1 <0>        -0.1214
      7 C7          3.7411   -0.6576   -0.0395 C.3       1 <0>         0.1690
      8 N1          4.1429   -0.9053   -1.4263 N.pl3     1 <0>        -0.6968
      9 C8          5.3193   -1.5773   -1.6950 C.ar      1 <0>         0.5185
     10 C9          5.7214   -1.8244   -3.0183 C.ar      1 <0>        -0.3488
     11 C10         6.9302   -2.5141   -3.2362 C.ar      1 <0>         0.3988
     12 N2          7.0847   -2.6214   -4.5850 N.pl3     1 <0>        -0.4755
     13 H1          7.8537   -3.0649   -5.0453 H         1 <0>         0.4565
     14 N3          5.9996   -2.0143   -5.2261 N.2       1 <0>        -0.2875
     15 C11         5.1701   -1.5302   -4.3375 C.2       1 <0>         0.3746
     16 N4          3.9762   -0.8558   -4.6027 N.pl3     1 <0>        -0.6373
     17 C12         3.6290   -0.5413   -5.9187 C.ar      1 <0>         0.1808
     18 C13         2.2941   -0.3690   -6.2645 C.ar      1 <0>        -0.1551
     19 C14         1.9538   -0.0576   -7.5660 C.ar      1 <0>        -0.0756
     20 C15         2.9396    0.0834   -8.5256 C.ar      1 <0>        -0.1369
     21 C16         4.2702   -0.0869   -8.1852 C.ar      1 <0>        -0.0033
     22 C17         4.6177   -0.3944   -6.8831 C.ar      1 <0>        -0.1380
     23 Cl1         5.5041    0.0912   -9.3933 Cl        1 <0>        -0.0632
     24 N5          7.6431   -2.9037   -2.1793 N.ar      1 <0>        -0.5778
     25 C18         7.2265   -2.6495   -0.9585 C.ar      1 <0>         0.3952
     26 N6          6.1022   -2.0017   -0.7079 N.ar      1 <0>        -0.6042
     27 H2         -0.9117    1.9861    0.0185 H         1 <0>         0.1250
     28 H3          1.2119    3.2320   -0.0169 H         1 <0>         0.1258
     29 H4          3.3526    2.0156   -0.0465 H         1 <0>         0.1248
     30 H5          1.2464   -1.6925    0.0065 H         1 <0>         0.1248
     31 H6         -0.8944   -0.4761    0.0352 H         1 <0>         0.1258
     32 H7          4.5050   -0.0608    0.4590 H         1 <0>         0.0836
     33 H8          3.6259   -1.6084    0.4808 H         1 <0>         0.0836
     34 H9          3.5827   -0.5974   -2.1560 H         1 <0>         0.4021
     35 H10         3.3880   -0.6058   -3.8730 H         1 <0>         0.4161
     36 H11         1.5235   -0.4789   -5.5159 H         1 <0>         0.1314
     37 H12         0.9164    0.0763   -7.8348 H         1 <0>         0.1379
     38 H13         2.6706    0.3273   -9.5427 H         1 <0>         0.1353
     39 H14         5.6563   -0.5236   -6.6167 H         1 <0>         0.1520
     40 H15         7.8299   -2.9802   -0.1261 H         1 <0>         0.2066
@<TRIPOS>BOND
     1    1    6 ar
     2    1    2 ar
     3    1   27 1
     4    2    3 ar
     5    2   28 1
     6    3    4 ar
     7    3   29 1
     8    4    5 ar
     9    4    7 1
    10    5    6 ar
    11    5   30 1
    12    6   31 1
    13    7    8 1
    14    7   32 1
    15    7   33 1
    16    8    9 1
    17    8   34 1
    18    9   26 ar
    19    9   10 ar
    20   10   15 1
    21   10   11 ar
    22   11   12 1
    23   11   24 ar
    24   12   13 1
    25   12   14 1
    26   14   15 2
    27   15   16 1
    28   16   17 1
    29   16   35 1
    30   17   22 ar
    31   17   18 ar
    32   18   19 ar
    33   18   36 1
    34   19   20 ar
    35   19   37 1
    36   20   21 ar
    37   20   38 1
    38   21   22 ar
    39   21   23 1
    40   22   39 1
    41   24   25 ar
    42   25   26 ar
    43   25   40 1
@<TRIPOS>MOLECULE
ZINC03815404
   40    42     0     0     0
SMALL
USER_CHARGES

@<TRIPOS>ATOM
      1 C1         -2.2266    9.2490    1.4889 C.3       1 <0>         0.0221
      2 O1         -0.9871    9.9540    1.5820 O.3       1 <0>        -0.2969
      3 C2          0.1400    9.2668    1.2553 C.ar      1 <0>         0.1315
      4 C3          0.0468    7.9631    0.8609 C.ar      1 <0>        -0.1646
      5 C4          1.2075    7.2517    0.5233 C.ar      1 <0>        -0.0973
      6 C5          2.4716    7.8854    0.5978 C.ar      1 <0>         0.1675
      7 C6          2.5419    9.2244    1.0116 C.ar      1 <0>        -0.1756
      8 C7          1.3867    9.9034    1.3269 C.ar      1 <0>         0.1567
      9 O2          1.4568   11.2012    1.7222 O.3       1 <0>        -0.2953
     10 C8          2.7560   11.7941    1.7750 C.3       1 <0>         0.0190
     11 N1          3.5847    7.2129    0.2699 N.ar      1 <0>        -0.4580
     12 C9          3.5510    5.9643   -0.1203 C.ar      1 <0>         0.1792
     13 C10         2.3424    5.2561   -0.2178 C.ar      1 <0>        -0.0826
     14 C11         1.1403    5.9008    0.1106 C.ar      1 <0>         0.2537
     15 N2         -0.0691    5.2397    0.0281 N.pl3     1 <0>        -0.6976
     16 C12        -0.8370    5.3307   -1.1357 C.ar      1 <0>         0.2083
     17 C13        -0.4503    6.1861   -2.1600 C.ar      1 <0>        -0.1316
     18 C14        -1.2117    6.2739   -3.3085 C.ar      1 <0>        -0.0687
     19 C15        -2.3585    5.5118   -3.4398 C.ar      1 <0>        -0.0982
     20 C16        -2.7491    4.6635   -2.4202 C.ar      1 <0>         0.0024
     21 C17        -1.9890    4.5665   -1.2710 C.ar      1 <0>        -0.1215
     22 N3         -3.9804    3.8544   -2.5625 N.pl3     1 <0>         0.0248
     23 O3         -4.6489    3.9363   -3.5774 O.2       1 <0>        -0.1507
     24 O4         -4.3252    3.1069   -1.6648 O.3       1 <0>        -0.1561
     25 C18         2.3369    3.8901   -0.6475 C.1       1 <0>         0.2503
     26 N4          2.3326    2.8064   -0.9883 N.1       1 <0>        -0.3896
     27 H1         -2.3764    8.9113    0.4634 H         1 <0>         0.0583
     28 H2         -2.2054    8.3872    2.1559 H         1 <0>         0.0592
     29 H3         -3.0435    9.9109    1.7765 H         1 <0>         0.1087
     30 H4         -0.9180    7.4807    0.8094 H         1 <0>         0.1473
     31 H5          3.4975    9.7241    1.0701 H         1 <0>         0.1590
     32 H6          3.2092   11.7649    0.7842 H         1 <0>         0.0634
     33 H7          2.6698   12.8294    2.1047 H         1 <0>         0.1086
     34 H8          3.3799   11.2402    2.4765 H         1 <0>         0.0635
     35 H9          4.4753    5.4665   -0.3738 H         1 <0>         0.1758
     36 H10        -0.3856    4.7121    0.7780 H         1 <0>         0.4231
     37 H11         0.4451    6.7814   -2.0582 H         1 <0>         0.1397
     38 H12        -0.9117    6.9385   -4.1051 H         1 <0>         0.1519
     39 H13        -2.9526    5.5829   -4.3388 H         1 <0>         0.1551
     40 H14        -2.2924    3.9006   -0.4767 H         1 <0>         0.1552
@<TRIPOS>BOND
     1    1    2 1
     2    1   27 1
     3    1   28 1
     4    1   29 1
     5    2    3 1
     6    3    8 ar
     7    3    4 ar
     8    4    5 ar
     9    4   30 1
    10    5   14 ar
    11    5    6 ar
    12    6    7 ar
    13    6   11 ar
    14    7    8 ar
    15    7   31 1
    16    8    9 1
    17    9   10 1
    18   10   32 1
    19   10   33 1
    20   10   34 1
    21   11   12 ar
    22   12   13 ar
    23   12   35 1
    24   13   14 ar
    25   13   25 1
    26   14   15 1
    27   15   16 1
    28   15   36 1
    29   16   21 ar
    30   16   17 ar
    31   17   18 ar
    32   17   37 1
    33   18   19 ar
    34   18   38 1
    35   19   20 ar
    36   19   39 1
    37   20   21 ar
    38   20   22 1
    39   21   40 1
    40   22   23 2
    41   22   24 1
    42   25   26 3
@<TRIPOS>MOLECULE
ZINC03815405
   77    81     0     0     0
SMALL
USER_CHARGES

@<TRIPOS>ATOM
      1 C1        -14.8245    1.7607   -9.8470 C.3       1 <0>        -0.0461
      2 C2        -12.7907    2.2967  -11.0476 C.3       1 <0>        -0.0268
      3 C3        -11.3785    1.8007  -11.3673 C.3       1 <0>        -0.0261
      4 C4        -11.2569    0.7451   -9.1926 C.3       1 <0>        -0.0333
      5 C5        -12.6690    1.2410   -8.8728 C.3       1 <0>        -0.0262
      6 C6         -9.2231    1.2811  -10.3931 C.3       1 <0>        -0.0008
      7 C7         -8.3939    1.4096   -9.1137 C.3       1 <0>        -0.1686
      8 C8         -6.9499    0.9911   -9.3976 C.3       1 <0>         0.1459
      9 N1         -6.1560    1.1141   -8.1726 N.pl3     1 <0>        -0.7061
     10 C9         -4.8127    0.7894   -8.1842 C.ar      1 <0>         0.5853
     11 N2         -4.2678    0.3681   -9.3234 N.ar      1 <0>        -0.5789
     12 C10        -2.9927    0.0437   -9.3956 C.ar      1 <0>         0.2686
     13 C11        -2.2066    0.1520   -8.2356 C.ar      1 <0>        -0.2849
     14 C12        -0.8406   -0.1747   -8.2316 C.ar      1 <0>         0.0444
     15 C13        -0.1435   -0.0380   -7.0419 C.ar      1 <0>        -0.1500
     16 C14        -0.8194    0.4184   -5.8902 C.ar      1 <0>         0.4912
     17 N3         -2.1029    0.7136   -5.9178 N.ar      1 <0>        -0.4757
     18 C15        -2.8197    0.6050   -7.0381 C.ar      1 <0>         0.4293
     19 N4         -4.1231    0.9102   -7.0658 N.ar      1 <0>        -0.5543
     20 N5         -0.1177    0.5539   -4.7009 N.am      1 <0>        -0.6573
     21 C16        -0.7486    0.9886   -3.5921 C.2       1 <0>         0.6932
     22 O1         -1.9324    1.2619   -3.6339 O.2       1 <0>        -0.5118
     23 N6         -0.0670    1.1202   -2.4368 N.am      1 <0>        -0.7355
     24 C17        -0.7527    1.5927   -1.2315 C.3       1 <0>         0.1651
     25 C18        -0.0127    1.0858    0.0080 C.3       1 <0>        -0.1274
     26 C19        -0.7288    1.5792    1.2668 C.3       1 <0>        -0.1158
     27 C20        -0.7496    3.1091    1.2752 C.3       1 <0>        -0.1242
     28 C21        -1.4896    3.6159    0.0357 C.3       1 <0>        -0.1163
     29 C22        -0.7734    3.1225   -1.2231 C.3       1 <0>        -0.1300
     30 C23         1.3006   -0.3680   -6.9795 C.ar      1 <0>        -0.0510
     31 C24         1.7101   -1.6609   -6.6533 C.ar      1 <0>        -0.0125
     32 C25         3.0570   -1.9630   -6.6011 C.ar      1 <0>        -0.1022
     33 C26         3.9989   -0.9844   -6.8620 C.ar      1 <0>        -0.0780
     34 C27         3.5994    0.3009   -7.1809 C.ar      1 <0>        -0.1021
     35 C28         2.2555    0.6146   -7.2411 C.ar      1 <0>        -0.0125
     36 Cl1         1.7560    2.2284   -7.6410 Cl        1 <0>        -0.0438
     37 Cl2         0.5295   -2.8889   -6.3190 Cl        1 <0>        -0.0442
     38 H1        -15.3886    1.7750  -10.7795 H         1 <0>         0.1362
     39 H2        -15.2799    1.0497   -9.1577 H         1 <0>         0.1361
     40 H3        -14.8336    2.7554   -9.4015 H         1 <0>         0.1328
     41 H4        -12.7342    3.2831  -10.5872 H         1 <0>         0.1558
     42 H5        -13.3718    2.3576  -11.9678 H         1 <0>         0.1757
     43 H6        -10.8860    2.5099  -12.0327 H         1 <0>         0.1760
     44 H7        -11.4364    0.8263  -11.8524 H         1 <0>         0.1573
     45 H8        -11.3134   -0.2413   -9.6529 H         1 <0>         0.1581
     46 H9        -10.6757    0.6846   -8.2724 H         1 <0>         0.1751
     47 H10       -12.6112    2.2154   -8.3878 H         1 <0>         0.1560
     48 H11       -13.1617    0.5322   -8.2073 H         1 <0>         0.1754
     49 H12        -8.8029    1.9262  -11.1648 H         1 <0>         0.1482
     50 H13        -9.2053    0.2463  -10.7353 H         1 <0>         0.1461
     51 H14        -8.8141    0.7645   -8.3421 H         1 <0>         0.0952
     52 H15        -8.4118    2.4443   -8.7716 H         1 <0>         0.0997
     53 H16        -6.5297    1.6362  -10.1693 H         1 <0>         0.0797
     54 H17        -6.9321   -0.0437   -9.7398 H         1 <0>         0.0787
     55 H18        -6.5731    1.4235   -7.3533 H         1 <0>         0.4166
     56 H19        -2.5613   -0.2969  -10.3253 H         1 <0>         0.1832
     57 H20        -0.3486   -0.5215   -9.1284 H         1 <0>         0.1556
     58 H21         0.8268    0.3358   -4.6676 H         1 <0>         0.4157
     59 H22         0.8776    0.9021   -2.4035 H         1 <0>         0.3969
     60 H23        -1.7753    1.2154   -1.2238 H         1 <0>         0.0901
     61 H24         0.0021   -0.0041    0.0020 H         1 <0>         0.0698
     62 H25         1.0099    1.4631    0.0003 H         1 <0>         0.0701
     63 H26        -1.7514    1.2020    1.2746 H         1 <0>         0.0652
     64 H27        -0.2017    1.2182    2.1499 H         1 <0>         0.0705
     65 H28         0.2730    3.4864    1.2675 H         1 <0>         0.0644
     66 H29        -1.2598    3.4606    2.1720 H         1 <0>         0.0661
     67 H30        -1.5044    4.7058    0.0417 H         1 <0>         0.0657
     68 H31        -2.5122    3.2386    0.0434 H         1 <0>         0.0636
     69 H32         0.2491    3.4998   -1.2308 H         1 <0>         0.0643
     70 H33        -1.3006    3.4836   -2.1062 H         1 <0>         0.0665
     71 H34         3.3753   -2.9647   -6.3526 H         1 <0>         0.1482
     72 H35         5.0508   -1.2247   -6.8162 H         1 <0>         0.1505
     73 H36         4.3397    1.0608   -7.3829 H         1 <0>         0.1483
     74 N7        -13.4379    1.3338  -10.1319 N.4       1 <0>        -0.4066
     75 H37       -13.4585    0.4099  -10.5793 H         1 <0>         0.4405
     76 N8        -10.6097    1.7081  -10.1085 N.4       1 <0>        -0.4061
     77 H38       -10.5891    2.6321   -9.6612 H         1 <0>         0.4384
@<TRIPOS>BOND
     1    1   38 1
     2    1   39 1
     3    1   40 1
     4    1   74 1
     5    2    3 1
     6    2   41 1
     7    2   42 1
     8    2   74 1
     9    3   43 1
    10    3   44 1
    11    3   76 1
    12    4    5 1
    13    4   45 1
    14    4   46 1
    15    4   76 1
    16    5   47 1
    17    5   48 1
    18    5   74 1
    19    6    7 1
    20    6   49 1
    21    6   50 1
    22    6   76 1
    23    7    8 1
    24    7   51 1
    25    7   52 1
    26    8    9 1
    27    8   53 1
    28    8   54 1
    29    9   10 1
    30    9   55 1
    31   10   19 ar
    32   10   11 ar
    33   11   12 ar
    34   12   13 ar
    35   12   56 1
    36   13   18 ar
    37   13   14 ar
    38   14   15 ar
    39   14   57 1
    40   15   16 ar
    41   15   30 1
    42   16   17 ar
    43   16   20 1
    44   17   18 ar
    45   18   19 ar
    46   20   21 am
    47   20   58 1
    48   21   22 2
    49   21   23 am
    50   23   24 1
    51   23   59 1
    52   24   29 1
    53   24   25 1
    54   24   60 1
    55   25   26 1
    56   25   61 1
    57   25   62 1
    58   26   27 1
    59   26   63 1
    60   26   64 1
    61   27   28 1
    62   27   65 1
    63   27   66 1
    64   28   29 1
    65   28   67 1
    66   28   68 1
    67   29   69 1
    68   29   70 1
    69   30   35 ar
    70   30   31 ar
    71   31   32 ar
    72   31   37 1
    73   32   33 ar
    74   32   71 1
    75   33   34 ar
    76   33   72 1
    77   34   35 ar
    78   34   73 1
    79   35   36 1
    80   74   75 1
    81   76   77 1
@<TRIPOS>MOLECULE
ZINC03815406
   30    32     0     0     0
SMALL
USER_CHARGES

@<TRIPOS>ATOM
      1 C1         -5.1554   -2.8528   -0.2558 C.ar      1 <0>        -0.0913
      2 C2         -3.9346   -2.2166   -0.3696 C.ar      1 <0>        -0.1275
      3 C3         -3.7714   -0.9338    0.1374 C.ar      1 <0>         0.1495
      4 C4         -4.8357   -0.2965    0.7624 C.ar      1 <0>        -0.0829
      5 C5         -6.0557   -0.9364    0.8688 C.ar      1 <0>        -0.0717
      6 C6         -6.2146   -2.2144    0.3620 C.ar      1 <0>        -0.1012
      7 Br1        -7.5074   -0.0680    1.7140 Br        1 <0>        -0.0396
      8 N1         -2.5370   -0.2878    0.0241 N.pl3     1 <0>        -0.6310
      9 C7         -2.4871    1.0822   -0.1299 C.ar      1 <0>         0.4696
     10 C8         -1.2487    1.7697   -0.1305 C.ar      1 <0>        -0.1665
     11 C9         -0.0286    1.1052    0.0355 C.ar      1 <0>        -0.0560
     12 C10         1.1322    1.8213    0.0322 C.ar      1 <0>        -0.0939
     13 C11         1.1186    3.2040   -0.1282 C.ar      1 <0>         0.0063
     14 C12        -0.0537    3.8815   -0.2864 C.ar      1 <0>        -0.0255
     15 C13        -1.2652    3.1770   -0.2879 C.ar      1 <0>         0.1889
     16 N2         -2.4462    3.7948   -0.4397 N.ar      1 <0>        -0.5307
     17 C14        -3.5625    3.1057   -0.4365 C.ar      1 <0>         0.3598
     18 N3         -3.5970    1.7911   -0.2874 N.ar      1 <0>        -0.5674
     19 N4          2.3970    3.9502   -0.1275 N.pl3     1 <0>         0.0192
     20 O1          3.4499    3.3542    0.0128 O.2       1 <0>        -0.1419
     21 O2          2.3960    5.1601   -0.2671 O.3       1 <0>        -0.1445
     22 H1         -5.2824   -3.8504   -0.6496 H         1 <0>         0.1395
     23 H2         -3.1078   -2.7160   -0.8527 H         1 <0>         0.1336
     24 H3         -4.7108    0.6992    1.1616 H         1 <0>         0.1473
     25 H4         -7.1680   -2.7141    0.4496 H         1 <0>         0.1368
     26 H5         -1.7155   -0.8027    0.0537 H         1 <0>         0.4254
     27 H6         -0.0059    0.0327    0.1607 H         1 <0>         0.1497
     28 H7          2.0747    1.3086    0.1554 H         1 <0>         0.1628
     29 H8         -0.0488    4.9544   -0.4102 H         1 <0>         0.1743
     30 H9         -4.4954    3.6351   -0.5616 H         1 <0>         0.2088
@<TRIPOS>BOND
     1    1    6 ar
     2    1    2 ar
     3    1   22 1
     4    2    3 ar
     5    2   23 1
     6    3    4 ar
     7    3    8 1
     8    4    5 ar
     9    4   24 1
    10    5    6 ar
    11    5    7 1
    12    6   25 1
    13    8    9 1
    14    8   26 1
    15    9   18 ar
    16    9   10 ar
    17   10   15 ar
    18   10   11 ar
    19   11   12 ar
    20   11   27 1
    21   12   13 ar
    22   12   28 1
    23   13   14 ar
    24   13   19 1
    25   14   15 ar
    26   14   29 1
    27   15   16 ar
    28   16   17 ar
    29   17   18 ar
    30   17   30 1
    31   19   20 2
    32   19   21 1
@<TRIPOS>MOLECULE
ZINC03815409
   43    46     0     0     0
SMALL
USER_CHARGES

@<TRIPOS>ATOM
      1 C1         -3.2698    6.2858    5.7199 C.3       1 <0>         0.0229
      2 O1         -4.2600    5.3544    6.1605 O.3       1 <0>        -0.3018
      3 C2         -4.6431    4.3958    5.2754 C.ar      1 <0>         0.1027
      4 C3         -4.0805    4.3617    4.0311 C.ar      1 <0>        -0.1420
      5 C4         -4.4741    3.3752    3.1191 C.ar      1 <0>        -0.1914
      6 C5         -5.4520    2.4194    3.4905 C.ar      1 <0>         0.2020
      7 C6         -6.0151    2.4728    4.7713 C.ar      1 <0>        -0.1860
      8 C7         -5.6107    3.4533    5.6501 C.ar      1 <0>         0.1618
      9 O2         -6.1551    3.5072    6.8936 O.3       1 <0>        -0.2986
     10 C8         -7.1359    2.5191    7.2158 C.3       1 <0>         0.0209
     11 N1         -5.8120    1.4845    2.5971 N.ar      1 <0>        -0.5532
     12 C9         -5.2667    1.4596    1.4044 C.ar      1 <0>         0.3465
     13 N2         -4.3542    2.3345    1.0117 N.ar      1 <0>        -0.5937
     14 C10        -3.9231    3.2956    1.8179 C.ar      1 <0>         0.4783
     15 N3         -2.9673    4.1970    1.3974 N.pl3     1 <0>        -0.6871
     16 C11        -2.4100    4.0967    0.0462 C.3       1 <0>         0.1914
     17 H1         -3.1775    3.7704   -0.6556 H         1 <0>         0.1052
     18 C12        -1.8221    5.4546   -0.3929 C.3       1 <0>        -0.1287
     19 C13        -0.3439    5.3289    0.0329 C.3       1 <0>        -0.0853
     20 C14        -0.0535    3.8434    0.0227 C.ar      1 <0>        -0.0903
     21 C15        -1.2410    3.1352    0.0303 C.ar      1 <0>        -0.1138
     22 C16        -1.2178    1.7509    0.0173 C.ar      1 <0>        -0.0811
     23 C17        -0.0126    1.0758    0.0080 C.ar      1 <0>        -0.1268
     24 C18         1.1744    1.7838    0.0004 C.ar      1 <0>        -0.1101
     25 C19         1.1533    3.1650    0.0080 C.ar      1 <0>        -0.1137
     26 H2         -2.3583    5.7495    5.4563 H         1 <0>         0.0560
     27 H3         -3.6400    6.8240    4.8473 H         1 <0>         0.0562
     28 H4         -3.0560    6.9944    6.5201 H         1 <0>         0.1057
     29 H5         -3.3353    5.0920    3.7524 H         1 <0>         0.1371
     30 H6         -6.7612    1.7505    5.0680 H         1 <0>         0.1539
     31 H7         -7.4881    2.6757    8.2354 H         1 <0>         0.1063
     32 H8         -7.9750    2.6013    6.5249 H         1 <0>         0.0615
     33 H9         -6.6928    1.5267    7.1328 H         1 <0>         0.0614
     34 H10        -5.5795    0.6938    0.7101 H         1 <0>         0.1937
     35 H11        -2.6642    4.8973    1.9962 H         1 <0>         0.4081
     36 H12        -1.9050    5.5818   -1.4722 H         1 <0>         0.0928
     37 H13        -2.3109    6.2760    0.1311 H         1 <0>         0.0847
     38 H14        -0.2030    5.7350    1.0345 H         1 <0>         0.0793
     39 H15         0.3000    5.8450   -0.6793 H         1 <0>         0.0815
     40 H16        -2.1450    1.1971    0.0184 H         1 <0>         0.1263
     41 H17         0.0021   -0.0041    0.0020 H         1 <0>         0.1237
     42 H18         2.1175    1.2576   -0.0110 H         1 <0>         0.1241
     43 H19         2.0813    3.7176    0.0021 H         1 <0>         0.1199
@<TRIPOS>BOND
     1    1    2 1
     2    1   26 1
     3    1   27 1
     4    1   28 1
     5    2    3 1
     6    3    8 ar
     7    3    4 ar
     8    4    5 ar
     9    4   29 1
    10    5   14 ar
    11    5    6 ar
    12    6    7 ar
    13    6   11 ar
    14    7    8 ar
    15    7   30 1
    16    8    9 1
    17    9   10 1
    18   10   31 1
    19   10   32 1
    20   10   33 1
    21   11   12 ar
    22   12   13 ar
    23   12   34 1
    24   13   14 ar
    25   14   15 1
    26   15   16 1
    27   15   35 1
    28   16   17 1
    29   16   21 1
    30   16   18 1
    31   18   19 1
    32   18   36 1
    33   18   37 1
    34   19   20 1
    35   19   38 1
    36   19   39 1
    37   20   25 ar
    38   20   21 ar
    39   21   22 ar
    40   22   23 ar
    41   22   40 1
    42   23   24 ar
    43   23   41 1
    44   24   25 ar
    45   24   42 1
    46   25   43 1
@<TRIPOS>MOLECULE
ZINC03815410
   30    32     0     0     0
SMALL
USER_CHARGES

@<TRIPOS>ATOM
      1 C1         -2.1349   -4.2653    0.2881 C.ar      1 <0>        -0.0899
      2 C2         -2.1746   -2.8893    0.4019 C.ar      1 <0>        -0.1155
      3 C3         -1.1339   -2.1214   -0.1045 C.ar      1 <0>         0.1240
      4 C4         -0.0582   -2.7399   -0.7290 C.ar      1 <0>        -0.0768
      5 C5         -0.0221   -4.1171   -0.8354 C.ar      1 <0>        -0.0751
      6 C6         -1.0608   -4.8789   -0.3292 C.ar      1 <0>        -0.0865
      7 Br1         1.4446   -4.9612   -1.6793 Br        1 <0>        -0.0287
      8 N1         -1.1716   -0.7287    0.0088 N.pl3     1 <0>        -0.6088
      9 C7          0.0001   -0.0172    0.1625 C.ar      1 <0>         0.5097
     10 C8         -0.0034    1.3959    0.1622 C.ar      1 <0>        -0.2641
     11 C9         -1.1837    2.1391    0.0022 C.ar      1 <0>         0.0939
     12 C10        -1.0939    3.5012    0.0184 C.ar      1 <0>        -0.2275
     13 C11         0.1547    4.1146    0.1820 C.ar      1 <0>         0.5340
     14 C12         1.2297    2.0734    0.3233 C.ar      1 <0>         0.4352
     15 N2          2.3454    1.3433    0.4691 N.ar      1 <0>        -0.5737
     16 C13         2.2908    0.0318    0.4619 C.ar      1 <0>         0.4310
     17 N3          1.1624   -0.6415    0.3144 N.ar      1 <0>        -0.5699
     18 N4          0.2323    5.4971    0.1918 N.pl3     1 <0>        -0.7968
     19 H1         -2.9442   -4.8626    0.6814 H         1 <0>         0.1451
     20 H2         -3.0140   -2.4109    0.8846 H         1 <0>         0.1372
     21 H3          0.7504   -2.1454   -1.1277 H         1 <0>         0.1470
     22 H4         -1.0323   -5.9550   -0.4168 H         1 <0>         0.1424
     23 H5         -2.0218   -0.2625   -0.0206 H         1 <0>         0.4289
     24 H6         -2.1365    1.6471   -0.1266 H         1 <0>         0.1725
     25 H7         -1.9824    4.1040   -0.0983 H         1 <0>         0.1909
     26 H8          3.2097   -0.5228    0.5823 H         1 <0>         0.2265
     27 H9          1.0911    5.9339    0.3040 H         1 <0>         0.4276
     28 H10        -0.5721    6.0288    0.0864 H         1 <0>         0.4441
     29 N5          1.3260    3.4424    0.3355 N.ar      1 <0>        -0.5490
     30 H11         2.2237    3.9268    0.4528 H         1 <0>         0.4724
@<TRIPOS>BOND
     1    1    6 ar
     2    1    2 ar
     3    1   19 1
     4    2    3 ar
     5    2   20 1
     6    3    4 ar
     7    3    8 1
     8    4    5 ar
     9    4   21 1
    10    5    6 ar
    11    5    7 1
    12    6   22 1
    13    8    9 1
    14    8   23 1
    15    9   17 ar
    16    9   10 ar
    17   10   14 ar
    18   10   11 ar
    19   11   12 ar
    20   11   24 1
    21   12   13 ar
    22   12   25 1
    23   13   18 1
    24   13   29 ar
    25   14   15 ar
    26   14   29 ar
    27   15   16 ar
    28   16   17 ar
    29   16   26 1
    30   18   27 1
    31   18   28 1
    32   29   30 1
@<TRIPOS>MOLECULE
ZINC03815411
   32    34     0     0     0
SMALL
USER_CHARGES

@<TRIPOS>ATOM
      1 C1         -1.0141    3.1601    1.4505 C.3       1 <0>         0.0264
      2 O1         -1.1406    1.9024    0.7840 O.3       1 <0>        -0.3289
      3 C2         -0.0298    1.4119    0.1776 C.ar      1 <0>         0.1778
      4 C3          1.1551    2.1197    0.2133 C.ar      1 <0>        -0.2318
      5 C4          2.2946    1.6262   -0.4101 C.ar      1 <0>        -0.0329
      6 C5          2.2756    0.4335   -1.0724 C.ar      1 <0>        -0.1467
      7 C6          1.0925   -0.3130   -1.1304 C.ar      1 <0>         0.2218
      8 C7         -0.0743    0.1819   -0.4979 C.ar      1 <0>        -0.2142
      9 C8         -1.2552   -0.5921   -0.5725 C.ar      1 <0>         0.4800
     10 N1         -1.2100   -1.7434   -1.2312 N.ar      1 <0>        -0.5921
     11 C9         -0.0965   -2.1663   -1.8077 C.ar      1 <0>         0.3566
     12 N2          1.0275   -1.4906   -1.7709 N.ar      1 <0>        -0.5496
     13 N3         -2.4230   -0.1622    0.0234 N.pl3     1 <0>        -0.6270
     14 C10        -3.5838   -0.9348   -0.0757 C.ar      1 <0>         0.1527
     15 C11        -4.8252   -0.3175   -0.1657 C.ar      1 <0>        -0.1307
     16 C12        -5.9702   -1.0831   -0.2634 C.ar      1 <0>        -0.0939
     17 C13        -5.8826   -2.4633   -0.2722 C.ar      1 <0>        -0.1064
     18 C14        -4.6481   -3.0816   -0.1832 C.ar      1 <0>        -0.0726
     19 C15        -3.4980   -2.3207   -0.0900 C.ar      1 <0>        -0.0844
     20 Br1        -4.5337   -4.9691   -0.1969 Br        1 <0>        -0.0445
     21 H1         -0.2624    3.0811    2.2359 H         1 <0>         0.0652
     22 H2         -0.7112    3.9227    0.7330 H         1 <0>         0.0652
     23 H3         -1.9722    3.4358    1.8910 H         1 <0>         0.1076
     24 H4          1.1966    3.0667    0.7308 H         1 <0>         0.1372
     25 H5          3.2110    2.1964   -0.3697 H         1 <0>         0.1376
     26 H6          3.1712    0.0661   -1.5513 H         1 <0>         0.1434
     27 H7         -0.1136   -3.1104   -2.3319 H         1 <0>         0.1996
     28 H8         -2.4385    0.6761    0.5110 H         1 <0>         0.4296
     29 H9         -4.8947    0.7602   -0.1590 H         1 <0>         0.1307
     30 H10        -6.9353   -0.6035   -0.3334 H         1 <0>         0.1369
     31 H11        -6.7797   -3.0597   -0.3491 H         1 <0>         0.1344
     32 H12        -2.5341   -2.8035   -0.0247 H         1 <0>         0.1529
@<TRIPOS>BOND
     1    1    2 1
     2    1   21 1
     3    1   22 1
     4    1   23 1
     5    2    3 1
     6    3    8 ar
     7    3    4 ar
     8    4    5 ar
     9    4   24 1
    10    5    6 ar
    11    5   25 1
    12    6    7 ar
    13    6   26 1
    14    7   12 ar
    15    7    8 ar
    16    8    9 ar
    17    9   10 ar
    18    9   13 1
    19   10   11 ar
    20   11   12 ar
    21   11   27 1
    22   13   14 1
    23   13   28 1
    24   14   19 ar
    25   14   15 ar
    26   15   16 ar
    27   15   29 1
    28   16   17 ar
    29   16   30 1
    30   17   18 ar
    31   17   31 1
    32   18   19 ar
    33   18   20 1
    34   19   32 1
@<TRIPOS>MOLECULE
ZINC03815412
   74    78     0     0     0
SMALL
USER_CHARGES

@<TRIPOS>ATOM
      1 C1         -7.8609    7.7677   -0.8644 C.3       1 <0>        -0.0461
      2 C2         -5.7851    7.6946    0.3808 C.3       1 <0>        -0.0269
      3 C3         -4.3103    7.2933    0.3001 C.3       1 <0>        -0.0260
      4 C4         -4.8851    5.4832   -1.2006 C.3       1 <0>        -0.0333
      5 C5         -6.3598    5.8845   -1.1199 C.3       1 <0>        -0.0262
      6 C6         -2.8093    5.4101    0.0446 C.3       1 <0>        -0.0009
      7 C7         -2.7524    3.8812    0.0360 C.3       1 <0>        -0.1686
      8 C8         -1.2920    3.4252    0.0267 C.3       1 <0>         0.1459
      9 N1         -1.2375    1.9612    0.0185 N.pl3     1 <0>        -0.7061
     10 C9         -0.0158    1.3152    0.0093 C.ar      1 <0>         0.5855
     11 N2          1.0945    2.0497    0.0026 N.ar      1 <0>        -0.5789
     12 C10         2.2875    1.4904   -0.0119 C.ar      1 <0>         0.2688
     13 C11         2.3700    0.0874   -0.0202 C.ar      1 <0>        -0.2848
     14 C12         3.6040   -0.5833   -0.0361 C.ar      1 <0>         0.0447
     15 C13         3.5901   -1.9690   -0.0439 C.ar      1 <0>        -0.1498
     16 C14         2.3544   -2.6505   -0.0357 C.ar      1 <0>         0.4913
     17 N3          1.2097   -1.9987   -0.0207 N.ar      1 <0>        -0.4761
     18 C15         1.1664   -0.6651   -0.0127 C.ar      1 <0>         0.4295
     19 N4          0.0021   -0.0041    0.0020 N.ar      1 <0>        -0.5544
     20 N5          2.3449   -4.0378   -0.0430 N.am      1 <0>        -0.6566
     21 C16         1.1731   -4.7038   -0.0353 C.2       1 <0>         0.6929
     22 O1          0.1246   -4.0888   -0.0219 O.2       1 <0>        -0.5126
     23 N6          1.1639   -6.0515   -0.0425 N.am      1 <0>        -0.7344
     24 C17        -0.1097   -6.7753   -0.0341 C.3       1 <0>         0.1831
     25 C18         0.1555   -8.2588   -0.0446 C.ar      1 <0>        -0.1176
     26 C19         0.2600   -8.9337   -1.2465 C.ar      1 <0>        -0.0990
     27 C20         0.5081  -10.2936   -1.2561 C.ar      1 <0>        -0.1208
     28 C21         0.6417  -10.9803   -0.0639 C.ar      1 <0>        -0.1065
     29 C22         0.5315  -10.3064    1.1380 C.ar      1 <0>        -0.1207
     30 C23         0.2886   -8.9456    1.1476 C.ar      1 <0>        -0.0989
     31 C24         4.8629   -2.7291   -0.0612 C.ar      1 <0>        -0.0513
     32 C25         5.4489   -3.0863   -1.2756 C.ar      1 <0>        -0.0124
     33 C26         6.6375   -3.7900   -1.2849 C.ar      1 <0>        -0.1021
     34 C27         7.2411   -4.1495   -0.0935 C.ar      1 <0>        -0.0779
     35 C28         6.6621   -3.8033    1.1140 C.ar      1 <0>        -0.1020
     36 C29         5.4764   -3.0951    1.1369 C.ar      1 <0>        -0.0124
     37 Cl1         4.7510   -2.6620    2.6534 Cl        1 <0>        -0.0437
     38 Cl2         4.6890   -2.6422   -2.7720 Cl        1 <0>        -0.0442
     39 H1         -7.9027    8.8506   -0.7473 H         1 <0>         0.1362
     40 H2         -8.3357    7.4853   -1.8040 H         1 <0>         0.1361
     41 H3         -8.3847    7.2921   -0.0353 H         1 <0>         0.1327
     42 H4         -6.2588    7.1735    1.2128 H         1 <0>         0.1558
     43 H5         -5.8611    8.7709    0.5352 H         1 <0>         0.1757
     44 H6         -3.8153    7.5365    1.2402 H         1 <0>         0.1760
     45 H7         -3.8302    7.8349   -0.5149 H         1 <0>         0.1573
     46 H8         -4.4114    6.0043   -2.0327 H         1 <0>         0.1582
     47 H9         -4.8090    4.4068   -1.3546 H         1 <0>         0.1751
     48 H10        -6.8400    5.3429   -0.3050 H         1 <0>         0.1560
     49 H11        -6.8552    5.6413   -2.0599 H         1 <0>         0.1754
     50 H12        -2.3051    5.7875    0.9343 H         1 <0>         0.1482
     51 H13        -2.3134    5.7971   -0.8456 H         1 <0>         0.1461
     52 H14        -3.2565    3.5038   -0.8537 H         1 <0>         0.0952
     53 H15        -3.2482    3.4942    0.9262 H         1 <0>         0.0997
     54 H16        -0.7878    3.8025    0.9164 H         1 <0>         0.0797
     55 H17        -0.7961    3.8122   -0.8635 H         1 <0>         0.0788
     56 H18        -2.0589    1.4453    0.0195 H         1 <0>         0.4166
     57 H19         3.1815    2.0963   -0.0168 H         1 <0>         0.1833
     58 H20         4.5350   -0.0360   -0.0418 H         1 <0>         0.1558
     59 H21         3.1815   -4.5285   -0.0537 H         1 <0>         0.4162
     60 H22         2.0006   -6.5422   -0.0531 H         1 <0>         0.3993
     61 H23        -0.6709   -6.5129    0.8627 H         1 <0>         0.0783
     62 H24        -0.6880   -6.5034   -0.9171 H         1 <0>         0.0782
     63 H25         0.1515   -8.3979   -2.1779 H         1 <0>         0.1237
     64 H26         0.5938  -10.8202   -2.1952 H         1 <0>         0.1263
     65 H27         0.8318  -12.0434   -0.0714 H         1 <0>         0.1262
     66 H28         0.6355  -10.8430    2.0695 H         1 <0>         0.1263
     67 H29         0.2025   -8.4190    2.0867 H         1 <0>         0.1238
     68 H30         7.0945   -4.0632   -2.2245 H         1 <0>         0.1482
     69 H31         8.1683   -4.7032   -0.1061 H         1 <0>         0.1505
     70 H32         7.1384   -4.0870    2.0409 H         1 <0>         0.1483
     71 N7         -6.4450    7.3429   -0.8940 N.4       1 <0>        -0.4066
     72 H33        -5.9671    7.8282   -1.6623 H         1 <0>         0.4406
     73 N8         -4.2251    5.8352    0.0744 N.4       1 <0>        -0.4062
     74 H34        -4.7030    5.3499    0.8427 H         1 <0>         0.4383
@<TRIPOS>BOND
     1    1   39 1
     2    1   40 1
     3    1   41 1
     4    1   71 1
     5    2    3 1
     6    2   42 1
     7    2   43 1
     8    2   71 1
     9    3   44 1
    10    3   45 1
    11    3   73 1
    12    4    5 1
    13    4   46 1
    14    4   47 1
    15    4   73 1
    16    5   48 1
    17    5   49 1
    18    5   71 1
    19    6    7 1
    20    6   50 1
    21    6   51 1
    22    6   73 1
    23    7    8 1
    24    7   52 1
    25    7   53 1
    26    8    9 1
    27    8   54 1
    28    8   55 1
    29    9   10 1
    30    9   56 1
    31   10   19 ar
    32   10   11 ar
    33   11   12 ar
    34   12   13 ar
    35   12   57 1
    36   13   18 ar
    37   13   14 ar
    38   14   15 ar
    39   14   58 1
    40   15   16 ar
    41   15   31 1
    42   16   17 ar
    43   16   20 1
    44   17   18 ar
    45   18   19 ar
    46   20   21 am
    47   20   59 1
    48   21   22 2
    49   21   23 am
    50   23   24 1
    51   23   60 1
    52   24   25 1
    53   24   61 1
    54   24   62 1
    55   25   30 ar
    56   25   26 ar
    57   26   27 ar
    58   26   63 1
    59   27   28 ar
    60   27   64 1
    61   28   29 ar
    62   28   65 1
    63   29   30 ar
    64   29   66 1
    65   30   67 1
    66   31   36 ar
    67   31   32 ar
    68   32   33 ar
    69   32   38 1
    70   33   34 ar
    71   33   68 1
    72   34   35 ar
    73   34   69 1
    74   35   36 ar
    75   35   70 1
    76   36   37 1
    77   71   72 1
    78   73   74 1
@<TRIPOS>MOLECULE
ZINC03815413
   44    46     0     0     0
SMALL
USER_CHARGES

@<TRIPOS>ATOM
      1 C1          1.0732    4.8977    6.0123 C.3       1 <0>        -0.1528
      2 C2          1.0128    4.4235    4.5589 C.3       1 <0>         0.0508
      3 O1         -0.1576    3.6265    4.3661 O.3       1 <0>        -0.2968
      4 C3         -0.3631    3.1228    3.1198 C.ar      1 <0>         0.1324
      5 C4          0.5334    3.3908    2.1257 C.ar      1 <0>        -0.1626
      6 C5          0.3242    2.8726    0.8393 C.ar      1 <0>        -0.0976
      7 C6         -0.8148    2.0737    0.5758 C.ar      1 <0>         0.1671
      8 C7         -1.7217    1.8124    1.6141 C.ar      1 <0>        -0.1776
      9 C8         -1.4934    2.3332    2.8676 C.ar      1 <0>         0.1592
     10 O2         -2.3729    2.0789    3.8713 O.3       1 <0>        -0.2947
     11 C9         -3.5050    1.2674    3.5518 C.3       1 <0>         0.0477
     12 C10        -4.3749    1.0921    4.7981 C.3       1 <0>        -0.1531
     13 N1         -1.0231    1.5790   -0.6534 N.ar      1 <0>        -0.4601
     14 C11        -0.1930    1.8010   -1.6402 C.ar      1 <0>         0.1784
     15 C12         0.9615    2.5819   -1.4693 C.ar      1 <0>        -0.0858
     16 C13         1.2365    3.1342   -0.2092 C.ar      1 <0>         0.2588
     17 N2          2.3609    3.9073    0.0004 N.pl3     1 <0>        -0.7001
     18 C14         3.5582    3.3058    0.4009 C.ar      1 <0>         0.2071
     19 C15         3.5866    1.9521    0.7117 C.ar      1 <0>        -0.1481
     20 C16         4.7709    1.3587    1.1024 C.ar      1 <0>        -0.0929
     21 C17         5.9278    2.1139    1.1948 C.ar      1 <0>         0.0659
     22 C18         5.9013    3.4655    0.8904 C.ar      1 <0>        -0.0287
     23 C19         4.7191    4.0622    0.4939 C.ar      1 <0>        -0.1454
     24 Cl1         7.3534    4.4096    1.0065 Cl        1 <0>        -0.0410
     25 F1          7.0841    1.5321    1.5817 F         1 <0>        -0.1275
     26 C20         1.8485    2.8124   -2.5697 C.1       1 <0>         0.2526
     27 N3          2.5522    2.9953   -3.4425 N.1       1 <0>        -0.3922
     28 H1          0.1877    5.4920    6.2377 H         1 <0>         0.0685
     29 H2          1.1090    4.0332    6.6753 H         1 <0>         0.0688
     30 H3          1.9659    5.5056    6.1593 H         1 <0>         0.0813
     31 H4          1.8983    3.8291    4.3335 H         1 <0>         0.0655
     32 H5          0.9770    5.2879    3.8959 H         1 <0>         0.0645
     33 H6          1.4015    4.0002    2.3293 H         1 <0>         0.1477
     34 H7         -2.5954    1.2047    1.4305 H         1 <0>         0.1571
     35 H8         -4.0877    1.7496    2.7669 H         1 <0>         0.0691
     36 H9         -3.1661    0.2913    3.2049 H         1 <0>         0.0693
     37 H10        -4.7138    2.0682    5.1449 H         1 <0>         0.0682
     38 H11        -5.2384    0.4731    4.5544 H         1 <0>         0.0822
     39 H12        -3.7921    0.6099    5.5830 H         1 <0>         0.0683
     40 H13        -0.4032    1.3769   -2.6110 H         1 <0>         0.1744
     41 H14         2.3205    4.8676   -0.1300 H         1 <0>         0.4208
     42 H15         2.6839    1.3632    0.6440 H         1 <0>         0.1366
     43 H16         4.7937    0.3055    1.3405 H         1 <0>         0.1490
     44 H17         4.6983    5.1156    0.2570 H         1 <0>         0.1458
@<TRIPOS>BOND
     1    1    2 1
     2    1   28 1
     3    1   29 1
     4    1   30 1
     5    2    3 1
     6    2   31 1
     7    2   32 1
     8    3    4 1
     9    4    9 ar
    10    4    5 ar
    11    5    6 ar
    12    5   33 1
    13    6   16 ar
    14    6    7 ar
    15    7    8 ar
    16    7   13 ar
    17    8    9 ar
    18    8   34 1
    19    9   10 1
    20   10   11 1
    21   11   12 1
    22   11   35 1
    23   11   36 1
    24   12   37 1
    25   12   38 1
    26   12   39 1
    27   13   14 ar
    28   14   15 ar
    29   14   40 1
    30   15   16 ar
    31   15   26 1
    32   16   17 1
    33   17   18 1
    34   17   41 1
    35   18   23 ar
    36   18   19 ar
    37   19   20 ar
    38   19   42 1
    39   20   21 ar
    40   20   43 1
    41   21   22 ar
    42   21   25 1
    43   22   23 ar
    44   22   24 1
    45   23   44 1
    46   26   27 3
@<TRIPOS>MOLECULE
ZINC04617767
   31    34     0     0     0
SMALL
USER_CHARGES

@<TRIPOS>ATOM
      1 C1         -0.9704    1.7634   -0.7486 C.ar      1 <0>        -0.0930
      2 C2         -0.9914    3.1444   -0.7320 C.ar      1 <0>        -0.0941
      3 C3         -0.0490    3.8433    0.0114 C.ar      1 <0>         0.1575
      4 C4          0.9123    3.1505    0.7364 C.ar      1 <0>        -0.1194
      5 C5          0.9245    1.7689    0.7202 C.ar      1 <0>        -0.0714
      6 C6         -0.0127    1.0761   -0.0263 C.ar      1 <0>        -0.1043
      7 Br1         2.2272    0.8240    1.7132 Br        1 <0>        -0.0447
      8 N1         -0.0682    5.2408    0.0304 N.pl3     1 <0>        -0.6355
      9 C7         -1.2681    5.9153   -0.0586 C.ar      1 <0>         0.4794
     10 C8         -1.3024    7.3298   -0.1590 C.ar      1 <0>        -0.1868
     11 C9         -0.1351    8.0921   -0.1718 C.ar      1 <0>        -0.0131
     12 C10        -0.2226    9.4742   -0.2722 C.ar      1 <0>         0.0385
     13 C11        -1.4865   10.1013   -0.3606 C.ar      1 <0>         0.1046
     14 C12        -2.6459    9.3540   -0.3481 C.ar      1 <0>        -0.1122
     15 C13        -2.5700    7.9628   -0.2479 C.ar      1 <0>         0.1929
     16 N2         -3.6746    7.1971   -0.2332 N.ar      1 <0>        -0.5464
     17 C14        -3.5792    5.8932   -0.1384 C.ar      1 <0>         0.3498
     18 N3         -2.4197    5.2585   -0.0583 N.ar      1 <0>        -0.5894
     19 N4         -1.2299   11.4571   -0.4475 N.pl3     1 <0>        -0.6202
     20 H1         -1.9111   12.1853   -0.5227 H         1 <0>         0.4362
     21 C15         0.1222   11.6176   -0.4118 C.2       1 <0>         0.2943
     22 N5          0.7110   10.4633   -0.3096 N.2       1 <0>        -0.4988
     23 H2         -1.7033    1.2197   -1.3264 H         1 <0>         0.1372
     24 H3         -1.7398    3.6803   -1.2970 H         1 <0>         0.1452
     25 H4          1.6464    3.6910    1.3155 H         1 <0>         0.1351
     26 H5          0.0015   -0.0037   -0.0410 H         1 <0>         0.1347
     27 H6          0.7623    5.7362    0.1062 H         1 <0>         0.4233
     28 H7          0.8296    7.6114   -0.1046 H         1 <0>         0.1361
     29 H8         -3.6071    9.8418   -0.4158 H         1 <0>         0.1428
     30 H9         -4.4878    5.3094   -0.1295 H         1 <0>         0.1982
     31 H10         0.6322   12.5683   -0.4607 H         1 <0>         0.2232
@<TRIPOS>BOND
     1    1    6 ar
     2    1    2 ar
     3    1   23 1
     4    2    3 ar
     5    2   24 1
     6    3    4 ar
     7    3    8 1
     8    4    5 ar
     9    4   25 1
    10    5    6 ar
    11    5    7 1
    12    6   26 1
    13    8    9 1
    14    8   27 1
    15    9   18 ar
    16    9   10 ar
    17   10   15 ar
    18   10   11 ar
    19   11   12 ar
    20   11   28 1
    21   12   22 1
    22   12   13 ar
    23   13   14 ar
    24   13   19 1
    25   14   15 ar
    26   14   29 1
    27   15   16 ar
    28   16   17 ar
    29   17   18 ar
    30   17   30 1
    31   19   20 1
    32   19   21 1
    33   21   22 2
    34   21   31 1
@<TRIPOS>MOLECULE
ZINC04617768
   41    43     0     0     0
SMALL
USER_CHARGES

@<TRIPOS>ATOM
      1 C1          3.2477    7.8488    0.3032 C.ar      1 <0>        -0.0898
      2 C2          3.3146    6.4726    0.4008 C.ar      1 <0>        -0.1183
      3 C3          2.2783    5.6913   -0.0942 C.ar      1 <0>         0.1281
      4 C4          1.1797    6.2968   -0.6910 C.ar      1 <0>        -0.0785
      5 C5          1.1164    7.6741   -0.7808 C.ar      1 <0>        -0.0737
      6 C6          2.1509    8.4493   -0.2864 C.ar      1 <0>        -0.0882
      7 Br1        -0.3817    8.5003   -1.5864 Br        1 <0>        -0.0285
      8 N1          2.3435    4.2984    0.0028 N.pl3     1 <0>        -0.6092
      9 C7          1.1874    3.5634    0.1663 C.ar      1 <0>         0.4686
     10 C8          1.2075    2.1039    0.1512 C.ar      1 <0>        -0.0639
     11 C9          2.3742    1.3571   -0.0258 C.ar      1 <0>        -0.1409
     12 C10         2.2768   -0.0238   -0.0226 C.ar      1 <0>         0.4014
     13 C11        -0.0184    0.0184    0.3137 C.ar      1 <0>         0.2258
     14 C12        -0.0225    1.4193    0.3255 C.ar      1 <0>         0.1195
     15 N2         -1.1372    2.1418    0.4999 N.ar      1 <0>        -0.5230
     16 C13        -1.0977    3.4512    0.4999 C.ar      1 <0>         0.3827
     17 N3          0.0120    4.1556    0.3433 N.ar      1 <0>        -0.5465
     18 N4          3.4275   -0.7887   -0.1973 N.pl3     1 <0>        -0.7032
     19 C14         4.7235   -0.1308   -0.3815 C.3       1 <0>         0.0785
     20 C15         5.8141   -1.1906   -0.5499 C.3       1 <0>         0.0947
     21 H1          5.7905   -1.8743    0.2986 H         1 <0>         0.1203
     22 C16         7.1820   -0.5085   -0.6174 C.3       1 <0>         0.0477
     23 O1          8.2082   -1.5020   -0.6575 O.3       1 <0>        -0.5602
     24 O2          5.5861   -1.9211   -1.7568 O.3       1 <0>        -0.5453
     25 H2          4.0535    8.4565    0.6877 H         1 <0>         0.1443
     26 H3          4.1717    6.0045    0.8619 H         1 <0>         0.1355
     27 H4          0.3744    5.6919   -1.0808 H         1 <0>         0.1477
     28 H5          2.1013    9.5255   -0.3617 H         1 <0>         0.1420
     29 H6          3.2016    3.8486   -0.0449 H         1 <0>         0.4262
     30 H7          3.3282    1.8445   -0.1620 H         1 <0>         0.1779
     31 H8         -0.9426   -0.5249    0.4444 H         1 <0>         0.2185
     32 H9         -2.0246    3.9876    0.6397 H         1 <0>         0.2196
     33 H10         3.3709   -1.7570   -0.1971 H         1 <0>         0.4242
     34 H11         4.6882    0.4988   -1.2706 H         1 <0>         0.0918
     35 H12         4.9460    0.4841    0.4906 H         1 <0>         0.0977
     36 H13         7.2371    0.1073   -1.5151 H         1 <0>         0.0569
     37 H14         7.3185    0.1196    0.2629 H         1 <0>         0.0615
     38 H15         9.1041   -1.1406   -0.7010 H         1 <0>         0.3924
     39 H16         5.5935   -1.3747   -2.5546 H         1 <0>         0.3817
     40 N5          1.1063   -0.7218    0.1429 N.ar      1 <0>        -0.4948
     41 H17         1.0830   -1.7482    0.1377 H         1 <0>         0.4790
@<TRIPOS>BOND
     1    1    6 ar
     2    1    2 ar
     3    1   25 1
     4    2    3 ar
     5    2   26 1
     6    3    4 ar
     7    3    8 1
     8    4    5 ar
     9    4   27 1
    10    5    6 ar
    11    5    7 1
    12    6   28 1
    13    8    9 1
    14    8   29 1
    15    9   17 ar
    16    9   10 ar
    17   10   14 ar
    18   10   11 ar
    19   11   12 ar
    20   11   30 1
    21   12   18 1
    22   12   40 ar
    23   13   14 ar
    24   13   31 1
    25   13   40 ar
    26   14   15 ar
    27   15   16 ar
    28   16   17 ar
    29   16   32 1
    30   18   19 1
    31   18   33 1
    32   19   20 1
    33   19   34 1
    34   19   35 1
    35   20   21 1
    36   20   22 1
    37   20   24 1
    38   22   23 1
    39   22   36 1
    40   22   37 1
    41   23   38 1
    42   24   39 1
    43   40   41 1
@<TRIPOS>MOLECULE
ZINC04617771
   44    46     0     0     0
SMALL
USER_CHARGES

@<TRIPOS>ATOM
      1 C1         -3.2469    1.7335   -0.4585 C.3       1 <0>         0.0610
      2 N1         -2.1646    0.9758   -1.0914 N.pl3     1 <0>        -0.5874
      3 C2         -0.7756    1.4161   -0.9390 C.3       1 <0>         0.0768
      4 C3         -0.1655    0.7591    0.3008 C.3       1 <0>         0.0850
      5 H1         -0.1927   -0.3247    0.1882 H         1 <0>         0.1092
      6 C4          1.2851    1.2190    0.4600 C.3       1 <0>         0.0437
      7 O1          1.8904    0.5177    1.5480 O.3       1 <0>        -0.5606
      8 O2         -0.9146    1.1368    1.4575 O.3       1 <0>        -0.5417
      9 C5         -2.4560   -0.1632   -1.8381 C.ar      1 <0>         0.4008
     10 C6         -1.4171   -0.9270   -2.3426 C.ar      1 <0>        -0.1426
     11 C7         -1.7327   -2.0644   -3.0882 C.ar      1 <0>        -0.0626
     12 C8         -3.0983   -2.3882   -3.2964 C.ar      1 <0>         0.1191
     13 C9         -4.0776   -1.5527   -2.7450 C.ar      1 <0>         0.2204
     14 N2         -3.3940   -3.4808   -4.0132 N.ar      1 <0>        -0.5232
     15 C10        -2.4466   -4.2355   -4.5120 C.ar      1 <0>         0.3818
     16 N3         -1.1540   -3.9949   -4.3586 N.ar      1 <0>        -0.5469
     17 C11        -0.7236   -2.9445   -3.6695 C.ar      1 <0>         0.4690
     18 N4          0.6239   -2.6945   -3.5101 N.pl3     1 <0>        -0.6094
     19 C12         1.5657   -3.6152   -3.9780 C.ar      1 <0>         0.1290
     20 C13         2.7954   -3.1738   -4.4508 C.ar      1 <0>        -0.1186
     21 C14         3.7241   -4.0857   -4.9121 C.ar      1 <0>        -0.0898
     22 C15         3.4318   -5.4373   -4.9040 C.ar      1 <0>        -0.0885
     23 C16         2.2085   -5.8807   -4.4336 C.ar      1 <0>        -0.0734
     24 C17         1.2765   -4.9734   -3.9661 C.ar      1 <0>        -0.0783
     25 Br1         1.8139   -7.7301   -4.4241 Br        1 <0>        -0.0287
     26 H2         -3.6056    2.4987   -1.1469 H         1 <0>         0.0831
     27 H3         -4.0649    1.0581   -0.2077 H         1 <0>         0.0736
     28 H4         -2.8755    2.2074    0.4501 H         1 <0>         0.1094
     29 H5         -0.7484    2.5000   -0.8264 H         1 <0>         0.1139
     30 H6         -0.2042    1.1280   -1.8213 H         1 <0>         0.1036
     31 H7          1.8351    1.0105   -0.4577 H         1 <0>         0.0586
     32 H8          1.3066    2.2901    0.6611 H         1 <0>         0.0579
     33 H9          2.8130    0.7596    1.7072 H         1 <0>         0.3913
     34 H10        -0.9337    2.0899    1.6199 H         1 <0>         0.3786
     35 H11        -0.3887   -0.6502   -2.1636 H         1 <0>         0.1764
     36 H12        -5.1237   -1.7789   -2.8898 H         1 <0>         0.2175
     37 H13        -2.7373   -5.1053   -5.0825 H         1 <0>         0.2193
     38 H14         0.9177   -1.8798   -3.0733 H         1 <0>         0.4255
     39 H15         3.0246   -2.1185   -4.4579 H         1 <0>         0.1351
     40 H16         4.6802   -3.7429   -5.2793 H         1 <0>         0.1441
     41 H17         4.1600   -6.1484   -5.2654 H         1 <0>         0.1419
     42 H18         0.3232   -5.3200   -3.5954 H         1 <0>         0.1478
     43 N5         -3.7874   -0.4470   -2.0128 N.ar      1 <0>        -0.4966
     44 H19        -4.5241    0.1450   -1.6115 H         1 <0>         0.4749
@<TRIPOS>BOND
     1    1    2 1
     2    1   26 1
     3    1   27 1
     4    1   28 1
     5    2    3 1
     6    2    9 1
     7    3    4 1
     8    3   29 1
     9    3   30 1
    10    4    5 1
    11    4    6 1
    12    4    8 1
    13    6    7 1
    14    6   31 1
    15    6   32 1
    16    7   33 1
    17    8   34 1
    18    9   10 ar
    19    9   43 ar
    20   10   11 ar
    21   10   35 1
    22   11   17 ar
    23   11   12 ar
    24   12   13 ar
    25   12   14 ar
    26   13   36 1
    27   13   43 ar
    28   14   15 ar
    29   15   16 ar
    30   15   37 1
    31   16   17 ar
    32   17   18 1
    33   18   19 1
    34   18   38 1
    35   19   24 ar
    36   19   20 ar
    37   20   21 ar
    38   20   39 1
    39   21   22 ar
    40   21   40 1
    41   22   23 ar
    42   22   41 1
    43   23   24 ar
    44   23   25 1
    45   24   42 1
    46   43   44 1
@<TRIPOS>MOLECULE
ZINC04617774
   41    43     0     0     0
SMALL
USER_CHARGES

@<TRIPOS>ATOM
      1 C1          2.2861   -4.3306   -0.4267 C.ar      1 <0>        -0.0916
      2 C2          2.3494   -2.9542   -0.5245 C.ar      1 <0>        -0.0825
      3 C3          3.4040   -2.2653    0.0607 C.ar      1 <0>         0.1209
      4 C4          4.3952   -2.9637    0.7383 C.ar      1 <0>        -0.1020
      5 C5          4.3235   -4.3401    0.8371 C.ar      1 <0>        -0.0755
      6 C6          3.2711   -5.0230    0.2527 C.ar      1 <0>        -0.0826
      7 Br1         5.6685   -5.2920    1.7649 Br        1 <0>        -0.0265
      8 N1          3.4708   -0.8724   -0.0371 N.pl3     1 <0>        -0.6081
      9 C7          2.3135   -0.1237   -0.0165 C.ar      1 <0>         0.5208
     10 C8          2.3467    1.2731   -0.2347 C.ar      1 <0>        -0.2638
     11 C9          3.5313    1.9715   -0.4807 C.ar      1 <0>         0.2687
     12 C10         2.3690    3.9720   -0.6534 C.ar      1 <0>         0.4375
     13 C11         1.1479    3.3674   -0.4176 C.ar      1 <0>        -0.1965
     14 C12         1.1181    1.9851   -0.2010 C.ar      1 <0>         0.3061
     15 N2         -0.0143    1.3108    0.0347 N.ar      1 <0>        -0.5570
     16 C13         0.0164    0.0124    0.2308 C.ar      1 <0>         0.4281
     17 N3          1.1351   -0.6934    0.2085 N.ar      1 <0>        -0.5810
     18 N4          2.4162    5.3430   -0.8707 N.pl3     1 <0>        -0.6983
     19 C14         1.1814    6.1310   -0.8486 C.3       1 <0>         0.0779
     20 C15         1.5101    7.6015   -1.1141 C.3       1 <0>         0.0947
     21 H1          1.9846    7.6972   -2.0907 H         1 <0>         0.1196
     22 C16         0.2205    8.4246   -1.0909 C.3       1 <0>         0.0472
     23 O1          0.5113    9.7760   -1.4532 O.3       1 <0>        -0.5613
     24 O2          2.3993    8.0809   -0.1034 O.3       1 <0>        -0.5475
     25 H2          1.4664   -4.8665   -0.8820 H         1 <0>         0.1449
     26 H3          1.5793   -2.4141   -1.0552 H         1 <0>         0.1420
     27 H4          5.2188   -2.4314    1.1906 H         1 <0>         0.1391
     28 H5          3.2194   -6.0992    0.3274 H         1 <0>         0.1431
     29 H6          4.3315   -0.4327   -0.1195 H         1 <0>         0.4247
     30 H7          4.4731    1.4437   -0.5092 H         1 <0>         0.1975
     31 H8          0.2379    3.9488   -0.4006 H         1 <0>         0.1896
     32 H9         -0.9142   -0.5025    0.4185 H         1 <0>         0.2217
     33 H10         3.2667    5.7787   -1.0372 H         1 <0>         0.4231
     34 H11         0.5031    5.7654   -1.6195 H         1 <0>         0.1020
     35 H12         0.7068    6.0354    0.1280 H         1 <0>         0.0952
     36 H13        -0.4920    8.0036   -1.8002 H         1 <0>         0.0629
     37 H14        -0.2075    8.4012   -0.0888 H         1 <0>         0.0575
     38 H15        -0.2619   10.3566   -1.4596 H         1 <0>         0.3919
     39 H16         2.0417    8.0259    0.7934 H         1 <0>         0.3817
     40 N5          3.5735    3.3118   -0.6923 N.ar      1 <0>        -0.5388
     41 H17         4.4562    3.8047   -0.8714 H         1 <0>         0.4745
@<TRIPOS>BOND
     1    1    6 ar
     2    1    2 ar
     3    1   25 1
     4    2    3 ar
     5    2   26 1
     6    3    4 ar
     7    3    8 1
     8    4    5 ar
     9    4   27 1
    10    5    6 ar
    11    5    7 1
    12    6   28 1
    13    8    9 1
    14    8   29 1
    15    9   17 ar
    16    9   10 ar
    17   10   14 ar
    18   10   11 ar
    19   11   30 1
    20   11   40 ar
    21   12   13 ar
    22   12   18 1
    23   12   40 ar
    24   13   14 ar
    25   13   31 1
    26   14   15 ar
    27   15   16 ar
    28   16   17 ar
    29   16   32 1
    30   18   19 1
    31   18   33 1
    32   19   20 1
    33   19   34 1
    34   19   35 1
    35   20   21 1
    36   20   22 1
    37   20   24 1
    38   22   23 1
    39   22   36 1
    40   22   37 1
    41   23   38 1
    42   24   39 1
    43   40   41 1
@<TRIPOS>MOLECULE
ZINC04617775
   43    46     0     0     0
SMALL
USER_CHARGES

@<TRIPOS>ATOM
      1 C1          4.8798    1.0223   -0.4205 C.ar      1 <0>        -0.0931
      2 C2          3.7005    1.7357   -0.5108 C.ar      1 <0>        -0.0922
      3 C3          3.5979    2.9846    0.0883 C.ar      1 <0>         0.1594
      4 C4          4.6846    3.5149    0.7722 C.ar      1 <0>        -0.1192
      5 C5          5.8597    2.7939    0.8639 C.ar      1 <0>        -0.0716
      6 C6          5.9580    1.5498    0.2655 C.ar      1 <0>        -0.1042
      7 Br1         7.3374    3.5110    1.8010 Br        1 <0>        -0.0452
      8 N1          2.4057    3.7087   -0.0014 N.pl3     1 <0>        -0.6386
      9 C7          1.1950    3.0483    0.0135 C.ar      1 <0>         0.4773
     10 C8         -0.0196    3.7495   -0.1978 C.ar      1 <0>        -0.2011
     11 C9         -0.0415    5.1243   -0.4276 C.ar      1 <0>        -0.0214
     12 C10        -1.2577    5.7611   -0.6288 C.ar      1 <0>        -0.1057
     13 C11        -1.6364    7.1548   -0.8894 C.2       1 <0>        -0.1947
     14 C12        -2.9722    7.1852   -0.9991 C.2       1 <0>         0.0654
     15 N2         -3.4880    5.9267   -0.8310 N.pl3     1 <0>        -0.5174
     16 C13        -2.4677    5.0277   -0.6022 C.ar      1 <0>         0.1627
     17 C14        -2.4497    3.6642   -0.3753 C.ar      1 <0>        -0.1371
     18 C15        -1.2326    3.0116   -0.1706 C.ar      1 <0>         0.2001
     19 N3         -1.1735    1.6863    0.0480 N.ar      1 <0>        -0.5488
     20 C16        -0.0203    1.0942    0.2419 C.ar      1 <0>         0.3483
     21 N4          1.1353    1.7408    0.2253 N.ar      1 <0>        -0.5924
     22 C17        -4.9120    5.5868   -0.8863 C.3       1 <0>         0.3320
     23 H1         -5.0328    4.5994   -1.3318 H         1 <0>         0.1280
     24 C18        -5.4904    5.5815    0.5301 C.3       1 <0>        -0.1655
     25 C19        -6.9440    5.1061    0.4857 C.3       1 <0>         0.0817
     26 O1         -7.4842    5.1011    1.8086 O.3       1 <0>        -0.5737
     27 O2         -5.6023    6.5549   -1.6791 O.3       1 <0>        -0.5424
     28 H2          4.9599    0.0514   -0.8866 H         1 <0>         0.1369
     29 H3          2.8586    1.3226   -1.0466 H         1 <0>         0.1415
     30 H4          4.6096    4.4878    1.2350 H         1 <0>         0.1345
     31 H5          6.8791    0.9901    0.3343 H         1 <0>         0.1346
     32 H6          2.4299    4.6756   -0.0743 H         1 <0>         0.4220
     33 H7          0.8793    5.6883   -0.4493 H         1 <0>         0.1302
     34 H8         -0.9657    7.9968   -0.9766 H         1 <0>         0.1548
     35 H9         -3.5569    8.0727   -1.1914 H         1 <0>         0.1722
     36 H10        -3.3740    3.1058   -0.3557 H         1 <0>         0.1365
     37 H11        -0.0118    0.0289    0.4189 H         1 <0>         0.1959
     38 H12        -4.9070    4.9084    1.1583 H         1 <0>         0.0896
     39 H13        -5.4503    6.5896    0.9427 H         1 <0>         0.0823
     40 H14        -7.5274    5.7792   -0.1425 H         1 <0>         0.0567
     41 H15        -6.9840    4.0980    0.0730 H         1 <0>         0.0507
     42 H16        -8.4050    4.8097    1.8563 H         1 <0>         0.3862
     43 H17        -5.5375    7.4585   -1.3410 H         1 <0>         0.3850
@<TRIPOS>BOND
     1    1    6 ar
     2    1    2 ar
     3    1   28 1
     4    2    3 ar
     5    2   29 1
     6    3    4 ar
     7    3    8 1
     8    4    5 ar
     9    4   30 1
    10    5    6 ar
    11    5    7 1
    12    6   31 1
    13    8    9 1
    14    8   32 1
    15    9   21 ar
    16    9   10 ar
    17   10   18 ar
    18   10   11 ar
    19   11   12 ar
    20   11   33 1
    21   12   16 ar
    22   12   13 1
    23   13   14 2
    24   13   34 1
    25   14   15 1
    26   14   35 1
    27   15   16 1
    28   15   22 1
    29   16   17 ar
    30   17   18 ar
    31   17   36 1
    32   18   19 ar
    33   19   20 ar
    34   20   21 ar
    35   20   37 1
    36   22   23 1
    37   22   24 1
    38   22   27 1
    39   24   25 1
    40   24   38 1
    41   24   39 1
    42   25   26 1
    43   25   40 1
    44   25   41 1
    45   26   42 1
    46   27   43 1
@<TRIPOS>MOLECULE
ZINC04617776
   49    51     0     0     0
SMALL
USER_CHARGES

@<TRIPOS>ATOM
      1 C1         -4.6206   -4.9350   -0.0182 C.3       1 <0>        -0.0515
      2 C2         -5.4813   -2.7481   -0.6007 C.3       1 <0>        -0.0223
      3 C3         -4.1144   -2.0750   -0.4617 C.3       1 <0>         0.0913
      4 N1         -4.2947   -0.6908   -0.0172 N.pl3     1 <0>        -0.7237
      5 C4         -3.1849    0.1271    0.1809 C.ar      1 <0>         0.3850
      6 C5         -1.9178   -0.3829   -0.0466 C.ar      1 <0>        -0.1311
      7 C6         -0.8200    0.4549    0.1585 C.ar      1 <0>        -0.0730
      8 C7         -1.0479    1.7873    0.5892 C.ar      1 <0>         0.1339
      9 C8         -2.3672    2.2090    0.7973 C.ar      1 <0>         0.2384
     10 N2          0.0101    2.5859    0.7845 N.ar      1 <0>        -0.5202
     11 C9          1.2288    2.1499    0.5833 C.ar      1 <0>         0.3950
     12 N3          1.5161    0.9216    0.1821 N.ar      1 <0>        -0.5393
     13 C10         0.5607    0.0285   -0.0483 C.ar      1 <0>         0.4686
     14 N4          0.8611   -1.2514   -0.4669 N.pl3     1 <0>        -0.6058
     15 C11         2.1853   -1.6040   -0.7419 C.ar      1 <0>         0.1187
     16 C12         2.6290   -2.8959   -0.4874 C.ar      1 <0>        -0.1174
     17 C13         3.9377   -3.2416   -0.7606 C.ar      1 <0>        -0.0893
     18 C14         4.8069   -2.3038   -1.2875 C.ar      1 <0>        -0.0826
     19 C15         4.3686   -1.0165   -1.5427 C.ar      1 <0>        -0.0740
     20 C16         3.0588   -0.6655   -1.2756 C.ar      1 <0>        -0.0766
     21 Br1         5.5608    0.2617   -2.2644 Br        1 <0>        -0.0211
     22 C17        -6.5864   -4.7413   -1.4184 C.3       1 <0>        -0.0017
     23 C18        -7.0276   -4.2043   -2.7814 C.3       1 <0>         0.0418
     24 O1         -6.1013   -4.6289   -3.7833 O.3       1 <0>        -0.5821
     25 H1         -5.1623   -4.8515    0.9240 H         1 <0>         0.1294
     26 H2         -4.5918   -5.9792   -0.3294 H         1 <0>         0.1341
     27 H3         -3.6031   -4.5670    0.1139 H         1 <0>         0.1208
     28 H4         -5.9903   -2.7394    0.3631 H         1 <0>         0.1462
     29 H5         -6.0803   -2.2065   -1.3328 H         1 <0>         0.1402
     30 H6         -3.6054   -2.0837   -1.4256 H         1 <0>         0.1022
     31 H7         -3.5154   -2.6167    0.2704 H         1 <0>         0.1027
     32 H8         -5.1869   -0.3439    0.1391 H         1 <0>         0.4234
     33 H9         -1.7822   -1.4031   -0.3740 H         1 <0>         0.1752
     34 H10        -2.5655    3.2187    1.1252 H         1 <0>         0.2245
     35 H11         2.0476    2.8330    0.7545 H         1 <0>         0.2252
     36 H12         0.1533   -1.9066   -0.5703 H         1 <0>         0.4226
     37 H13         1.9510   -3.6289   -0.0759 H         1 <0>         0.1334
     38 H14         4.2828   -4.2456   -0.5628 H         1 <0>         0.1459
     39 H15         5.8298   -2.5770   -1.5005 H         1 <0>         0.1448
     40 H16         2.7159    0.3384   -1.4783 H         1 <0>         0.1473
     41 H17        -6.4760   -5.8243   -1.4730 H         1 <0>         0.1472
     42 H18        -7.3366   -4.4900   -0.6687 H         1 <0>         0.1482
     43 H19        -8.0203   -4.5869   -3.0187 H         1 <0>         0.1017
     44 H20        -7.0558   -3.1150   -2.7509 H         1 <0>         0.0676
     45 H21        -6.3191   -4.3241   -4.6748 H         1 <0>         0.4147
     46 N5         -5.2839   -4.1358   -1.0699 N.4       1 <0>        -0.3924
     47 H22        -4.6875   -4.1237   -1.9055 H         1 <0>         0.4403
     48 N6         -3.4453    1.4086    0.5975 N.ar      1 <0>        -0.4871
     49 H23        -4.4038    1.7439    0.7499 H         1 <0>         0.4807
@<TRIPOS>BOND
     1    1   25 1
     2    1   26 1
     3    1   27 1
     4    1   46 1
     5    2    3 1
     6    2   28 1
     7    2   29 1
     8    2   46 1
     9    3    4 1
    10    3   30 1
    11    3   31 1
    12    4    5 1
    13    4   32 1
    14    5    6 ar
    15    5   48 ar
    16    6    7 ar
    17    6   33 1
    18    7   13 ar
    19    7    8 ar
    20    8    9 ar
    21    8   10 ar
    22    9   34 1
    23    9   48 ar
    24   10   11 ar
    25   11   12 ar
    26   11   35 1
    27   12   13 ar
    28   13   14 1
    29   14   15 1
    30   14   36 1
    31   15   20 ar
    32   15   16 ar
    33   16   17 ar
    34   16   37 1
    35   17   18 ar
    36   17   38 1
    37   18   19 ar
    38   18   39 1
    39   19   20 ar
    40   19   21 1
    41   20   40 1
    42   22   23 1
    43   22   41 1
    44   22   42 1
    45   22   46 1
    46   23   24 1
    47   23   43 1
    48   23   44 1
    49   24   45 1
    50   46   47 1
    51   48   49 1
@<TRIPOS>MOLECULE
ZINC04617779
   44    46     0     0     0
SMALL
USER_CHARGES

@<TRIPOS>ATOM
      1 C1          1.2002    6.1474   -0.7406 C.3       1 <0>         0.0714
      2 N1          2.4174    5.3425   -0.8708 N.pl3     1 <0>        -0.5873
      3 C2          3.6847    5.9838   -1.2298 C.3       1 <0>         0.0674
      4 C3          3.8368    5.9961   -2.7522 C.3       1 <0>         0.0793
      5 H1          3.0102    6.5513   -3.1955 H         1 <0>         0.1273
      6 C4          5.1604    6.6658   -3.1271 C.3       1 <0>         0.0453
      7 O1          5.2495    6.7822   -4.5486 O.3       1 <0>        -0.5595
      8 O2          3.8264    4.6539   -3.2427 O.3       1 <0>        -0.5382
      9 C5          2.3699    3.9715   -0.6540 C.ar      1 <0>         0.4460
     10 C6          1.1482    3.3669   -0.4186 C.ar      1 <0>        -0.1921
     11 C7          1.1182    1.9850   -0.2020 C.ar      1 <0>         0.3048
     12 C8          2.3470    1.2727   -0.2352 C.ar      1 <0>        -0.2596
     13 C9          3.5316    1.9709   -0.4798 C.ar      1 <0>         0.2624
     14 C10         2.3135   -0.1241   -0.0165 C.ar      1 <0>         0.5205
     15 N2          1.1349   -0.6935    0.2080 N.ar      1 <0>        -0.5816
     16 C11         0.0162    0.0124    0.2294 C.ar      1 <0>         0.4269
     17 N3         -0.0144    1.3108    0.0333 N.ar      1 <0>        -0.5561
     18 N4          3.4707   -0.8729   -0.0362 N.pl3     1 <0>        -0.6092
     19 C12         3.4036   -2.2658    0.0620 C.ar      1 <0>         0.1223
     20 C13         2.3487   -2.9549   -0.5233 C.ar      1 <0>        -0.0824
     21 C14         2.2852   -4.3308   -0.4251 C.ar      1 <0>        -0.0914
     22 C15         3.2702   -5.0234    0.2550 C.ar      1 <0>        -0.0831
     23 C16         4.3223   -4.3407    0.8391 C.ar      1 <0>        -0.0756
     24 C17         4.3943   -2.9640    0.7399 C.ar      1 <0>        -0.1027
     25 Br1         5.6670   -5.2925    1.7674 Br        1 <0>        -0.0274
     26 H2          1.1043    6.4973    0.2872 H         1 <0>         0.0842
     27 H3          1.2575    7.0040   -1.4122 H         1 <0>         0.0965
     28 H4          0.3333    5.5396   -0.9999 H         1 <0>         0.0938
     29 H5          3.6926    7.0076   -0.8557 H         1 <0>         0.1284
     30 H6          4.5113    5.4286   -0.7865 H         1 <0>         0.0797
     31 H7          5.2056    7.6579   -2.6778 H         1 <0>         0.0660
     32 H8          5.9901    6.0622   -2.7592 H         1 <0>         0.0518
     33 H9          6.0651    7.1989   -4.8587 H         1 <0>         0.3925
     34 H10         4.5364    4.1005   -2.8894 H         1 <0>         0.3582
     35 H11         0.2383    3.9484   -0.4019 H         1 <0>         0.1927
     36 H12         4.4734    1.4430   -0.5077 H         1 <0>         0.1961
     37 H13        -0.9145   -0.5025    0.4164 H         1 <0>         0.2214
     38 H14         4.3315   -0.4334   -0.1182 H         1 <0>         0.4240
     39 H15         1.5788   -2.4149   -1.0543 H         1 <0>         0.1423
     40 H16         1.4655   -4.8667   -0.8803 H         1 <0>         0.1447
     41 H17         3.2183   -6.0996    0.3299 H         1 <0>         0.1428
     42 H18         5.2179   -2.4316    1.1921 H         1 <0>         0.1386
     43 N5          3.5740    3.3112   -0.6929 N.ar      1 <0>        -0.5426
     44 H19         4.4567    3.8037   -0.8730 H         1 <0>         0.4616
@<TRIPOS>BOND
     1    1    2 1
     2    1   26 1
     3    1   27 1
     4    1   28 1
     5    2    3 1
     6    2    9 1
     7    3    4 1
     8    3   29 1
     9    3   30 1
    10    4    5 1
    11    4    6 1
    12    4    8 1
    13    6    7 1
    14    6   31 1
    15    6   32 1
    16    7   33 1
    17    8   34 1
    18    9   10 ar
    19    9   43 ar
    20   10   11 ar
    21   10   35 1
    22   11   17 ar
    23   11   12 ar
    24   12   13 ar
    25   12   14 ar
    26   13   36 1
    27   13   43 ar
    28   14   15 ar
    29   14   18 1
    30   15   16 ar
    31   16   17 ar
    32   16   37 1
    33   18   19 1
    34   18   38 1
    35   19   24 ar
    36   19   20 ar
    37   20   21 ar
    38   20   39 1
    39   21   22 ar
    40   21   40 1
    41   22   23 ar
    42   22   41 1
    43   23   24 ar
    44   23   25 1
    45   24   42 1
    46   43   44 1
@<TRIPOS>MOLECULE
ZINC04617781
   56    58     0     0     0
SMALL
USER_CHARGES

@<TRIPOS>ATOM
      1 C1          3.6847    5.9838   -1.2298 C.3       1 <0>         0.0613
      2 N1          2.4174    5.3425   -0.8708 N.pl3     1 <0>        -0.5869
      3 C2          1.2002    6.1474   -0.7406 C.3       1 <0>         0.0761
      4 C3          1.0655    6.6386    0.7021 C.3       1 <0>         0.0615
      5 H1          1.9324    7.2463    0.9614 H         1 <0>         0.1077
      6 C4         -0.2057    7.4791    0.8381 C.3       1 <0>         0.0547
      7 H2         -1.0726    6.8714    0.5788 H         1 <0>         0.1078
      8 C5         -0.3403    7.9703    2.2808 C.3       1 <0>         0.0555
      9 H3          0.5266    8.5781    2.5401 H         1 <0>         0.1026
     10 C6         -1.6115    8.8109    2.4168 C.3       1 <0>         0.0821
     11 H4         -2.4784    8.2032    2.1575 H         1 <0>         0.1058
     12 C7         -1.7462    9.3021    3.8595 C.3       1 <0>         0.0446
     13 O1         -2.9901    9.9882    4.0150 O.3       1 <0>        -0.5647
     14 O2         -1.5365    9.9339    1.5363 O.3       1 <0>        -0.5283
     15 O3         -0.4154    6.8473    3.1613 O.3       1 <0>        -0.5314
     16 O4         -0.1306    8.6021   -0.0424 O.3       1 <0>        -0.5266
     17 O5          0.9905    5.5156    1.5826 O.3       1 <0>        -0.5313
     18 C8          2.3699    3.9715   -0.6540 C.ar      1 <0>         0.4480
     19 C9          1.1482    3.3669   -0.4186 C.ar      1 <0>        -0.1974
     20 C10         1.1182    1.9850   -0.2020 C.ar      1 <0>         0.3056
     21 C11         2.3470    1.2727   -0.2352 C.ar      1 <0>        -0.2618
     22 C12         3.5316    1.9709   -0.4798 C.ar      1 <0>         0.2636
     23 C13         2.3135   -0.1241   -0.0165 C.ar      1 <0>         0.5211
     24 N2          1.1349   -0.6935    0.2080 N.ar      1 <0>        -0.5821
     25 C14         0.0162    0.0124    0.2294 C.ar      1 <0>         0.4269
     26 N3         -0.0144    1.3108    0.0333 N.ar      1 <0>        -0.5577
     27 N4          3.4707   -0.8729   -0.0362 N.pl3     1 <0>        -0.6092
     28 C15         3.4036   -2.2658    0.0620 C.ar      1 <0>         0.1222
     29 C16         2.3487   -2.9549   -0.5233 C.ar      1 <0>        -0.0826
     30 C17         2.2852   -4.3308   -0.4251 C.ar      1 <0>        -0.0916
     31 C18         3.2702   -5.0234    0.2550 C.ar      1 <0>        -0.0831
     32 C19         4.3223   -4.3407    0.8391 C.ar      1 <0>        -0.0754
     33 C20         4.3943   -2.9640    0.7399 C.ar      1 <0>        -0.1026
     34 Br1         5.6670   -5.2925    1.7674 Br        1 <0>        -0.0271
     35 H5          3.7931    5.9926   -2.3144 H         1 <0>         0.0865
     36 H6          3.6926    7.0076   -0.8557 H         1 <0>         0.1050
     37 H7          4.5113    5.4286   -0.7865 H         1 <0>         0.0691
     38 H8          1.2575    7.0040   -1.4122 H         1 <0>         0.1213
     39 H9          0.3333    5.5396   -0.9999 H         1 <0>         0.1009
     40 H10        -1.7142    8.4497    4.5381 H         1 <0>         0.0622
     41 H11        -0.9254    9.9812    4.0903 H         1 <0>         0.0469
     42 H12        -3.1430   10.3279    4.9073 H         1 <0>         0.3847
     43 H13        -0.7870   10.5199    1.7093 H         1 <0>         0.3696
     44 H14        -1.1649    6.2613    2.9883 H         1 <0>         0.3764
     45 H15         0.6189    9.1882    0.1306 H         1 <0>         0.3764
     46 H16         0.2410    4.9295    1.4096 H         1 <0>         0.3726
     47 H17         0.2383    3.9484   -0.4019 H         1 <0>         0.1845
     48 H18         4.4734    1.4430   -0.5077 H         1 <0>         0.1956
     49 H19        -0.9145   -0.5025    0.4164 H         1 <0>         0.2207
     50 H20         4.3315   -0.4334   -0.1182 H         1 <0>         0.4242
     51 H21         1.5788   -2.4149   -1.0543 H         1 <0>         0.1421
     52 H22         1.4655   -4.8667   -0.8803 H         1 <0>         0.1446
     53 H23         3.2183   -6.0996    0.3299 H         1 <0>         0.1428
     54 H24         5.2179   -2.4316    1.1921 H         1 <0>         0.1388
     55 N5          3.5740    3.3112   -0.6929 N.ar      1 <0>        -0.5415
     56 H25         4.4567    3.8037   -0.8730 H         1 <0>         0.4690
@<TRIPOS>BOND
     1    1    2 1
     2    1   35 1
     3    1   36 1
     4    1   37 1
     5    2    3 1
     6    2   18 1
     7    3    4 1
     8    3   38 1
     9    3   39 1
    10    4    5 1
    11    4    6 1
    12    4   17 1
    13    6    7 1
    14    6    8 1
    15    6   16 1
    16    8    9 1
    17    8   10 1
    18    8   15 1
    19   10   11 1
    20   10   12 1
    21   10   14 1
    22   12   13 1
    23   12   40 1
    24   12   41 1
    25   13   42 1
    26   14   43 1
    27   15   44 1
    28   16   45 1
    29   17   46 1
    30   18   19 ar
    31   18   55 ar
    32   19   20 ar
    33   19   47 1
    34   20   26 ar
    35   20   21 ar
    36   21   22 ar
    37   21   23 ar
    38   22   48 1
    39   22   55 ar
    40   23   24 ar
    41   23   27 1
    42   24   25 ar
    43   25   26 ar
    44   25   49 1
    45   27   28 1
    46   27   50 1
    47   28   33 ar
    48   28   29 ar
    49   29   30 ar
    50   29   51 1
    51   30   31 ar
    52   30   52 1
    53   31   32 ar
    54   31   53 1
    55   32   33 ar
    56   32   34 1
    57   33   54 1
    58   55   56 1
@<TRIPOS>MOLECULE
ZINC04617782
   56    58     0     0     0
SMALL
USER_CHARGES

@<TRIPOS>ATOM
      1 C1          3.8533   -4.5759    1.1686 C.3       1 <0>         0.0639
      2 N1          2.5619   -3.9694    0.8364 N.pl3     1 <0>        -0.5852
      3 C2          1.3647   -4.8071    0.7307 C.3       1 <0>         0.0784
      4 C3          1.2137   -5.3015   -0.7093 C.3       1 <0>         0.0604
      5 H1          1.2084   -4.4483   -1.3877 H         1 <0>         0.1179
      6 C4         -0.1007   -6.0721   -0.8488 C.3       1 <0>         0.0526
      7 H2         -0.9385   -5.3937   -0.6875 H         1 <0>         0.1155
      8 C5         -0.1936   -6.6722   -2.2531 C.3       1 <0>         0.0556
      9 H3          0.6442   -7.3506   -2.4144 H         1 <0>         0.1102
     10 C6         -1.5080   -7.4428   -2.3926 C.3       1 <0>         0.0824
     11 H4         -2.3457   -6.7644   -2.2312 H         1 <0>         0.1063
     12 C7         -1.6008   -8.0429   -3.7969 C.3       1 <0>         0.0445
     13 O1         -2.8770   -8.6631   -3.9665 O.3       1 <0>        -0.5646
     14 O2         -1.5506   -8.4914   -1.4227 O.3       1 <0>        -0.5276
     15 O3         -0.1510   -5.6236   -3.2230 O.3       1 <0>        -0.5443
     16 O4         -0.1433   -7.1207    0.1211 O.3       1 <0>        -0.5267
     17 O5          2.3071   -6.1620   -1.0347 O.3       1 <0>        -0.5450
     18 C8          2.4725   -2.6001    0.6216 C.ar      1 <0>         0.4362
     19 C9          1.2302   -2.0290    0.4120 C.ar      1 <0>        -0.2007
     20 C10         1.1581   -0.6485    0.1967 C.ar      1 <0>         0.3056
     21 C11         2.3674    0.0970    0.2046 C.ar      1 <0>        -0.2628
     22 C12         3.5753   -0.5685    0.4251 C.ar      1 <0>         0.2644
     23 C13         2.2914    1.4923   -0.0133 C.ar      1 <0>         0.5209
     24 N2          1.0935    2.0292   -0.2142 N.ar      1 <0>        -0.5816
     25 C14        -0.0058    1.2930   -0.2125 C.ar      1 <0>         0.4272
     26 N3          0.0030   -0.0055   -0.0154 N.ar      1 <0>        -0.5570
     27 N4          3.4280    2.2722   -0.0183 N.pl3     1 <0>        -0.6088
     28 C15         3.3211    3.6627   -0.1149 C.ar      1 <0>         0.1218
     29 C16         2.2595    4.3230    0.4911 C.ar      1 <0>        -0.0826
     30 C17         2.1564    5.6966    0.3940 C.ar      1 <0>        -0.0915
     31 C18         3.1084    6.4155   -0.3056 C.ar      1 <0>        -0.0829
     32 C19         4.1672    5.7615   -0.9100 C.ar      1 <0>        -0.0754
     33 C20         4.2789    4.3874   -0.8120 C.ar      1 <0>        -0.1025
     34 Br1         5.4666    6.7492   -1.8650 Br        1 <0>        -0.0269
     35 H5          3.9843   -4.5819    2.2507 H         1 <0>         0.0837
     36 H6          3.8815   -5.5990    0.7935 H         1 <0>         0.1087
     37 H7          4.6551   -3.9982    0.7088 H         1 <0>         0.0681
     38 H8          1.4592   -5.6620    1.4003 H         1 <0>         0.1154
     39 H9          0.4871   -4.2233    1.0084 H         1 <0>         0.1088
     40 H10        -1.4792   -7.2531   -4.5383 H         1 <0>         0.0618
     41 H11        -0.8150   -8.7871   -3.9267 H         1 <0>         0.0477
     42 H12        -3.0062   -9.0657   -4.8361 H         1 <0>         0.3848
     43 H13        -0.8328   -9.1340   -1.5064 H         1 <0>         0.3696
     44 H14        -0.8687   -4.9810   -3.1393 H         1 <0>         0.3800
     45 H15         0.5744   -7.7633    0.0374 H         1 <0>         0.3714
     46 H16         2.3736   -6.9442   -0.4699 H         1 <0>         0.3740
     47 H17         0.3363   -2.6351    0.4141 H         1 <0>         0.1888
     48 H18         4.5028   -0.0151    0.4336 H         1 <0>         0.1963
     49 H19        -0.9533    1.7816   -0.3854 H         1 <0>         0.2213
     50 H20         4.3020    1.8562    0.0451 H         1 <0>         0.4243
     51 H21         1.5154    3.7624    1.0374 H         1 <0>         0.1421
     52 H22         1.3315    6.2102    0.8654 H         1 <0>         0.1448
     53 H23         3.0253    7.4898   -0.3799 H         1 <0>         0.1430
     54 H24         5.1077    3.8775   -1.2805 H         1 <0>         0.1388
     55 N5          3.6588   -1.9073    0.6352 N.ar      1 <0>        -0.5409
     56 H25         4.5583   -2.3757    0.7953 H         1 <0>         0.4698
@<TRIPOS>BOND
     1    1    2 1
     2    1   35 1
     3    1   36 1
     4    1   37 1
     5    2    3 1
     6    2   18 1
     7    3    4 1
     8    3   38 1
     9    3   39 1
    10    4    5 1
    11    4    6 1
    12    4   17 1
    13    6    7 1
    14    6    8 1
    15    6   16 1
    16    8    9 1
    17    8   10 1
    18    8   15 1
    19   10   11 1
    20   10   12 1
    21   10   14 1
    22   12   13 1
    23   12   40 1
    24   12   41 1
    25   13   42 1
    26   14   43 1
    27   15   44 1
    28   16   45 1
    29   17   46 1
    30   18   19 ar
    31   18   55 ar
    32   19   20 ar
    33   19   47 1
    34   20   26 ar
    35   20   21 ar
    36   21   22 ar
    37   21   23 ar
    38   22   48 1
    39   22   55 ar
    40   23   24 ar
    41   23   27 1
    42   24   25 ar
    43   25   26 ar
    44   25   49 1
    45   27   28 1
    46   27   50 1
    47   28   33 ar
    48   28   29 ar
    49   29   30 ar
    50   29   51 1
    51   30   31 ar
    52   30   52 1
    53   31   32 ar
    54   31   53 1
    55   32   33 ar
    56   32   34 1
    57   33   54 1
    58   55   56 1
@<TRIPOS>MOLECULE
ZINC04617785
   55    57     0     0     0
SMALL
USER_CHARGES

@<TRIPOS>ATOM
      1 C1          6.7322   -0.7584   -4.9009 C.3       1 <0>        -0.1861
      2 C2          6.1692   -1.9598   -4.1390 C.3       1 <0>        -0.0266
      3 C3          7.8572   -1.7204   -2.4197 C.3       1 <0>        -0.0142
      4 C4          8.4805   -3.1038   -2.6160 C.3       1 <0>        -0.1900
      5 C5          5.7238   -0.5995   -2.1861 C.3       1 <0>        -0.0466
      6 C6          4.2338   -0.9080   -2.0255 C.3       1 <0>         0.0744
      7 H1          4.1120   -1.8092   -1.4246 H         1 <0>         0.1353
      8 C7          3.5420    0.2661   -1.3301 C.3       1 <0>         0.0853
      9 N1          2.1419   -0.0771   -1.0690 N.pl3     1 <0>        -0.7177
     10 C8          1.3054    0.8414   -0.4394 C.ar      1 <0>         0.3898
     11 C9          1.8120    2.0750   -0.0667 C.ar      1 <0>        -0.1357
     12 C10         0.9552    2.9803    0.5622 C.ar      1 <0>        -0.0700
     13 C11        -0.3921    2.5997    0.7923 C.ar      1 <0>         0.1291
     14 C12        -0.8103    1.3288    0.3787 C.ar      1 <0>         0.2339
     15 N2         -1.2101    3.4755    1.3914 N.ar      1 <0>        -0.5208
     16 C13        -0.7769    4.6535    1.7666 C.ar      1 <0>         0.3914
     17 N3          0.4645    5.0754    1.5845 N.ar      1 <0>        -0.5406
     18 C14         1.3762    4.3082    0.9983 C.ar      1 <0>         0.4680
     19 N4          2.6698    4.7490    0.8084 N.pl3     1 <0>        -0.6078
     20 C15         3.0133    6.0658    1.1270 C.ar      1 <0>         0.1219
     21 C16         4.2804    6.3555    1.6180 C.ar      1 <0>        -0.1178
     22 C17         4.6170    7.6574    1.9319 C.ar      1 <0>        -0.0894
     23 C18         3.6947    8.6731    1.7578 C.ar      1 <0>        -0.0839
     24 C19         2.4319    8.3886    1.2692 C.ar      1 <0>        -0.0736
     25 C20         2.0907    7.0883    0.9481 C.ar      1 <0>        -0.0767
     26 Br1         1.1745    9.7811    1.0330 Br        1 <0>        -0.0223
     27 O1          3.6480   -1.1113   -3.3130 O.3       1 <0>        -0.5443
     28 H2          7.8147   -0.7251   -4.7782 H         1 <0>         0.0826
     29 H3          6.4893   -0.8531   -5.9593 H         1 <0>         0.1099
     30 H4          6.2936    0.1589   -4.5081 H         1 <0>         0.0731
     31 H5          6.6572   -2.8709   -4.4853 H         1 <0>         0.1313
     32 H6          5.0962   -2.0324   -4.3166 H         1 <0>         0.1482
     33 H7          8.3276   -1.0102   -3.0997 H         1 <0>         0.1355
     34 H8          8.0115   -1.3951   -1.3909 H         1 <0>         0.1290
     35 H9          9.5263   -3.0780   -2.3096 H         1 <0>         0.1102
     36 H10         7.9426   -3.8338   -2.0111 H         1 <0>         0.0803
     37 H11         8.4167   -3.3853   -3.6671 H         1 <0>         0.0824
     38 H12         5.8504    0.2268   -2.8855 H         1 <0>         0.1450
     39 H13         6.1441   -0.3245   -1.2187 H         1 <0>         0.1451
     40 H14         3.5868    1.1461   -1.9718 H         1 <0>         0.0969
     41 H15         4.0460    0.4781   -0.3871 H         1 <0>         0.1020
     42 H16         1.7974   -0.9441   -1.3347 H         1 <0>         0.4234
     43 H17         2.8437    2.3307   -0.2583 H         1 <0>         0.1757
     44 H18        -1.8311    1.0167    0.5430 H         1 <0>         0.2223
     45 H19        -1.4749    5.3215    2.2493 H         1 <0>         0.2237
     46 H20         3.3409    4.1449    0.4539 H         1 <0>         0.4232
     47 H21         5.0013    5.5630    1.7543 H         1 <0>         0.1336
     48 H22         5.6018    7.8827    2.3135 H         1 <0>         0.1454
     49 H23         3.9609    9.6905    2.0035 H         1 <0>         0.1443
     50 H24         1.1064    6.8671    0.5625 H         1 <0>         0.1454
     51 H25         3.7195   -0.3481   -3.9026 H         1 <0>         0.3973
     52 N5          6.4064   -1.8107   -2.6877 N.4       1 <0>        -0.3892
     53 H26         6.0280   -2.6322   -2.2018 H         1 <0>         0.4287
     54 N6          0.0098    0.4374   -0.2342 N.ar      1 <0>        -0.4901
     55 H27        -0.3212   -0.4890   -0.5284 H         1 <0>         0.4797
@<TRIPOS>BOND
     1    1    2 1
     2    1   28 1
     3    1   29 1
     4    1   30 1
     5    2   31 1
     6    2   32 1
     7    2   52 1
     8    3    4 1
     9    3   33 1
    10    3   34 1
    11    3   52 1
    12    4   35 1
    13    4   36 1
    14    4   37 1
    15    5    6 1
    16    5   38 1
    17    5   39 1
    18    5   52 1
    19    6    7 1
    20    6    8 1
    21    6   27 1
    22    8    9 1
    23    8   40 1
    24    8   41 1
    25    9   10 1
    26    9   42 1
    27   10   11 ar
    28   10   54 ar
    29   11   12 ar
    30   11   43 1
    31   12   18 ar
    32   12   13 ar
    33   13   14 ar
    34   13   15 ar
    35   14   44 1
    36   14   54 ar
    37   15   16 ar
    38   16   17 ar
    39   16   45 1
    40   17   18 ar
    41   18   19 1
    42   19   20 1
    43   19   46 1
    44   20   25 ar
    45   20   21 ar
    46   21   22 ar
    47   21   47 1
    48   22   23 ar
    49   22   48 1
    50   23   24 ar
    51   23   49 1
    52   24   25 ar
    53   24   26 1
    54   25   50 1
    55   27   51 1
    56   52   53 1
    57   54   55 1
@<TRIPOS>MOLECULE
ZINC04617786
   53    55     0     0     0
SMALL
USER_CHARGES

@<TRIPOS>ATOM
      1 C1          2.1577    5.6966    0.3942 C.ar      1 <0>        -0.0915
      2 C2          2.2603    4.3225    0.4909 C.ar      1 <0>        -0.0826
      3 C3          3.3215    3.6622   -0.1150 C.ar      1 <0>         0.1213
      4 C4          4.2797    4.3869   -0.8123 C.ar      1 <0>        -0.1023
      5 C5          4.1688    5.7608   -0.9094 C.ar      1 <0>        -0.0755
      6 C6          3.1100    6.4152   -0.3043 C.ar      1 <0>        -0.0828
      7 Br1         5.4687    6.7483   -1.8638 Br        1 <0>        -0.0267
      8 N1          3.4281    2.2717   -0.0184 N.pl3     1 <0>        -0.6085
      9 C7          2.2914    1.4919   -0.0144 C.ar      1 <0>         0.5203
     10 C8          2.3671    0.0967    0.2035 C.ar      1 <0>        -0.2632
     11 C9          3.5751   -0.5691    0.4250 C.ar      1 <0>         0.2670
     12 C10         2.4717   -2.6006    0.6204 C.ar      1 <0>         0.4359
     13 C11         1.2299   -2.0296    0.4098 C.ar      1 <0>        -0.1944
     14 C12         1.1580   -0.6486    0.1945 C.ar      1 <0>         0.3055
     15 N2          0.0031   -0.0057   -0.0186 N.ar      1 <0>        -0.5556
     16 C13        -0.0056    1.2929   -0.2155 C.ar      1 <0>         0.4277
     17 N3          1.0937    2.0290   -0.2163 N.ar      1 <0>        -0.5809
     18 N4          2.5608   -3.9699    0.8351 N.pl3     1 <0>        -0.6997
     19 C14         1.3480   -4.7916    0.8367 C.3       1 <0>         0.0777
     20 C15         1.7221   -6.2527    1.0938 C.3       1 <0>         0.0696
     21 H1          2.2186   -6.3358    2.0606 H         1 <0>         0.1120
     22 C16         0.4554   -7.1108    1.0955 C.3       1 <0>         0.0570
     23 H2         -0.0410   -7.0276    0.1287 H         1 <0>         0.1091
     24 C17         0.8296   -8.5719    1.3526 C.3       1 <0>         0.0547
     25 H3          1.3261   -8.6551    2.3194 H         1 <0>         0.1038
     26 C18        -0.4371   -9.4300    1.3543 C.3       1 <0>         0.0822
     27 H4         -0.9335   -9.3469    0.3875 H         1 <0>         0.1058
     28 C19        -0.0629  -10.8911    1.6114 C.3       1 <0>         0.0444
     29 O1         -1.2294  -11.7087    1.4977 O.3       1 <0>        -0.5649
     30 O2         -1.3187   -8.9759    2.3831 O.3       1 <0>        -0.5284
     31 O3          1.7113   -9.0260    0.3238 O.3       1 <0>        -0.5313
     32 O4         -0.4262   -6.6567    2.1243 O.3       1 <0>        -0.5263
     33 O5          2.6038   -6.7068    0.0650 O.3       1 <0>        -0.5333
     34 H5          1.3327    6.2103    0.8653 H         1 <0>         0.1448
     35 H6          1.5159    3.7620    1.0368 H         1 <0>         0.1421
     36 H7          5.1084    3.8769   -1.2807 H         1 <0>         0.1389
     37 H8          3.0277    7.4896   -0.3778 H         1 <0>         0.1430
     38 H9          4.3020    1.8556    0.0458 H         1 <0>         0.4244
     39 H10         4.5026   -0.0158    0.4344 H         1 <0>         0.1970
     40 H11         0.3360   -2.6356    0.4110 H         1 <0>         0.1902
     41 H12        -0.9530    1.7814   -0.3892 H         1 <0>         0.2218
     42 H13         3.4261   -4.3821    0.9840 H         1 <0>         0.4210
     43 H14         0.6755   -4.4452    1.6214 H         1 <0>         0.1057
     44 H15         0.8515   -4.7084   -0.1301 H         1 <0>         0.0918
     45 H16         0.6778  -11.2109    0.8785 H         1 <0>         0.0626
     46 H17         0.3528  -10.9886    2.6143 H         1 <0>         0.0474
     47 H18        -1.0664  -12.6498    1.6487 H         1 <0>         0.3849
     48 H19        -0.9419   -9.0217    3.2725 H         1 <0>         0.3699
     49 H20         1.3345   -8.9802   -0.5656 H         1 <0>         0.3770
     50 H21        -0.0494   -6.7025    3.0137 H         1 <0>         0.3771
     51 H22         2.2270   -6.6610   -0.8244 H         1 <0>         0.3796
     52 N5          3.6583   -1.9077    0.6351 N.ar      1 <0>        -0.5392
     53 H23         4.5576   -2.3762    0.7959 H         1 <0>         0.4736
@<TRIPOS>BOND
     1    1    6 ar
     2    1    2 ar
     3    1   34 1
     4    2    3 ar
     5    2   35 1
     6    3    4 ar
     7    3    8 1
     8    4    5 ar
     9    4   36 1
    10    5    6 ar
    11    5    7 1
    12    6   37 1
    13    8    9 1
    14    8   38 1
    15    9   17 ar
    16    9   10 ar
    17   10   14 ar
    18   10   11 ar
    19   11   39 1
    20   11   52 ar
    21   12   13 ar
    22   12   18 1
    23   12   52 ar
    24   13   14 ar
    25   13   40 1
    26   14   15 ar
    27   15   16 ar
    28   16   17 ar
    29   16   41 1
    30   18   19 1
    31   18   42 1
    32   19   20 1
    33   19   43 1
    34   19   44 1
    35   20   21 1
    36   20   22 1
    37   20   33 1
    38   22   23 1
    39   22   24 1
    40   22   32 1
    41   24   25 1
    42   24   26 1
    43   24   31 1
    44   26   27 1
    45   26   28 1
    46   26   30 1
    47   28   29 1
    48   28   45 1
    49   28   46 1
    50   29   47 1
    51   30   48 1
    52   31   49 1
    53   32   50 1
    54   33   51 1
    55   52   53 1
@<TRIPOS>MOLECULE
ZINC04617787
   53    55     0     0     0
SMALL
USER_CHARGES

@<TRIPOS>ATOM
      1 C1          2.2861   -4.3306   -0.4267 C.ar      1 <0>        -0.0915
      2 C2          2.3494   -2.9542   -0.5245 C.ar      1 <0>        -0.0825
      3 C3          3.4040   -2.2653    0.0607 C.ar      1 <0>         0.1213
      4 C4          4.3952   -2.9637    0.7383 C.ar      1 <0>        -0.1022
      5 C5          4.3235   -4.3401    0.8371 C.ar      1 <0>        -0.0755
      6 C6          3.2711   -5.0230    0.2527 C.ar      1 <0>        -0.0827
      7 Br1         5.6685   -5.2920    1.7649 Br        1 <0>        -0.0267
      8 N1          3.4708   -0.8724   -0.0371 N.pl3     1 <0>        -0.6085
      9 C7          2.3135   -0.1237   -0.0165 C.ar      1 <0>         0.5204
     10 C8          2.3467    1.2731   -0.2347 C.ar      1 <0>        -0.2632
     11 C9          3.5313    1.9715   -0.4807 C.ar      1 <0>         0.2670
     12 C10         2.3690    3.9720   -0.6534 C.ar      1 <0>         0.4358
     13 C11         1.1479    3.3674   -0.4176 C.ar      1 <0>        -0.1943
     14 C12         1.1181    1.9851   -0.2010 C.ar      1 <0>         0.3056
     15 N2         -0.0143    1.3108    0.0347 N.ar      1 <0>        -0.5555
     16 C13         0.0164    0.0124    0.2308 C.ar      1 <0>         0.4278
     17 N3          1.1351   -0.6934    0.2085 N.ar      1 <0>        -0.5808
     18 N4          2.4162    5.3430   -0.8707 N.pl3     1 <0>        -0.7007
     19 C14         1.1814    6.1310   -0.8486 C.3       1 <0>         0.0803
     20 C15         1.5101    7.6015   -1.1141 C.3       1 <0>         0.0670
     21 H1          2.2562    7.9424   -0.3963 H         1 <0>         0.1251
     22 C16         0.2402    8.4424   -0.9679 C.3       1 <0>         0.0551
     23 H2         -0.1028    8.4057    0.0660 H         1 <0>         0.1168
     24 C17         0.5411    9.8919   -1.3544 C.3       1 <0>         0.0551
     25 H3          0.8841    9.9285   -2.3883 H         1 <0>         0.1113
     26 C18        -0.7288   10.7327   -1.2082 C.3       1 <0>         0.0824
     27 H4         -1.0718   10.6961   -0.1742 H         1 <0>         0.1064
     28 C19        -0.4280   12.1822   -1.5947 C.3       1 <0>         0.0443
     29 O1         -1.5805   12.9901   -1.3477 O.3       1 <0>        -0.5648
     30 O2         -1.7461   10.2123   -2.0663 O.3       1 <0>        -0.5278
     31 O3          1.5583   10.4123   -0.4963 O.3       1 <0>        -0.5440
     32 O4         -0.7771    7.9220   -1.8260 O.3       1 <0>        -0.5264
     33 O5          2.0249    7.7427   -2.4396 O.3       1 <0>        -0.5467
     34 H5          1.4664   -4.8665   -0.8820 H         1 <0>         0.1449
     35 H6          1.5793   -2.4141   -1.0552 H         1 <0>         0.1420
     36 H7          5.2188   -2.4314    1.1906 H         1 <0>         0.1389
     37 H8          3.2194   -6.0992    0.3274 H         1 <0>         0.1430
     38 H9          4.3315   -0.4327   -0.1195 H         1 <0>         0.4244
     39 H10         4.4731    1.4437   -0.5092 H         1 <0>         0.1971
     40 H11         0.2379    3.9488   -0.4006 H         1 <0>         0.1905
     41 H12        -0.9142   -0.5025    0.4185 H         1 <0>         0.2219
     42 H13         3.2667    5.7787   -1.0372 H         1 <0>         0.4206
     43 H14         0.5031    5.7654   -1.6195 H         1 <0>         0.0993
     44 H15         0.7068    6.0354    0.1280 H         1 <0>         0.0996
     45 H16         0.4081   12.5507   -1.0002 H         1 <0>         0.0623
     46 H17        -0.1705   12.2302   -2.6527 H         1 <0>         0.0481
     47 H18        -1.4616   13.9235   -1.5704 H         1 <0>         0.3850
     48 H19        -1.5089   10.2143   -3.0038 H         1 <0>         0.3698
     49 H20         1.3211   10.4103    0.4412 H         1 <0>         0.3808
     50 H21        -0.5399    7.9240   -2.7635 H         1 <0>         0.3719
     51 H22         1.4127    7.4577   -3.1318 H         1 <0>         0.3777
     52 N5          3.5735    3.3118   -0.6923 N.ar      1 <0>        -0.5392
     53 H23         4.4562    3.8047   -0.8714 H         1 <0>         0.4736
@<TRIPOS>BOND
     1    1    6 ar
     2    1    2 ar
     3    1   34 1
     4    2    3 ar
     5    2   35 1
     6    3    4 ar
     7    3    8 1
     8    4    5 ar
     9    4   36 1
    10    5    6 ar
    11    5    7 1
    12    6   37 1
    13    8    9 1
    14    8   38 1
    15    9   17 ar
    16    9   10 ar
    17   10   14 ar
    18   10   11 ar
    19   11   39 1
    20   11   52 ar
    21   12   13 ar
    22   12   18 1
    23   12   52 ar
    24   13   14 ar
    25   13   40 1
    26   14   15 ar
    27   15   16 ar
    28   16   17 ar
    29   16   41 1
    30   18   19 1
    31   18   42 1
    32   19   20 1
    33   19   43 1
    34   19   44 1
    35   20   21 1
    36   20   22 1
    37   20   33 1
    38   22   23 1
    39   22   24 1
    40   22   32 1
    41   24   25 1
    42   24   26 1
    43   24   31 1
    44   26   27 1
    45   26   28 1
    46   26   30 1
    47   28   29 1
    48   28   45 1
    49   28   46 1
    50   29   47 1
    51   30   48 1
    52   31   49 1
    53   32   50 1
    54   33   51 1
    55   52   53 1
@<TRIPOS>MOLECULE
ZINC04617788
   53    55     0     0     0
SMALL
USER_CHARGES

@<TRIPOS>ATOM
      1 C1          2.1577    5.6966    0.3942 C.ar      1 <0>        -0.0915
      2 C2          2.2603    4.3225    0.4909 C.ar      1 <0>        -0.0826
      3 C3          3.3215    3.6622   -0.1150 C.ar      1 <0>         0.1213
      4 C4          4.2797    4.3869   -0.8123 C.ar      1 <0>        -0.1022
      5 C5          4.1688    5.7608   -0.9094 C.ar      1 <0>        -0.0755
      6 C6          3.1100    6.4152   -0.3043 C.ar      1 <0>        -0.0828
      7 Br1         5.4687    6.7483   -1.8638 Br        1 <0>        -0.0267
      8 N1          3.4281    2.2717   -0.0184 N.pl3     1 <0>        -0.6085
      9 C7          2.2914    1.4919   -0.0144 C.ar      1 <0>         0.5203
     10 C8          2.3671    0.0967    0.2035 C.ar      1 <0>        -0.2631
     11 C9          3.5751   -0.5691    0.4250 C.ar      1 <0>         0.2670
     12 C10         2.4717   -2.6006    0.6204 C.ar      1 <0>         0.4359
     13 C11         1.2299   -2.0296    0.4098 C.ar      1 <0>        -0.1943
     14 C12         1.1580   -0.6486    0.1945 C.ar      1 <0>         0.3055
     15 N2          0.0031   -0.0057   -0.0186 N.ar      1 <0>        -0.5555
     16 C13        -0.0056    1.2929   -0.2155 C.ar      1 <0>         0.4277
     17 N3          1.0937    2.0290   -0.2163 N.ar      1 <0>        -0.5808
     18 N4          2.5608   -3.9699    0.8351 N.pl3     1 <0>        -0.6998
     19 C14         1.3480   -4.7916    0.8367 C.3       1 <0>         0.0782
     20 C15         1.7221   -6.2527    1.0938 C.3       1 <0>         0.0685
     21 H1          2.2186   -6.3358    2.0606 H         1 <0>         0.1205
     22 C16         0.4554   -7.1108    1.0955 C.3       1 <0>         0.0521
     23 H2         -0.1772   -6.8231    1.9351 H         1 <0>         0.1288
     24 C17         0.8390   -8.5860    1.2279 C.3       1 <0>         0.0533
     25 H3          1.3030   -8.7549    2.1996 H         1 <0>         0.1122
     26 C18        -0.4160   -9.4524    1.1045 C.3       1 <0>         0.0828
     27 H4         -0.8800   -9.2834    0.1328 H         1 <0>         0.1129
     28 C19        -0.0325  -10.9276    1.2370 C.3       1 <0>         0.0446
     29 O1         -1.1839  -11.7417    1.0062 O.3       1 <0>        -0.5647
     30 O2         -1.3381   -9.1052    2.1395 O.3       1 <0>        -0.5414
     31 O3          1.7611   -8.9332    0.1929 O.3       1 <0>        -0.5294
     32 O4         -0.2564   -6.9117   -0.1275 O.3       1 <0>        -0.5404
     33 O5          2.6038   -6.7068    0.0650 O.3       1 <0>        -0.5324
     34 H5          1.3327    6.2103    0.8653 H         1 <0>         0.1448
     35 H6          1.5159    3.7620    1.0368 H         1 <0>         0.1420
     36 H7          5.1084    3.8769   -1.2807 H         1 <0>         0.1389
     37 H8          3.0277    7.4896   -0.3778 H         1 <0>         0.1430
     38 H9          4.3020    1.8556    0.0458 H         1 <0>         0.4244
     39 H10         4.5026   -0.0158    0.4344 H         1 <0>         0.1970
     40 H11         0.3360   -2.6356    0.4110 H         1 <0>         0.1903
     41 H12        -0.9530    1.7814   -0.3892 H         1 <0>         0.2218
     42 H13         3.4261   -4.3821    0.9840 H         1 <0>         0.4211
     43 H14         0.6755   -4.4452    1.6214 H         1 <0>         0.0992
     44 H15         0.8515   -4.7084   -0.1301 H         1 <0>         0.0993
     45 H16         0.7369  -11.1702    0.5040 H         1 <0>         0.0631
     46 H17         0.3498  -11.1149    2.2404 H         1 <0>         0.0481
     47 H18        -1.0143  -12.6913    1.0742 H         1 <0>         0.3851
     48 H19        -0.9915   -9.2307    3.0335 H         1 <0>         0.3739
     49 H20         1.4145   -8.8077   -0.7010 H         1 <0>         0.3703
     50 H21         0.2471   -7.1477   -0.9186 H         1 <0>         0.3698
     51 H22         2.2270   -6.6610   -0.8244 H         1 <0>         0.3733
     52 N5          3.6583   -1.9077    0.6351 N.ar      1 <0>        -0.5392
     53 H23         4.5576   -2.3762    0.7959 H         1 <0>         0.4736
@<TRIPOS>BOND
     1    1    6 ar
     2    1    2 ar
     3    1   34 1
     4    2    3 ar
     5    2   35 1
     6    3    4 ar
     7    3    8 1
     8    4    5 ar
     9    4   36 1
    10    5    6 ar
    11    5    7 1
    12    6   37 1
    13    8    9 1
    14    8   38 1
    15    9   17 ar
    16    9   10 ar
    17   10   14 ar
    18   10   11 ar
    19   11   39 1
    20   11   52 ar
    21   12   13 ar
    22   12   18 1
    23   12   52 ar
    24   13   14 ar
    25   13   40 1
    26   14   15 ar
    27   15   16 ar
    28   16   17 ar
    29   16   41 1
    30   18   19 1
    31   18   42 1
    32   19   20 1
    33   19   43 1
    34   19   44 1
    35   20   21 1
    36   20   22 1
    37   20   33 1
    38   22   23 1
    39   22   24 1
    40   22   32 1
    41   24   25 1
    42   24   26 1
    43   24   31 1
    44   26   27 1
    45   26   28 1
    46   26   30 1
    47   28   29 1
    48   28   45 1
    49   28   46 1
    50   29   47 1
    51   30   48 1
    52   31   49 1
    53   32   50 1
    54   33   51 1
    55   52   53 1
@<TRIPOS>MOLECULE
ZINC04617789
   53    55     0     0     0
SMALL
USER_CHARGES

@<TRIPOS>ATOM
      1 C1          4.6093   -0.7479   13.8532 C.ar      1 <0>        -0.0915
      2 C2          4.1532   -0.3150   12.6233 C.ar      1 <0>        -0.0825
      3 C3          2.7983   -0.3794   12.3244 C.ar      1 <0>         0.1213
      4 C4          1.9050   -0.8740   13.2662 C.ar      1 <0>        -0.1022
      5 C5          2.3680   -1.3098   14.4929 C.ar      1 <0>        -0.0755
      6 C6          3.7189   -1.2445   14.7869 C.ar      1 <0>        -0.0827
      7 Br1         1.1542   -1.9894   15.7737 Br        1 <0>        -0.0267
      8 N1          2.3340    0.0578   11.0805 N.pl3     1 <0>        -0.6085
      9 C7          3.1033   -0.1310    9.9523 C.ar      1 <0>         0.5204
     10 C8          2.7109    0.4087    8.7055 C.ar      1 <0>        -0.2631
     11 C9          1.5403    1.1526    8.5387 C.ar      1 <0>         0.2671
     12 C10         1.9871    1.4336    6.2794 C.ar      1 <0>         0.4359
     13 C11         3.1635    0.7098    6.3472 C.ar      1 <0>        -0.1943
     14 C12         3.5495    0.1774    7.5826 C.ar      1 <0>         0.3056
     15 N2          4.6698   -0.5368    7.7476 N.ar      1 <0>        -0.5555
     16 C13         4.9832   -1.0134    8.9307 C.ar      1 <0>         0.4278
     17 N3          4.2346   -0.8245   10.0051 N.ar      1 <0>        -0.5808
     18 N4          1.5895    1.9689    5.0610 N.pl3     1 <0>        -0.7001
     19 C14         2.4133    1.7638    3.8671 C.3       1 <0>         0.0772
     20 C15         1.7549    2.4509    2.6690 C.3       1 <0>         0.0703
     21 H1          0.7327    2.0889    2.5592 H         1 <0>         0.1193
     22 C16         2.5477    2.1329    1.3997 C.3       1 <0>         0.0551
     23 H2          3.5699    2.4950    1.5095 H         1 <0>         0.1231
     24 C17         1.8893    2.8200    0.2016 C.3       1 <0>         0.0527
     25 H3          1.9570    3.9014    0.3206 H         1 <0>         0.1182
     26 C18         2.6069    2.4025   -1.0835 C.3       1 <0>         0.0832
     27 H4          2.5392    1.3211   -1.2025 H         1 <0>         0.1135
     28 C19         1.9485    3.0895   -2.2816 C.3       1 <0>         0.0444
     29 O1          2.5418    2.6111   -3.4903 O.3       1 <0>        -0.5645
     30 O2          3.9808    2.7884   -1.0089 O.3       1 <0>        -0.5406
     31 O3          0.5154    2.4341    0.1270 O.3       1 <0>        -0.5443
     32 O4          2.5629    0.7196    1.1891 O.3       1 <0>        -0.5394
     33 O5          1.7397    3.8642    2.8796 O.3       1 <0>        -0.5449
     34 H5          5.6627   -0.6979   14.0858 H         1 <0>         0.1448
     35 H6          4.8496    0.0728   11.8946 H         1 <0>         0.1420
     36 H7          0.8503   -0.9212   13.0385 H         1 <0>         0.1389
     37 H8          4.0781   -1.5819   15.7479 H         1 <0>         0.1430
     38 H9          1.4704    0.4941   11.0112 H         1 <0>         0.4244
     39 H10         0.8929    1.3369    9.3832 H         1 <0>         0.1971
     40 H11         3.7704    0.5586    5.4668 H         1 <0>         0.1902
     41 H12         5.8939   -1.5853    9.0312 H         1 <0>         0.2219
     42 H13         0.7664    2.4785    5.0007 H         1 <0>         0.4206
     43 H14         2.5053    0.6961    3.6681 H         1 <0>         0.1069
     44 H15         3.4032    2.1895    4.0312 H         1 <0>         0.0931
     45 H16         0.8816    2.8663   -2.2873 H         1 <0>         0.0628
     46 H17         2.0938    4.1673   -2.2073 H         1 <0>         0.0488
     47 H18         2.1722    3.0047   -4.2925 H         1 <0>         0.3852
     48 H19         4.1168    3.7398   -0.9024 H         1 <0>         0.3739
     49 H20         0.3794    1.4827    0.0205 H         1 <0>         0.3750
     50 H21         1.6850    0.3283    1.0827 H         1 <0>         0.3755
     51 H22         2.6175    4.2555    2.9860 H         1 <0>         0.3833
     52 N5          1.1582    1.6798    7.3474 N.ar      1 <0>        -0.5392
     53 H23         0.2979    2.2316    7.2499 H         1 <0>         0.4736
@<TRIPOS>BOND
     1    1    6 ar
     2    1    2 ar
     3    1   34 1
     4    2    3 ar
     5    2   35 1
     6    3    4 ar
     7    3    8 1
     8    4    5 ar
     9    4   36 1
    10    5    6 ar
    11    5    7 1
    12    6   37 1
    13    8    9 1
    14    8   38 1
    15    9   17 ar
    16    9   10 ar
    17   10   14 ar
    18   10   11 ar
    19   11   39 1
    20   11   52 ar
    21   12   13 ar
    22   12   18 1
    23   12   52 ar
    24   13   14 ar
    25   13   40 1
    26   14   15 ar
    27   15   16 ar
    28   16   17 ar
    29   16   41 1
    30   18   19 1
    31   18   42 1
    32   19   20 1
    33   19   43 1
    34   19   44 1
    35   20   21 1
    36   20   22 1
    37   20   33 1
    38   22   23 1
    39   22   24 1
    40   22   32 1
    41   24   25 1
    42   24   26 1
    43   24   31 1
    44   26   27 1
    45   26   28 1
    46   26   30 1
    47   28   29 1
    48   28   45 1
    49   28   46 1
    50   29   47 1
    51   30   48 1
    52   31   49 1
    53   32   50 1
    54   33   51 1
    55   52   53 1
@<TRIPOS>MOLECULE
ZINC04617792
   43    46     0     0     0
SMALL
USER_CHARGES

@<TRIPOS>ATOM
      1 C1         -3.3461    4.2206   -3.6731 C.3       1 <0>         0.0223
      2 O1         -3.5162    3.7211   -5.0011 O.3       1 <0>        -0.3008
      3 C2         -3.0791    2.4569   -5.2458 C.ar      1 <0>         0.1043
      4 C3         -2.5086    1.7325   -4.2380 C.ar      1 <0>        -0.1430
      5 C4         -2.0637    0.4287   -4.4873 C.ar      1 <0>        -0.1913
      6 C5         -2.1961   -0.1270   -5.7840 C.ar      1 <0>         0.2030
      7 C6         -2.7834    0.6336   -6.8022 C.ar      1 <0>        -0.1858
      8 C7         -3.2186    1.9116   -6.5297 C.ar      1 <0>         0.1627
      9 O2         -3.7889    2.6519   -7.5158 O.3       1 <0>        -0.2982
     10 C8         -3.9024    2.0409   -8.8026 C.3       1 <0>         0.0206
     11 N1         -1.7554   -1.3767   -5.9980 N.ar      1 <0>        -0.5522
     12 C9         -1.2088   -2.0650   -5.0244 C.ar      1 <0>         0.3473
     13 N2         -1.0597   -1.5856   -3.7996 N.ar      1 <0>        -0.5947
     14 C10        -1.4606   -0.3622   -3.4804 C.ar      1 <0>         0.4781
     15 N3         -1.2993    0.1243   -2.1996 N.pl3     1 <0>        -0.6691
     16 C11        -0.6780   -0.7134   -1.1707 C.3       1 <0>         0.1050
     17 H1         -0.2290   -1.6405   -1.5270 H         1 <0>         0.1522
     18 C12        -1.3280   -0.7298    0.2143 C.3       1 <0>        -0.1847
     19 C13         0.0021   -0.0041    0.0020 C.3       1 <0>        -0.1289
     20 H2          0.8987   -0.4644    0.4170 H         1 <0>         0.1256
     21 C14        -0.0184    1.5028    0.0103 C.ar      1 <0>        -0.0498
     22 C15        -1.2248    2.1776    0.0197 C.ar      1 <0>        -0.1412
     23 C16        -1.2435    3.5598    0.0322 C.ar      1 <0>        -0.1143
     24 C17        -0.0559    4.2672    0.0251 C.ar      1 <0>        -0.1232
     25 C18         1.1505    3.5924    0.0100 C.ar      1 <0>        -0.1108
     26 C19         1.1693    2.2102    0.0028 C.ar      1 <0>        -0.1102
     27 H3         -3.8865    3.5833   -2.9732 H         1 <0>         0.0556
     28 H4         -2.2862    4.2228   -3.4187 H         1 <0>         0.0567
     29 H5         -3.7359    5.2369   -3.6145 H         1 <0>         0.1061
     30 H6         -2.4058    2.1617   -3.2523 H         1 <0>         0.1357
     31 H7         -2.8940    0.2213   -7.7943 H         1 <0>         0.1548
     32 H8         -2.9099    1.7793   -9.1694 H         1 <0>         0.0616
     33 H9         -4.5101    1.1394   -8.7244 H         1 <0>         0.0617
     34 H10        -4.3738    2.7379   -9.4954 H         1 <0>         0.1065
     35 H11        -0.8647   -3.0675   -5.2313 H         1 <0>         0.1955
     36 H12        -1.5972    1.0210   -1.9802 H         1 <0>         0.4105
     37 H13        -1.3066   -1.6677    0.7692 H         1 <0>         0.1123
     38 H14        -2.2179   -0.1174    0.3599 H         1 <0>         0.1008
     39 H15        -2.1527    1.6249    0.0211 H         1 <0>         0.1216
     40 H16        -2.1860    4.0870    0.0437 H         1 <0>         0.1241
     41 H17        -0.0705    5.3471    0.0311 H         1 <0>         0.1240
     42 H18         2.0784    4.1450    0.0041 H         1 <0>         0.1249
     43 H19         2.1118    1.6830   -0.0091 H         1 <0>         0.1244
@<TRIPOS>BOND
     1    1    2 1
     2    1   27 1
     3    1   28 1
     4    1   29 1
     5    2    3 1
     6    3    8 ar
     7    3    4 ar
     8    4    5 ar
     9    4   30 1
    10    5   14 ar
    11    5    6 ar
    12    6    7 ar
    13    6   11 ar
    14    7    8 ar
    15    7   31 1
    16    8    9 1
    17    9   10 1
    18   10   32 1
    19   10   33 1
    20   10   34 1
    21   11   12 ar
    22   12   13 ar
    23   12   35 1
    24   13   14 ar
    25   14   15 1
    26   15   16 1
    27   15   36 1
    28   16   17 1
    29   16   19 1
    30   16   18 1
    31   18   19 1
    32   18   37 1
    33   18   38 1
    34   19   20 1
    35   19   21 1
    36   21   26 ar
    37   21   22 ar
    38   22   23 ar
    39   22   39 1
    40   23   24 ar
    41   23   40 1
    42   24   25 ar
    43   24   41 1
    44   25   26 ar
    45   25   42 1
    46   26   43 1
@<TRIPOS>MOLECULE
ZINC04617793
   43    46     0     0     0
SMALL
USER_CHARGES

@<TRIPOS>ATOM
      1 C1          3.4498    3.5729   -0.0091 C.3       1 <0>         0.0226
      2 O1          3.5429    2.1470   -0.0176 O.3       1 <0>        -0.3013
      3 C2          2.3741    1.4520   -0.0107 C.ar      1 <0>         0.1044
      4 C3          1.1867    2.1273    0.0022 C.ar      1 <0>        -0.1436
      5 C4         -0.0171    1.4127    0.0098 C.ar      1 <0>        -0.1908
      6 C5          0.0021   -0.0041    0.0020 C.ar      1 <0>         0.2024
      7 C6          1.2305   -0.6756   -0.0123 C.ar      1 <0>        -0.1854
      8 C7          2.4009    0.0505   -0.0185 C.ar      1 <0>         0.1625
      9 O2          3.5942   -0.5986   -0.0328 O.3       1 <0>        -0.2983
     10 C8          3.5557   -2.0270   -0.0406 C.3       1 <0>         0.0205
     11 N1         -1.1664   -0.6647    0.0096 N.ar      1 <0>        -0.5514
     12 C9         -2.3016   -0.0078    0.0239 C.ar      1 <0>         0.3475
     13 N2         -2.3683    1.3142    0.0317 N.ar      1 <0>        -0.5934
     14 C10        -1.2738    2.0634    0.0312 C.ar      1 <0>         0.4782
     15 N3         -1.3582    3.4403    0.0397 N.pl3     1 <0>        -0.6706
     16 C11        -2.6692    4.0937    0.0618 C.3       1 <0>         0.1051
     17 H1         -3.5251    3.4356   -0.0880 H         1 <0>         0.1488
     18 C12        -2.8497    5.2834    1.0069 C.3       1 <0>        -0.1844
     19 C13        -2.7610    5.5126   -0.5033 C.3       1 <0>        -0.1232
     20 H2         -1.8460    5.9599   -0.8915 H         1 <0>         0.1149
     21 C14        -4.0280    5.8935   -1.2248 C.ar      1 <0>        -0.0530
     22 C15        -5.2411    5.8452   -0.5638 C.ar      1 <0>        -0.1187
     23 C16        -6.4028    6.1984   -1.2246 C.ar      1 <0>        -0.1153
     24 C17        -6.3524    6.5921   -2.5487 C.ar      1 <0>        -0.1220
     25 C18        -5.1399    6.6354   -3.2113 C.ar      1 <0>        -0.1168
     26 C19        -3.9778    6.2860   -2.5494 C.ar      1 <0>        -0.1118
     27 H3          4.4516    4.0025   -0.0159 H         1 <0>         0.1060
     28 H4          2.9054    3.9068   -0.8924 H         1 <0>         0.0563
     29 H5          2.9215    3.8972    0.8874 H         1 <0>         0.0563
     30 H6          1.1768    3.2072    0.0081 H         1 <0>         0.1375
     31 H7          1.2602   -1.7552   -0.0187 H         1 <0>         0.1547
     32 H8          3.0402   -2.3815    0.8520 H         1 <0>         0.0618
     33 H9          3.0244   -2.3713   -0.9279 H         1 <0>         0.0617
     34 H10         4.5732   -2.4179   -0.0519 H         1 <0>         0.1066
     35 H11        -3.2233   -0.5708    0.0293 H         1 <0>         0.1954
     36 H12        -0.5494    3.9759    0.0310 H         1 <0>         0.4100
     37 H13        -3.8245    5.4081    1.4785 H         1 <0>         0.1105
     38 H14        -1.9932    5.5796    1.6124 H         1 <0>         0.1023
     39 H15        -5.2809    5.5343    0.4697 H         1 <0>         0.1242
     40 H16        -7.3501    6.1641   -0.7071 H         1 <0>         0.1236
     41 H17        -7.2603    6.8655   -3.0658 H         1 <0>         0.1225
     42 H18        -5.1006    6.9427   -4.2459 H         1 <0>         0.1230
     43 H19        -3.0305    6.3198   -3.0670 H         1 <0>         0.1205
@<TRIPOS>BOND
     1    1    2 1
     2    1   27 1
     3    1   28 1
     4    1   29 1
     5    2    3 1
     6    3    8 ar
     7    3    4 ar
     8    4    5 ar
     9    4   30 1
    10    5   14 ar
    11    5    6 ar
    12    6    7 ar
    13    6   11 ar
    14    7    8 ar
    15    7   31 1
    16    8    9 1
    17    9   10 1
    18   10   32 1
    19   10   33 1
    20   10   34 1
    21   11   12 ar
    22   12   13 ar
    23   12   35 1
    24   13   14 ar
    25   14   15 1
    26   15   16 1
    27   15   36 1
    28   16   17 1
    29   16   19 1
    30   16   18 1
    31   18   19 1
    32   18   37 1
    33   18   38 1
    34   19   20 1
    35   19   21 1
    36   21   26 ar
    37   21   22 ar
    38   22   23 ar
    39   22   39 1
    40   23   24 ar
    41   23   40 1
    42   24   25 ar
    43   24   41 1
    44   25   26 ar
    45   25   42 1
    46   26   43 1
@<TRIPOS>MOLECULE
ZINC04617794
   43    46     0     0     0
SMALL
USER_CHARGES

@<TRIPOS>ATOM
      1 C1          2.4794   -2.7187   -0.0349 C.3       1 <0>         0.0224
      2 O1          1.2096   -2.0634   -0.0197 O.3       1 <0>        -0.3008
      3 C2          1.2168   -0.7035   -0.0129 C.ar      1 <0>         0.1043
      4 C3          2.4075   -0.0343   -0.0211 C.ar      1 <0>        -0.1429
      5 C4          2.4160    1.3657   -0.0140 C.ar      1 <0>        -0.1913
      6 C5          1.1922    2.0796    0.0018 C.ar      1 <0>         0.2030
      7 C6         -0.0166    1.3732    0.0096 C.ar      1 <0>        -0.1858
      8 C7          0.0021   -0.0041    0.0020 C.ar      1 <0>         0.1628
      9 O2         -1.1693   -0.6920    0.0095 O.3       1 <0>        -0.2981
     10 C8         -2.3734    0.0774    0.0252 C.3       1 <0>         0.0206
     11 N1          1.2286    3.4214    0.0073 N.ar      1 <0>        -0.5521
     12 C9          2.3767    4.0555   -0.0010 C.ar      1 <0>         0.3473
     13 N2          3.5438    3.4312   -0.0154 N.ar      1 <0>        -0.5947
     14 C10         3.6215    2.1071   -0.0224 C.ar      1 <0>         0.4781
     15 N3          4.8449    1.4696   -0.0379 N.pl3     1 <0>        -0.6690
     16 C11         6.0807    2.2562   -0.0463 C.3       1 <0>         0.1051
     17 H1          5.9546    3.3282   -0.1982 H         1 <0>         0.1522
     18 C12         7.2137    1.8019    0.8762 C.3       1 <0>        -0.1849
     19 C13         7.3312    1.6010   -0.6360 C.3       1 <0>        -0.1288
     20 H2          8.0281    2.2418   -1.1762 H         1 <0>         0.1255
     21 C14         7.1974    0.1957   -1.1637 C.ar      1 <0>        -0.0501
     22 C15         6.8070   -0.8258   -0.3182 C.ar      1 <0>        -0.1408
     23 C16         6.6800   -2.1140   -0.8033 C.ar      1 <0>        -0.1146
     24 C17         6.9521   -2.3823   -2.1318 C.ar      1 <0>        -0.1230
     25 C18         7.3476   -1.3617   -2.9761 C.ar      1 <0>        -0.1109
     26 C19         7.4704   -0.0727   -2.4920 C.ar      1 <0>        -0.1100
     27 H3          3.0462   -2.4333    0.8513 H         1 <0>         0.0556
     28 H4          2.3309   -3.7985   -0.0390 H         1 <0>         0.1061
     29 H5          3.0296   -2.4242   -0.9286 H         1 <0>         0.0567
     30 H6          3.3380   -0.5825   -0.0325 H         1 <0>         0.1358
     31 H7         -0.9569    1.9043    0.0169 H         1 <0>         0.1548
     32 H8         -2.4114    0.7108   -0.8611 H         1 <0>         0.0616
     33 H9         -3.2329   -0.5929    0.0298 H         1 <0>         0.1065
     34 H10        -2.3944    0.7013    0.9187 H         1 <0>         0.0617
     35 H11         2.3695    5.1355    0.0045 H         1 <0>         0.1955
     36 H12         4.8867    0.5005   -0.0432 H         1 <0>         0.4105
     37 H13         7.8332    2.5750    1.3308 H         1 <0>         0.1123
     38 H14         7.0395    0.9177    1.4893 H         1 <0>         0.1009
     39 H15         6.5980   -0.6169    0.7206 H         1 <0>         0.1218
     40 H16         6.3707   -2.9114   -0.1437 H         1 <0>         0.1240
     41 H17         6.8555   -3.3892   -2.5101 H         1 <0>         0.1240
     42 H18         7.5602   -1.5713   -4.0140 H         1 <0>         0.1249
     43 H19         7.7794    0.7247   -3.1516 H         1 <0>         0.1244
@<TRIPOS>BOND
     1    1    2 1
     2    1   27 1
     3    1   28 1
     4    1   29 1
     5    2    3 1
     6    3    8 ar
     7    3    4 ar
     8    4    5 ar
     9    4   30 1
    10    5   14 ar
    11    5    6 ar
    12    6    7 ar
    13    6   11 ar
    14    7    8 ar
    15    7   31 1
    16    8    9 1
    17    9   10 1
    18   10   32 1
    19   10   33 1
    20   10   34 1
    21   11   12 ar
    22   12   13 ar
    23   12   35 1
    24   13   14 ar
    25   14   15 1
    26   15   16 1
    27   15   36 1
    28   16   17 1
    29   16   19 1
    30   16   18 1
    31   18   19 1
    32   18   37 1
    33   18   38 1
    34   19   20 1
    35   19   21 1
    36   21   26 ar
    37   21   22 ar
    38   22   23 ar
    39   22   39 1
    40   23   24 ar
    41   23   40 1
    42   24   25 ar
    43   24   41 1
    44   25   26 ar
    45   25   42 1
    46   26   43 1
@<TRIPOS>MOLECULE
ZINC04617795
   42    45     0     0     0
SMALL
USER_CHARGES

@<TRIPOS>ATOM
      1 C1          6.0147    6.0559   -0.4014 C.ar      1 <0>        -0.0931
      2 C2          4.8020    5.4021   -0.4998 C.ar      1 <0>        -0.0910
      3 C3          3.6731    5.9401    0.1048 C.ar      1 <0>         0.1561
      4 C4          3.7665    7.1380    0.8021 C.ar      1 <0>        -0.1173
      5 C5          4.9835    7.7847    0.9009 C.ar      1 <0>        -0.0722
      6 C6          6.1061    7.2452    0.2975 C.ar      1 <0>        -0.1022
      7 Br1         5.1137    9.4121    1.8552 Br        1 <0>        -0.0438
      8 N1          2.4446    5.2806    0.0070 N.pl3     1 <0>        -0.6363
      9 C7          2.4000    3.9028    0.0076 C.ar      1 <0>         0.4855
     10 C8          1.1791    3.2131   -0.2122 C.ar      1 <0>        -0.2171
     11 C9         -0.0148    3.8933   -0.4357 C.ar      1 <0>         0.0220
     12 C10        -1.1835    3.1695   -0.6452 C.ar      1 <0>        -0.1791
     13 C11        -2.5714    3.5534   -0.9022 C.2       1 <0>         0.0937
     14 N2         -3.2703    2.4632   -1.0231 N.2       1 <0>        -0.2393
     15 N3         -2.4513    1.3412   -0.8655 N.pl3     1 <0>        -0.4371
     16 C12        -1.1611    1.7539   -0.6370 C.ar      1 <0>         0.1792
     17 C13         0.0235    1.0755   -0.4099 C.ar      1 <0>        -0.1498
     18 C14         1.2011    1.7924   -0.1987 C.ar      1 <0>         0.2234
     19 N4          2.3728    1.1698    0.0208 N.ar      1 <0>        -0.5531
     20 C15         3.4680    1.8622    0.2175 C.ar      1 <0>         0.3609
     21 N5          3.4962    3.1864    0.2138 N.ar      1 <0>        -0.5948
     22 C16        -2.8969   -0.0525   -0.9379 C.3       1 <0>         0.3619
     23 H1         -2.0309   -0.7058   -1.0448 H         1 <0>         0.1331
     24 C17        -3.6531   -0.4134    0.3422 C.3       1 <0>        -0.1634
     25 C18        -4.0100   -1.9010    0.3216 C.3       1 <0>         0.0817
     26 O1         -4.7163   -2.2381    1.5172 O.3       1 <0>        -0.5738
     27 O2         -3.7606   -0.2185   -2.0642 O.3       1 <0>        -0.5468
     28 H2          6.8926    5.6377   -0.8714 H         1 <0>         0.1376
     29 H3          4.7316    4.4730   -1.0460 H         1 <0>         0.1416
     30 H4          2.8897    7.5612    1.2695 H         1 <0>         0.1352
     31 H5          7.0555    7.7546    0.3725 H         1 <0>         0.1352
     32 H6          1.6235    5.7924   -0.0613 H         1 <0>         0.4223
     33 H7         -0.0331    4.9731   -0.4467 H         1 <0>         0.1369
     34 H8         -2.9486    4.5625   -0.9784 H         1 <0>         0.2049
     35 H9          0.0369   -0.0043   -0.4006 H         1 <0>         0.1419
     36 H10         4.3906    1.3281    0.3906 H         1 <0>         0.1985
     37 H11        -3.0244   -0.2025    1.2073 H         1 <0>         0.0864
     38 H12        -4.5663    0.1785    0.4038 H         1 <0>         0.0858
     39 H13        -4.6387   -2.1119   -0.5435 H         1 <0>         0.0578
     40 H14        -3.0968   -2.4929    0.2599 H         1 <0>         0.0504
     41 H15        -4.9749   -3.1683    1.5723 H         1 <0>         0.3859
     42 H16        -4.5540    0.3336   -2.0362 H         1 <0>         0.3922
@<TRIPOS>BOND
     1    1    6 ar
     2    1    2 ar
     3    1   28 1
     4    2    3 ar
     5    2   29 1
     6    3    4 ar
     7    3    8 1
     8    4    5 ar
     9    4   30 1
    10    5    6 ar
    11    5    7 1
    12    6   31 1
    13    8    9 1
    14    8   32 1
    15    9   21 ar
    16    9   10 ar
    17   10   18 ar
    18   10   11 ar
    19   11   12 ar
    20   11   33 1
    21   12   16 ar
    22   12   13 1
    23   13   14 2
    24   13   34 1
    25   14   15 1
    26   15   16 1
    27   15   22 1
    28   16   17 ar
    29   17   18 ar
    30   17   35 1
    31   18   19 ar
    32   19   20 ar
    33   20   21 ar
    34   20   36 1
    35   22   23 1
    36   22   24 1
    37   22   27 1
    38   24   25 1
    39   24   37 1
    40   24   38 1
    41   25   26 1
    42   25   39 1
    43   25   40 1
    44   26   41 1
    45   27   42 1
@<TRIPOS>MOLECULE
ZINC04617797
   61    64     0     0     0
SMALL
USER_CHARGES

@<TRIPOS>ATOM
      1 C1          5.0909   13.5645   -4.1448 C.3       1 <0>        -0.0429
      2 C2          5.3074   11.2737   -3.3912 C.3       1 <0>        -0.0476
      3 C3          4.2888   12.9312   -1.9498 C.3       1 <0>        -0.0053
      4 C4          3.4437   11.8948   -1.2064 C.3       1 <0>        -0.1481
      5 C5          3.2330   12.3503    0.2389 C.3       1 <0>        -0.1176
      6 C6          2.3880   11.3139    0.9823 C.3       1 <0>         0.0552
      7 O1          2.1912   11.7394    2.3322 O.3       1 <0>        -0.2986
      8 C7          1.4553   10.9251    3.1351 C.ar      1 <0>         0.1015
      9 C8          0.9459    9.7617    2.6323 C.ar      1 <0>        -0.1393
     10 C9          0.1890    8.9222    3.4584 C.ar      1 <0>        -0.1943
     11 C10        -0.0447    9.2830    4.8085 C.ar      1 <0>         0.2069
     12 C11         0.4866   10.4804    5.3027 C.ar      1 <0>        -0.1808
     13 C12         1.2279   11.2889    4.4696 C.ar      1 <0>         0.1620
     14 O2          1.7445   12.4513    4.9465 O.3       1 <0>        -0.3003
     15 C13         1.4784   12.7664    6.3147 C.3       1 <0>         0.0195
     16 N1         -0.7741    8.4604    5.5786 N.ar      1 <0>        -0.5492
     17 C14        -1.2592    7.3452    5.0871 C.ar      1 <0>         0.3540
     18 N2         -1.0710    6.9700    3.8318 N.ar      1 <0>        -0.5897
     19 C15        -0.3611    7.7063    2.9873 C.ar      1 <0>         0.4778
     20 N3         -0.1690    7.3006    1.6828 N.pl3     1 <0>        -0.6709
     21 C16        -0.7473    6.0382    1.2156 C.3       1 <0>         0.1038
     22 H1         -1.1777    5.4031    1.9898 H         1 <0>         0.1499
     23 C17        -1.4237    6.0362   -0.1568 C.3       1 <0>        -0.1841
     24 C18        -0.0705    5.3471    0.0302 C.3       1 <0>        -0.1192
     25 H2          0.8050    5.8314   -0.4024 H         1 <0>         0.1114
     26 C19        -0.0501    3.8402    0.0223 C.ar      1 <0>        -0.0579
     27 C20         1.1563    3.1654    0.0076 C.ar      1 <0>        -0.1129
     28 C21         1.1750    1.7832    0.0004 C.ar      1 <0>        -0.1165
     29 C22        -0.0126    1.0758    0.0080 C.ar      1 <0>        -0.1189
     30 C23        -1.2190    1.7506    0.0173 C.ar      1 <0>        -0.1133
     31 C24        -1.2377    3.1328    0.0303 C.ar      1 <0>        -0.1181
     32 H3          6.0563   13.8414   -3.7214 H         1 <0>         0.1237
     33 H4          5.2297   13.2141   -5.1675 H         1 <0>         0.1233
     34 H5          4.4316   14.4325   -4.1445 H         1 <0>         0.1223
     35 H6          4.8056   10.4763   -2.8430 H         1 <0>         0.1213
     36 H7          5.4417   10.9718   -4.4299 H         1 <0>         0.1234
     37 H8          6.2808   11.4677   -2.9405 H         1 <0>         0.1242
     38 H9          3.7741   13.8920   -1.9430 H         1 <0>         0.1323
     39 H10         5.2554   13.0333   -1.4564 H         1 <0>         0.1340
     40 H11         3.9584   10.9339   -1.2132 H         1 <0>         0.0904
     41 H12         2.4771   11.7927   -1.6998 H         1 <0>         0.0904
     42 H13         2.7184   13.3112    0.2457 H         1 <0>         0.0886
     43 H14         4.1996   12.4524    0.7323 H         1 <0>         0.0883
     44 H15         2.9026   10.3531    0.9755 H         1 <0>         0.0647
     45 H16         1.4214   11.2118    0.4889 H         1 <0>         0.0650
     46 H17         1.1268    9.4903    1.6028 H         1 <0>         0.1334
     47 H18         0.3167   10.7679    6.3297 H         1 <0>         0.1572
     48 H19         1.9469   13.7180    6.5661 H         1 <0>         0.1083
     49 H20         0.4017   12.8399    6.4678 H         1 <0>         0.0636
     50 H21         1.8836   11.9819    6.9537 H         1 <0>         0.0636
     51 H22        -1.8417    6.7066    5.7346 H         1 <0>         0.1987
     52 H23         0.3491    7.8511    1.0750 H         1 <0>         0.4064
     53 H24        -1.4384    6.9741   -0.7120 H         1 <0>         0.1000
     54 H25        -2.2991    5.3997   -0.2855 H         1 <0>         0.1121
     55 H26         2.0841    3.7181    0.0014 H         1 <0>         0.1184
     56 H27         2.1175    1.2560   -0.0115 H         1 <0>         0.1236
     57 H28         0.0021   -0.0041    0.0020 H         1 <0>         0.1244
     58 H29        -2.1469    1.1980    0.0188 H         1 <0>         0.1254
     59 H30        -2.1802    3.6600    0.0422 H         1 <0>         0.1244
     60 N4          4.4654   12.4877   -3.3487 N.4       1 <0>        -0.3987
     61 H31         3.5450   12.2693   -3.7480 H         1 <0>         0.4311
@<TRIPOS>BOND
     1    1   32 1
     2    1   33 1
     3    1   34 1
     4    1   60 1
     5    2   35 1
     6    2   36 1
     7    2   37 1
     8    2   60 1
     9    3    4 1
    10    3   38 1
    11    3   39 1
    12    3   60 1
    13    4    5 1
    14    4   40 1
    15    4   41 1
    16    5    6 1
    17    5   42 1
    18    5   43 1
    19    6    7 1
    20    6   44 1
    21    6   45 1
    22    7    8 1
    23    8   13 ar
    24    8    9 ar
    25    9   10 ar
    26    9   46 1
    27   10   19 ar
    28   10   11 ar
    29   11   12 ar
    30   11   16 ar
    31   12   13 ar
    32   12   47 1
    33   13   14 1
    34   14   15 1
    35   15   48 1
    36   15   49 1
    37   15   50 1
    38   16   17 ar
    39   17   18 ar
    40   17   51 1
    41   18   19 ar
    42   19   20 1
    43   20   21 1
    44   20   52 1
    45   21   22 1
    46   21   24 1
    47   21   23 1
    48   23   24 1
    49   23   53 1
    50   23   54 1
    51   24   25 1
    52   24   26 1
    53   26   31 ar
    54   26   27 ar
    55   27   28 ar
    56   27   55 1
    57   28   29 ar
    58   28   56 1
    59   29   30 ar
    60   29   57 1
    61   30   31 ar
    62   30   58 1
    63   31   59 1
    64   60   61 1
@<TRIPOS>MOLECULE
ZINC04617798
   61    64     0     0     0
SMALL
USER_CHARGES

@<TRIPOS>ATOM
      1 C1          4.4043   -4.9513   -1.3173 C.3       1 <0>        -0.0476
      2 C2          6.3238   -5.0397    0.1558 C.3       1 <0>        -0.0429
      3 C3          5.0569   -2.9876   -0.0601 C.3       1 <0>        -0.0052
      4 C4          3.6374   -2.4170   -0.0439 C.3       1 <0>        -0.1481
      5 C5          3.7023   -0.8884   -0.0368 C.3       1 <0>        -0.1176
      6 C6          2.2828   -0.3177   -0.0206 C.3       1 <0>         0.0551
      7 O1          2.3434    1.1100   -0.0139 O.3       1 <0>        -0.2986
      8 C7          1.1590    1.7781    0.0005 C.ar      1 <0>         0.1015
      9 C8         -0.0126    1.0758    0.0080 C.ar      1 <0>        -0.1392
     10 C9         -1.2325    1.7626    0.0175 C.ar      1 <0>        -0.1942
     11 C10        -1.2453    3.1794    0.0307 C.ar      1 <0>         0.2068
     12 C11        -0.0326    3.8790    0.0229 C.ar      1 <0>        -0.1808
     13 C12         1.1541    3.1798    0.0082 C.ar      1 <0>         0.1620
     14 O2          2.3323    3.8560    0.0005 O.3       1 <0>        -0.3003
     15 C13         2.2613    5.2832    0.0089 C.3       1 <0>         0.0195
     16 N1         -2.4284    3.8134    0.0461 N.ar      1 <0>        -0.5492
     17 C14        -3.5485    3.1310    0.0541 C.ar      1 <0>         0.3540
     18 N2         -3.5853    1.8078    0.0477 N.ar      1 <0>        -0.5897
     19 C15        -2.4741    1.0835    0.0326 C.ar      1 <0>         0.4778
     20 N3         -2.5274   -0.2950    0.0255 N.pl3     1 <0>        -0.6709
     21 C16        -3.8234   -0.9780    0.0348 C.3       1 <0>         0.1037
     22 H1         -4.6932   -0.3378   -0.1124 H         1 <0>         0.1499
     23 C17        -3.9810   -2.1816    0.9661 C.3       1 <0>        -0.1841
     24 C18        -3.8808   -2.3923   -0.5460 C.3       1 <0>        -0.1192
     25 H2         -2.9543   -2.8144   -0.9353 H         1 <0>         0.1114
     26 C19        -5.1357   -2.7938   -1.2773 C.ar      1 <0>        -0.0578
     27 C20        -6.3508   -2.7909   -0.6181 C.ar      1 <0>        -0.1181
     28 C21        -7.5025   -3.1554   -1.2900 C.ar      1 <0>        -0.1133
     29 C22        -7.4380   -3.5309   -2.6188 C.ar      1 <0>        -0.1190
     30 C23        -6.2222   -3.5389   -3.2766 C.ar      1 <0>        -0.1165
     31 C24        -5.0710   -3.1706   -2.6057 C.ar      1 <0>        -0.1129
     32 H3          5.0115   -4.6233   -2.1610 H         1 <0>         0.1242
     33 H4          4.3701   -6.0406   -1.2959 H         1 <0>         0.1234
     34 H5          3.3931   -4.5581   -1.4228 H         1 <0>         0.1212
     35 H6          6.7082   -4.7107    1.1212 H         1 <0>         0.1222
     36 H7          6.2490   -6.1270    0.1459 H         1 <0>         0.1233
     37 H8          7.0006   -4.7149   -0.6345 H         1 <0>         0.1237
     38 H9          5.5773   -2.6419   -0.9533 H         1 <0>         0.1340
     39 H10         5.5940   -2.6509    0.8266 H         1 <0>         0.1323
     40 H11         3.1170   -2.7627    0.8492 H         1 <0>         0.0904
     41 H12         3.1003   -2.7537   -0.9306 H         1 <0>         0.0904
     42 H13         4.2227   -0.5426   -0.9299 H         1 <0>         0.0883
     43 H14         4.2394   -0.5516    0.8499 H         1 <0>         0.0885
     44 H15         1.7623   -0.6635    0.8726 H         1 <0>         0.0650
     45 H16         1.7457   -0.6545   -0.9073 H         1 <0>         0.0647
     46 H17         0.0021   -0.0041    0.0020 H         1 <0>         0.1334
     47 H18        -0.0275    4.9589    0.0279 H         1 <0>         0.1572
     48 H19         3.2696    5.6972    0.0014 H         1 <0>         0.1083
     49 H20         1.7215    5.6253   -0.8741 H         1 <0>         0.0636
     50 H21         1.7386    5.6157    0.9057 H         1 <0>         0.0637
     51 H22        -4.4826    3.6729    0.0661 H         1 <0>         0.1987
     52 H23        -1.7068   -0.8120    0.0145 H         1 <0>         0.4064
     53 H24        -3.1204   -2.4652    1.5720 H         1 <0>         0.1001
     54 H25        -4.9547   -2.3334    1.4320 H         1 <0>         0.1121
     55 H26        -6.4007   -2.5008    0.4210 H         1 <0>         0.1244
     56 H27        -8.4524   -3.1495   -0.7760 H         1 <0>         0.1254
     57 H28        -8.3375   -3.8183   -3.1430 H         1 <0>         0.1244
     58 H29        -6.1718   -3.8325   -4.3147 H         1 <0>         0.1237
     59 H30        -4.1212   -3.1768   -3.1196 H         1 <0>         0.1184
     60 N4          4.9776   -4.4635   -0.0453 N.4       1 <0>        -0.3987
     61 H31         4.3701   -4.7571    0.7286 H         1 <0>         0.4311
@<TRIPOS>BOND
     1    1   32 1
     2    1   33 1
     3    1   34 1
     4    1   60 1
     5    2   35 1
     6    2   36 1
     7    2   37 1
     8    2   60 1
     9    3    4 1
    10    3   38 1
    11    3   39 1
    12    3   60 1
    13    4    5 1
    14    4   40 1
    15    4   41 1
    16    5    6 1
    17    5   42 1
    18    5   43 1
    19    6    7 1
    20    6   44 1
    21    6   45 1
    22    7    8 1
    23    8   13 ar
    24    8    9 ar
    25    9   10 ar
    26    9   46 1
    27   10   19 ar
    28   10   11 ar
    29   11   12 ar
    30   11   16 ar
    31   12   13 ar
    32   12   47 1
    33   13   14 1
    34   14   15 1
    35   15   48 1
    36   15   49 1
    37   15   50 1
    38   16   17 ar
    39   17   18 ar
    40   17   51 1
    41   18   19 ar
    42   19   20 1
    43   20   21 1
    44   20   52 1
    45   21   22 1
    46   21   24 1
    47   21   23 1
    48   23   24 1
    49   23   53 1
    50   23   54 1
    51   24   25 1
    52   24   26 1
    53   26   31 ar
    54   26   27 ar
    55   27   28 ar
    56   27   55 1
    57   28   29 ar
    58   28   56 1
    59   29   30 ar
    60   29   57 1
    61   30   31 ar
    62   30   58 1
    63   31   59 1
    64   60   61 1
@<TRIPOS>MOLECULE
ZINC04617799
   61    64     0     0     0
SMALL
USER_CHARGES

@<TRIPOS>ATOM
      1 C1          1.6075   -1.3948   -8.5983 C.3       1 <0>        -0.0481
      2 C2          2.8436   -0.3122  -10.3767 C.3       1 <0>        -0.0430
      3 C3          1.3558    0.9840   -8.9735 C.3       1 <0>        -0.0053
      4 C4          0.9800    1.2641   -7.5171 C.3       1 <0>        -0.1494
      5 C5          0.0220    2.4556   -7.4577 C.3       1 <0>        -0.1166
      6 C6         -0.3538    2.7357   -6.0013 C.3       1 <0>         0.0551
      7 O1         -1.2486    3.8485   -5.9458 O.3       1 <0>        -0.2983
      8 C7         -1.6826    4.2310   -4.7151 C.ar      1 <0>         0.1020
      9 C8         -1.2569    3.5534   -3.6081 C.ar      1 <0>        -0.1391
     10 C9         -1.7039    3.9458   -2.3407 C.ar      1 <0>        -0.1944
     11 C10        -2.5931    5.0415   -2.2130 C.ar      1 <0>         0.2072
     12 C11        -3.0162    5.7219   -3.3612 C.ar      1 <0>        -0.1813
     13 C12        -2.5619    5.3162   -4.5966 C.ar      1 <0>         0.1624
     14 O2         -2.9709    5.9746   -5.7123 O.3       1 <0>        -0.3001
     15 C13        -3.8674    7.0717   -5.5261 C.3       1 <0>         0.0194
     16 N1         -3.0065    5.3966   -0.9862 N.ar      1 <0>        -0.5493
     17 C14        -2.5931    4.7395    0.0710 C.ar      1 <0>         0.3535
     18 N2         -1.7673    3.7075   -0.0003 N.ar      1 <0>        -0.5909
     19 C15        -1.2941    3.2774   -1.1624 C.ar      1 <0>         0.4775
     20 N3         -0.4302    2.2035   -1.2215 N.pl3     1 <0>        -0.6702
     21 C16        -0.0187    1.5258    0.0104 C.3       1 <0>         0.1068
     22 H1         -0.3072    2.0201    0.9381 H         1 <0>         0.1543
     23 C17         0.0021   -0.0041    0.0020 C.3       1 <0>        -0.1826
     24 C18         1.3165    0.7789   -0.0063 C.3       1 <0>        -0.1342
     25 H2          1.9064    0.7818    0.9103 H         1 <0>         0.1283
     26 C19         2.1077    0.7967   -1.2888 C.ar      1 <0>        -0.0414
     27 C20         1.5617    0.2715   -2.4451 C.ar      1 <0>        -0.1403
     28 C21         2.2858    0.2918   -3.6225 C.ar      1 <0>        -0.1209
     29 C22         3.5594    0.8290   -3.6415 C.ar      1 <0>        -0.1290
     30 C23         4.1074    1.3494   -2.4841 C.ar      1 <0>        -0.1081
     31 C24         3.3816    1.3331   -1.3077 C.ar      1 <0>        -0.1047
     32 H3          0.7584   -1.5962   -9.2514 H         1 <0>         0.1246
     33 H4          2.3110   -2.2258   -8.6502 H         1 <0>         0.1236
     34 H5          1.2575   -1.2786   -7.5726 H         1 <0>         0.1211
     35 H6          3.3922    0.5910  -10.6439 H         1 <0>         0.1223
     36 H7          3.5209   -1.1662  -10.3909 H         1 <0>         0.1233
     37 H8          2.0393   -0.4744  -11.0942 H         1 <0>         0.1239
     38 H9          0.4554    0.7550   -9.5435 H         1 <0>         0.1342
     39 H10         1.8415    1.8623   -9.3988 H         1 <0>         0.1325
     40 H11         1.8804    1.4931   -6.9471 H         1 <0>         0.0914
     41 H12         0.4944    0.3858   -7.0918 H         1 <0>         0.0905
     42 H13        -0.8784    2.2265   -8.0277 H         1 <0>         0.0881
     43 H14         0.5076    3.3338   -7.8830 H         1 <0>         0.0885
     44 H15         0.5466    2.9647   -5.4313 H         1 <0>         0.0658
     45 H16        -0.8395    1.8574   -5.5760 H         1 <0>         0.0639
     46 H17        -0.5785    2.7193   -3.7100 H         1 <0>         0.1321
     47 H18        -3.6941    6.5586   -3.2788 H         1 <0>         0.1574
     48 H19        -3.3932    7.8259   -4.8982 H         1 <0>         0.0636
     49 H20        -4.1141    7.5076   -6.4942 H         1 <0>         0.1082
     50 H21        -4.7789    6.7183   -5.0440 H         1 <0>         0.0636
     51 H22        -2.9452    5.0522    1.0429 H         1 <0>         0.1988
     52 H23        -0.0951    1.8971   -2.0787 H         1 <0>         0.4075
     53 H24        -0.2728   -0.5162    0.9241 H         1 <0>         0.1148
     54 H25        -0.2904   -0.5063   -0.9201 H         1 <0>         0.0995
     55 H26         0.5682   -0.1516   -2.4294 H         1 <0>         0.1224
     56 H27         1.8575   -0.1145   -4.5269 H         1 <0>         0.1145
     57 H28         4.1261    0.8424   -4.5608 H         1 <0>         0.1181
     58 H29         5.1024    1.7691   -2.4989 H         1 <0>         0.1266
     59 H30         3.8098    1.7397   -0.4033 H         1 <0>         0.1281
     60 N4          2.2973   -0.1548   -9.0123 N.4       1 <0>        -0.3987
     61 H31         3.0707    0.0295   -8.3626 H         1 <0>         0.4307
@<TRIPOS>BOND
     1    1   32 1
     2    1   33 1
     3    1   34 1
     4    1   60 1
     5    2   35 1
     6    2   36 1
     7    2   37 1
     8    2   60 1
     9    3    4 1
    10    3   38 1
    11    3   39 1
    12    3   60 1
    13    4    5 1
    14    4   40 1
    15    4   41 1
    16    5    6 1
    17    5   42 1
    18    5   43 1
    19    6    7 1
    20    6   44 1
    21    6   45 1
    22    7    8 1
    23    8   13 ar
    24    8    9 ar
    25    9   10 ar
    26    9   46 1
    27   10   19 ar
    28   10   11 ar
    29   11   12 ar
    30   11   16 ar
    31   12   13 ar
    32   12   47 1
    33   13   14 1
    34   14   15 1
    35   15   48 1
    36   15   49 1
    37   15   50 1
    38   16   17 ar
    39   17   18 ar
    40   17   51 1
    41   18   19 ar
    42   19   20 1
    43   20   21 1
    44   20   52 1
    45   21   22 1
    46   21   24 1
    47   21   23 1
    48   23   24 1
    49   23   53 1
    50   23   54 1
    51   24   25 1
    52   24   26 1
    53   26   31 ar
    54   26   27 ar
    55   27   28 ar
    56   27   55 1
    57   28   29 ar
    58   28   56 1
    59   29   30 ar
    60   29   57 1
    61   30   31 ar
    62   30   58 1
    63   31   59 1
    64   60   61 1
@<TRIPOS>MOLECULE
ZINC04617801
   45    48     0     0     0
SMALL
USER_CHARGES

@<TRIPOS>ATOM
      1 C1         -1.1456    2.3025   -1.0105 C.3       1 <0>        -0.1438
      2 C2         -1.7828    2.7056    0.2943 C.2       1 <0>         0.4544
      3 O1         -2.0583    3.8640    0.4997 O.2       1 <0>        -0.4931
      4 O2         -2.0444    1.7777    1.2284 O.3       1 <0>        -0.2817
      5 C3         -2.5211    2.2209    2.4224 C.ar      1 <0>         0.0519
      6 C4         -1.6532    2.4554    3.4512 C.ar      1 <0>        -0.0313
      7 C5         -2.1427    2.9120    4.6805 C.ar      1 <0>        -0.2204
      8 C6         -3.5327    3.1283    4.8512 C.ar      1 <0>         0.2340
      9 C7         -4.4040    2.8815    3.7835 C.ar      1 <0>        -0.2051
     10 C8         -3.8968    2.4376    2.5822 C.ar      1 <0>         0.1765
     11 O3         -4.7392    2.2026    1.5429 O.3       1 <0>        -0.3029
     12 C9         -6.1298    2.4423    1.7680 C.3       1 <0>         0.0214
     13 N1         -3.9757    3.5668    6.0400 N.ar      1 <0>        -0.5594
     14 C10        -3.1352    3.7897    7.0219 C.ar      1 <0>         0.3634
     15 N2         -1.8298    3.6020    6.9087 N.ar      1 <0>        -0.5988
     16 C11        -1.2870    3.1708    5.7778 C.ar      1 <0>         0.4919
     17 N3          0.0751    2.9796    5.6740 N.pl3     1 <0>        -0.6657
     18 C12         0.9428    3.2534    6.8222 C.3       1 <0>         0.1017
     19 H1          0.4292    3.4516    7.7629 H         1 <0>         0.1536
     20 C13         2.2479    4.0068    6.5575 C.3       1 <0>        -0.1839
     21 C14         2.2804    2.5136    6.8892 C.3       1 <0>        -0.1262
     22 H2          2.6469    2.2247    7.8742 H         1 <0>         0.1264
     23 C15         2.6043    1.5588    5.7691 C.ar      1 <0>        -0.0519
     24 C16         2.6770    2.0193    4.4677 C.ar      1 <0>        -0.1417
     25 C17         2.9789    1.1445    3.4409 C.ar      1 <0>        -0.1123
     26 C18         3.1983   -0.1927    3.7142 C.ar      1 <0>        -0.1218
     27 C19         3.1201   -0.6542    5.0149 C.ar      1 <0>        -0.1107
     28 C20         2.8233    0.2216    6.0424 C.ar      1 <0>        -0.1101
     29 H3         -0.0609    2.3543   -0.9163 H         1 <0>         0.1079
     30 H4         -1.4745    2.9787   -1.7996 H         1 <0>         0.1068
     31 H5         -1.4404    1.2831   -1.2592 H         1 <0>         0.0981
     32 H6         -0.5946    2.2895    3.3165 H         1 <0>         0.1381
     33 H7         -5.4657    3.0416    3.8997 H         1 <0>         0.1547
     34 H8         -6.4815    1.8055    2.5798 H         1 <0>         0.0643
     35 H9         -6.2796    3.4882    2.0358 H         1 <0>         0.0634
     36 H10        -6.6891    2.2159    0.8603 H         1 <0>         0.1076
     37 H11        -3.5256    4.1426    7.9650 H         1 <0>         0.1985
     38 H12         0.4584    2.6637    4.8408 H         1 <0>         0.4121
     39 H13         2.4609    4.2987    5.5291 H         1 <0>         0.1015
     40 H14         2.5929    4.7006    7.3241 H         1 <0>         0.1131
     41 H15         2.5015    3.0632    4.2537 H         1 <0>         0.1213
     42 H16         3.0397    1.5050    2.4246 H         1 <0>         0.1242
     43 H17         3.4306   -0.8769    2.9115 H         1 <0>         0.1244
     44 H18         3.2912   -1.6990    5.2283 H         1 <0>         0.1251
     45 H19         2.7622   -0.1390    7.0585 H         1 <0>         0.1244
@<TRIPOS>BOND
     1    1    2 1
     2    1   29 1
     3    1   30 1
     4    1   31 1
     5    2    3 2
     6    2    4 1
     7    4    5 1
     8    5   10 ar
     9    5    6 ar
    10    6    7 ar
    11    6   32 1
    12    7   16 ar
    13    7    8 ar
    14    8    9 ar
    15    8   13 ar
    16    9   10 ar
    17    9   33 1
    18   10   11 1
    19   11   12 1
    20   12   34 1
    21   12   35 1
    22   12   36 1
    23   13   14 ar
    24   14   15 ar
    25   14   37 1
    26   15   16 ar
    27   16   17 1
    28   17   18 1
    29   17   38 1
    30   18   19 1
    31   18   21 1
    32   18   20 1
    33   20   21 1
    34   20   39 1
    35   20   40 1
    36   21   22 1
    37   21   23 1
    38   23   28 ar
    39   23   24 ar
    40   24   25 ar
    41   24   41 1
    42   25   26 ar
    43   25   42 1
    44   26   27 ar
    45   26   43 1
    46   27   28 ar
    47   27   44 1
    48   28   45 1
@<TRIPOS>MOLECULE
ZINC04617802
   45    48     0     0     0
SMALL
USER_CHARGES

@<TRIPOS>ATOM
      1 C1          1.0409   -0.0763    1.1659 C.3       1 <0>        -0.1438
      2 C2          0.2723    0.4893    2.3322 C.2       1 <0>         0.4548
      3 O1         -0.0808   -0.2360    3.2318 O.2       1 <0>        -0.4930
      4 O2         -0.0200    1.7989    2.3718 O.3       1 <0>        -0.2824
      5 C3         -0.8056    2.2254    3.3965 C.ar      1 <0>         0.0517
      6 C4         -2.1564    2.3236    3.2166 C.ar      1 <0>        -0.0318
      7 C5         -2.9660    2.7625    4.2707 C.ar      1 <0>        -0.2198
      8 C6         -2.3818    3.1019    5.5163 C.ar      1 <0>         0.2333
      9 C7         -0.9954    2.9938    5.6787 C.ar      1 <0>        -0.2047
     10 C8         -0.2212    2.5539    4.6277 C.ar      1 <0>         0.1761
     11 O3          1.1235    2.4428    4.7840 O.3       1 <0>        -0.3031
     12 C9          1.6591    2.7924    6.0619 C.3       1 <0>         0.0214
     13 N1         -3.1807    3.5205    6.5104 N.ar      1 <0>        -0.5588
     14 C10        -4.4765    3.6121    6.3285 C.ar      1 <0>         0.3636
     15 N2         -5.0660    3.3062    5.1835 N.ar      1 <0>        -0.5977
     16 C11        -4.3699    2.8825    4.1369 C.ar      1 <0>         0.4922
     17 N3         -4.9975    2.5677    2.9496 N.pl3     1 <0>        -0.6672
     18 C12        -6.4519    2.6990    2.8325 C.3       1 <0>         0.1019
     19 H1         -6.9825    2.8975    3.7638 H         1 <0>         0.1500
     20 C13        -7.0031    3.3368    1.5557 C.3       1 <0>        -0.1825
     21 C14        -7.1577    1.8324    1.7876 C.3       1 <0>        -0.1221
     22 H2         -6.5399    1.1646    1.1873 H         1 <0>         0.1159
     23 C15        -8.5335    1.3181    2.1246 C.ar      1 <0>        -0.0537
     24 C16        -9.5568    2.2073    2.3949 C.ar      1 <0>        -0.1185
     25 C17       -10.8198    1.7355    2.7002 C.ar      1 <0>        -0.1154
     26 C18       -11.0574    0.3745    2.7433 C.ar      1 <0>        -0.1216
     27 C19       -10.0329   -0.5148    2.4781 C.ar      1 <0>        -0.1168
     28 C20        -8.7708   -0.0430    2.1690 C.ar      1 <0>        -0.1114
     29 H3          2.1090   -0.0305    1.3781 H         1 <0>         0.1093
     30 H4          0.8230    0.5060    0.2705 H         1 <0>         0.0971
     31 H5          0.7465   -1.1134    1.0053 H         1 <0>         0.1067
     32 H6         -2.5974    2.0642    2.2655 H         1 <0>         0.1406
     33 H7         -0.5368    3.2492    6.6225 H         1 <0>         0.1545
     34 H8          1.4236    3.8337    6.2820 H         1 <0>         0.0644
     35 H9          1.2213    2.1514    6.8271 H         1 <0>         0.0634
     36 H10         2.7408    2.6589    6.0514 H         1 <0>         0.1076
     37 H11        -5.0899    3.9521    7.1498 H         1 <0>         0.1985
     38 H12        -4.4758    2.2593    2.1922 H         1 <0>         0.4120
     39 H13        -7.8965    3.9545    1.6469 H         1 <0>         0.1113
     40 H14        -6.2836    3.6591    0.8030 H         1 <0>         0.1035
     41 H15        -9.3703    3.2706    2.3646 H         1 <0>         0.1243
     42 H16       -11.6202    2.4303    2.9077 H         1 <0>         0.1237
     43 H17       -12.0435    0.0058    2.9844 H         1 <0>         0.1225
     44 H18       -10.2185   -1.5782    2.5121 H         1 <0>         0.1231
     45 H19        -7.9703   -0.7378    1.9619 H         1 <0>         0.1208
@<TRIPOS>BOND
     1    1    2 1
     2    1   29 1
     3    1   30 1
     4    1   31 1
     5    2    3 2
     6    2    4 1
     7    4    5 1
     8    5   10 ar
     9    5    6 ar
    10    6    7 ar
    11    6   32 1
    12    7   16 ar
    13    7    8 ar
    14    8    9 ar
    15    8   13 ar
    16    9   10 ar
    17    9   33 1
    18   10   11 1
    19   11   12 1
    20   12   34 1
    21   12   35 1
    22   12   36 1
    23   13   14 ar
    24   14   15 ar
    25   14   37 1
    26   15   16 ar
    27   16   17 1
    28   17   18 1
    29   17   38 1
    30   18   19 1
    31   18   21 1
    32   18   20 1
    33   20   21 1
    34   20   39 1
    35   20   40 1
    36   21   22 1
    37   21   23 1
    38   23   28 ar
    39   23   24 ar
    40   24   25 ar
    41   24   41 1
    42   25   26 ar
    43   25   42 1
    44   26   27 ar
    45   26   43 1
    46   27   28 ar
    47   27   44 1
    48   28   45 1
@<TRIPOS>MOLECULE
ZINC04617803
   45    48     0     0     0
SMALL
USER_CHARGES

@<TRIPOS>ATOM
      1 C1          4.3565    0.3584    1.2028 C.3       1 <0>        -0.1432
      2 C2          2.9872    0.9861    1.1581 C.2       1 <0>         0.4566
      3 O1          2.4685    1.3777    2.1767 O.2       1 <0>        -0.4943
      4 O2          2.3436    1.1101   -0.0134 O.3       1 <0>        -0.2825
      5 C3          1.1635    1.7857   -0.0010 C.ar      1 <0>         0.0518
      6 C4         -0.0124    1.0909    0.0328 C.ar      1 <0>        -0.0298
      7 C5         -1.2277    1.7852    0.0407 C.ar      1 <0>        -0.2196
      8 C6         -1.2321    3.2022    0.0245 C.ar      1 <0>         0.2329
      9 C7         -0.0154    3.8939   -0.0100 C.ar      1 <0>        -0.2037
     10 C8          1.1670    3.1874   -0.0225 C.ar      1 <0>         0.1730
     11 O3          2.3489    3.8559   -0.0565 O.3       1 <0>        -0.3047
     12 C9          2.2864    5.2834   -0.0771 C.3       1 <0>         0.0216
     13 N1         -2.4111    3.8435    0.0389 N.ar      1 <0>        -0.5588
     14 C10        -3.5351    3.1683    0.0722 C.ar      1 <0>         0.3635
     15 N2         -3.5799    1.8455    0.0928 N.ar      1 <0>        -0.5976
     16 C11        -2.4733    1.1142    0.0813 C.ar      1 <0>         0.4922
     17 N3         -2.5350   -0.2636    0.1026 N.pl3     1 <0>        -0.6671
     18 C12        -3.8349   -0.9382    0.1384 C.3       1 <0>         0.1021
     19 H1         -4.7023   -0.2958   -0.0130 H         1 <0>         0.1500
     20 C13        -3.9904   -2.1219    1.0953 C.3       1 <0>        -0.1832
     21 C14        -3.9066   -2.3636   -0.4131 C.3       1 <0>        -0.1218
     22 H2         -2.9866   -2.7992   -0.8030 H         1 <0>         0.1162
     23 C15        -5.1712   -2.7719   -1.1237 C.ar      1 <0>        -0.0536
     24 C16        -6.3796   -2.7482   -0.4527 C.ar      1 <0>        -0.1186
     25 C17        -7.5402   -3.1190   -1.1057 C.ar      1 <0>        -0.1154
     26 C18        -7.4913   -3.5214   -2.4273 C.ar      1 <0>        -0.1217
     27 C19        -6.2822   -3.5502   -3.0967 C.ar      1 <0>        -0.1168
     28 C20        -5.1221   -3.1756   -2.4449 C.ar      1 <0>        -0.1113
     29 H3          4.6569    0.0696    0.1955 H         1 <0>         0.0946
     30 H4          5.0723    1.0761    1.6036 H         1 <0>         0.1098
     31 H5          4.3308   -0.5245    1.8414 H         1 <0>         0.1082
     32 H6         -0.0043    0.0111    0.0488 H         1 <0>         0.1409
     33 H7         -0.0040    4.9737   -0.0272 H         1 <0>         0.1545
     34 H8          3.2970    5.6910   -0.1037 H         1 <0>         0.1078
     35 H9          1.7394    5.6104   -0.9614 H         1 <0>         0.0646
     36 H10         1.7752    5.6377    0.8180 H         1 <0>         0.0634
     37 H11        -4.4658    3.7161    0.0830 H         1 <0>         0.1985
     38 H12        -1.7176   -0.7859    0.0938 H         1 <0>         0.4122
     39 H13        -3.1255   -2.3987    1.6982 H         1 <0>         0.1033
     40 H14        -4.9602   -2.2583    1.5738 H         1 <0>         0.1114
     41 H15        -6.4173   -2.4370    0.5808 H         1 <0>         0.1243
     42 H16        -8.4847   -3.0969   -0.5825 H         1 <0>         0.1236
     43 H17        -8.3977   -3.8137   -2.9366 H         1 <0>         0.1225
     44 H18        -6.2439   -3.8649   -4.1291 H         1 <0>         0.1231
     45 H19        -4.1775   -3.1981   -2.9679 H         1 <0>         0.1210
@<TRIPOS>BOND
     1    1    2 1
     2    1   29 1
     3    1   30 1
     4    1   31 1
     5    2    3 2
     6    2    4 1
     7    4    5 1
     8    5   10 ar
     9    5    6 ar
    10    6    7 ar
    11    6   32 1
    12    7   16 ar
    13    7    8 ar
    14    8    9 ar
    15    8   13 ar
    16    9   10 ar
    17    9   33 1
    18   10   11 1
    19   11   12 1
    20   12   34 1
    21   12   35 1
    22   12   36 1
    23   13   14 ar
    24   14   15 ar
    25   14   37 1
    26   15   16 ar
    27   16   17 1
    28   17   18 1
    29   17   38 1
    30   18   19 1
    31   18   21 1
    32   18   20 1
    33   20   21 1
    34   20   39 1
    35   20   40 1
    36   21   22 1
    37   21   23 1
    38   23   28 ar
    39   23   24 ar
    40   24   25 ar
    41   24   41 1
    42   25   26 ar
    43   25   42 1
    44   26   27 ar
    45   26   43 1
    46   27   28 ar
    47   27   44 1
    48   28   45 1
@<TRIPOS>MOLECULE
ZINC04617805
   63    67     0     0     0
SMALL
USER_CHARGES

@<TRIPOS>ATOM
      1 C1          1.4784   12.7664    6.3147 C.3       1 <0>         0.0193
      2 O1          1.7445   12.4513    4.9465 O.3       1 <0>        -0.3016
      3 C2          1.2279   11.2889    4.4696 C.ar      1 <0>         0.1624
      4 C3          0.4866   10.4804    5.3027 C.ar      1 <0>        -0.1793
      5 C4         -0.0447    9.2830    4.8085 C.ar      1 <0>         0.2092
      6 C5          0.1890    8.9222    3.4584 C.ar      1 <0>        -0.1960
      7 C6          0.9459    9.7617    2.6323 C.ar      1 <0>        -0.1354
      8 C7          1.4553   10.9251    3.1351 C.ar      1 <0>         0.0974
      9 O2          2.1912   11.7394    2.3322 O.3       1 <0>        -0.2976
     10 C8          2.3880   11.3139    0.9823 C.3       1 <0>         0.0591
     11 C9          3.2330   12.3503    0.2389 C.3       1 <0>        -0.1513
     12 C10         3.4437   11.8948   -1.2064 C.3       1 <0>        -0.0010
     13 C11         3.5268   14.1589   -2.0630 C.3       1 <0>        -0.0445
     14 C12         4.4285   15.1831   -2.7573 C.3       1 <0>         0.0349
     15 O3          4.8548   14.6587   -4.0176 O.3       1 <0>        -0.3561
     16 C13         5.5680   13.4232   -3.9156 C.3       1 <0>         0.0342
     17 C14         4.6779   12.3812   -3.2331 C.3       1 <0>        -0.0383
     18 C15        -0.3611    7.7063    2.9873 C.ar      1 <0>         0.4788
     19 N1         -1.0710    6.9700    3.8318 N.ar      1 <0>        -0.5888
     20 C16        -1.2592    7.3452    5.0871 C.ar      1 <0>         0.3571
     21 N2         -0.7741    8.4604    5.5786 N.ar      1 <0>        -0.5498
     22 N3         -0.1690    7.3006    1.6828 N.pl3     1 <0>        -0.6700
     23 C17        -0.7473    6.0382    1.2156 C.3       1 <0>         0.1022
     24 H1         -1.1777    5.4031    1.9898 H         1 <0>         0.1502
     25 C18        -1.4237    6.0362   -0.1568 C.3       1 <0>        -0.1836
     26 C19        -0.0705    5.3471    0.0302 C.3       1 <0>        -0.1181
     27 H2          0.8050    5.8314   -0.4024 H         1 <0>         0.1117
     28 C20        -0.0501    3.8402    0.0223 C.ar      1 <0>        -0.0588
     29 C21         1.1563    3.1654    0.0076 C.ar      1 <0>        -0.1126
     30 C22         1.1750    1.7832    0.0004 C.ar      1 <0>        -0.1164
     31 C23        -0.0126    1.0758    0.0080 C.ar      1 <0>        -0.1184
     32 C24        -1.2190    1.7506    0.0173 C.ar      1 <0>        -0.1133
     33 C25        -1.2377    3.1328    0.0303 C.ar      1 <0>        -0.1180
     34 H3          0.4017   12.8399    6.4678 H         1 <0>         0.0643
     35 H4          1.8836   11.9819    6.9537 H         1 <0>         0.0643
     36 H5          1.9469   13.7180    6.5661 H         1 <0>         0.1087
     37 H6          0.3167   10.7679    6.3297 H         1 <0>         0.1580
     38 H7          1.1268    9.4903    1.6028 H         1 <0>         0.1336
     39 H8          2.9026   10.3531    0.9755 H         1 <0>         0.0726
     40 H9          1.4214   11.2118    0.4889 H         1 <0>         0.0724
     41 H10         2.7184   13.3112    0.2457 H         1 <0>         0.1006
     42 H11         4.1996   12.4524    0.7323 H         1 <0>         0.1013
     43 H12         3.9584   10.9339   -1.2132 H         1 <0>         0.1354
     44 H13         2.4771   11.7927   -1.6998 H         1 <0>         0.1361
     45 H14         2.6301   13.9986   -2.6616 H         1 <0>         0.1416
     46 H15         3.2458   14.5303   -1.0775 H         1 <0>         0.1429
     47 H16         5.2993   15.3836   -2.1331 H         1 <0>         0.0820
     48 H17         3.8735   16.1077   -2.9167 H         1 <0>         0.1427
     49 H18         6.4720   13.5725   -3.3251 H         1 <0>         0.0818
     50 H19         5.8378   13.0746   -4.9124 H         1 <0>         0.1426
     51 H20         5.2371   11.4549   -3.1016 H         1 <0>         0.1419
     52 H21         3.7996   12.1924   -3.8503 H         1 <0>         0.1411
     53 H22        -1.8417    6.7066    5.7346 H         1 <0>         0.1996
     54 H23         0.3491    7.8511    1.0750 H         1 <0>         0.4060
     55 H24        -1.4384    6.9741   -0.7120 H         1 <0>         0.1002
     56 H25        -2.2991    5.3997   -0.2855 H         1 <0>         0.1125
     57 H26         2.0841    3.7181    0.0014 H         1 <0>         0.1185
     58 H27         2.1175    1.2560   -0.0115 H         1 <0>         0.1239
     59 H28         0.0021   -0.0041    0.0020 H         1 <0>         0.1246
     60 H29        -2.1469    1.1980    0.0188 H         1 <0>         0.1255
     61 H30        -2.1802    3.6600    0.0422 H         1 <0>         0.1243
     62 N4          4.2777   12.8958   -1.9063 N.4       1 <0>        -0.3951
     63 H31         5.1212   13.0755   -1.3492 H         1 <0>         0.4287
@<TRIPOS>BOND
     1    1    2 1
     2    1   34 1
     3    1   35 1
     4    1   36 1
     5    2    3 1
     6    3    8 ar
     7    3    4 ar
     8    4    5 ar
     9    4   37 1
    10    5   21 ar
    11    5    6 ar
    12    6    7 ar
    13    6   18 ar
    14    7    8 ar
    15    7   38 1
    16    8    9 1
    17    9   10 1
    18   10   11 1
    19   10   39 1
    20   10   40 1
    21   11   12 1
    22   11   41 1
    23   11   42 1
    24   12   43 1
    25   12   44 1
    26   12   62 1
    27   13   14 1
    28   13   45 1
    29   13   46 1
    30   13   62 1
    31   14   15 1
    32   14   47 1
    33   14   48 1
    34   15   16 1
    35   16   17 1
    36   16   49 1
    37   16   50 1
    38   17   51 1
    39   17   52 1
    40   17   62 1
    41   18   19 ar
    42   18   22 1
    43   19   20 ar
    44   20   21 ar
    45   20   53 1
    46   22   23 1
    47   22   54 1
    48   23   24 1
    49   23   26 1
    50   23   25 1
    51   25   26 1
    52   25   55 1
    53   25   56 1
    54   26   27 1
    55   26   28 1
    56   28   33 ar
    57   28   29 ar
    58   29   30 ar
    59   29   57 1
    60   30   31 ar
    61   30   58 1
    62   31   32 ar
    63   31   59 1
    64   32   33 ar
    65   32   60 1
    66   33   61 1
    67   62   63 1
@<TRIPOS>MOLECULE
ZINC04617806
   63    67     0     0     0
SMALL
USER_CHARGES

@<TRIPOS>ATOM
      1 C1          2.2613    5.2832    0.0089 C.3       1 <0>         0.0193
      2 O1          2.3323    3.8560    0.0005 O.3       1 <0>        -0.3016
      3 C2          1.1541    3.1798    0.0082 C.ar      1 <0>         0.1624
      4 C3         -0.0326    3.8790    0.0229 C.ar      1 <0>        -0.1793
      5 C4         -1.2453    3.1794    0.0307 C.ar      1 <0>         0.2092
      6 C5         -1.2325    1.7626    0.0175 C.ar      1 <0>        -0.1959
      7 C6         -0.0126    1.0758    0.0080 C.ar      1 <0>        -0.1353
      8 C7          1.1590    1.7781    0.0005 C.ar      1 <0>         0.0974
      9 O2          2.3434    1.1100   -0.0139 O.3       1 <0>        -0.2977
     10 C8          2.2828   -0.3177   -0.0206 C.3       1 <0>         0.0591
     11 C9          3.7023   -0.8884   -0.0368 C.3       1 <0>        -0.1512
     12 C10         3.6374   -2.4170   -0.0439 C.3       1 <0>        -0.0010
     13 C11         5.6826   -2.6445   -1.3217 C.3       1 <0>        -0.0443
     14 C12         7.1156   -3.1810   -1.2714 C.3       1 <0>         0.0348
     15 O3          7.0839   -4.5876   -1.0150 O.3       1 <0>        -0.3561
     16 C13         6.4272   -4.9354    0.2069 C.3       1 <0>         0.0342
     17 C14         4.9872   -4.4167    0.1716 C.3       1 <0>        -0.0384
     18 C15        -2.4741    1.0835    0.0326 C.ar      1 <0>         0.4788
     19 N1         -3.5853    1.8078    0.0477 N.ar      1 <0>        -0.5889
     20 C16        -3.5485    3.1310    0.0541 C.ar      1 <0>         0.3571
     21 N2         -2.4284    3.8134    0.0461 N.ar      1 <0>        -0.5498
     22 N3         -2.5274   -0.2950    0.0255 N.pl3     1 <0>        -0.6700
     23 C17        -3.8234   -0.9780    0.0348 C.3       1 <0>         0.1021
     24 H1         -4.6932   -0.3378   -0.1124 H         1 <0>         0.1502
     25 C18        -3.9810   -2.1816    0.9661 C.3       1 <0>        -0.1836
     26 C19        -3.8808   -2.3923   -0.5460 C.3       1 <0>        -0.1180
     27 H2         -2.9543   -2.8144   -0.9353 H         1 <0>         0.1116
     28 C20        -5.1357   -2.7938   -1.2773 C.ar      1 <0>        -0.0588
     29 C21        -6.3508   -2.7909   -0.6181 C.ar      1 <0>        -0.1180
     30 C22        -7.5025   -3.1554   -1.2900 C.ar      1 <0>        -0.1133
     31 C23        -7.4380   -3.5309   -2.6188 C.ar      1 <0>        -0.1184
     32 C24        -6.2222   -3.5389   -3.2766 C.ar      1 <0>        -0.1164
     33 C25        -5.0710   -3.1706   -2.6057 C.ar      1 <0>        -0.1126
     34 H3          1.7215    5.6253   -0.8741 H         1 <0>         0.0643
     35 H4          1.7386    5.6157    0.9057 H         1 <0>         0.0643
     36 H5          3.2696    5.6972    0.0014 H         1 <0>         0.1087
     37 H6         -0.0275    4.9589    0.0279 H         1 <0>         0.1581
     38 H7          0.0021   -0.0041    0.0020 H         1 <0>         0.1336
     39 H8          1.7623   -0.6635    0.8726 H         1 <0>         0.0726
     40 H9          1.7457   -0.6545   -0.9073 H         1 <0>         0.0724
     41 H10         4.2227   -0.5426   -0.9299 H         1 <0>         0.1006
     42 H11         4.2394   -0.5516    0.8499 H         1 <0>         0.1013
     43 H12         3.1170   -2.7627    0.8492 H         1 <0>         0.1354
     44 H13         3.1003   -2.7537   -0.9306 H         1 <0>         0.1361
     45 H14         5.1493   -3.1081   -2.1516 H         1 <0>         0.1416
     46 H15         5.7033   -1.5635   -1.4600 H         1 <0>         0.1429
     47 H16         7.6648   -2.6781   -0.4754 H         1 <0>         0.0820
     48 H17         7.6078   -2.9960   -2.2262 H         1 <0>         0.1427
     49 H18         6.9563   -4.4836    1.0460 H         1 <0>         0.0818
     50 H19         6.4208   -6.0194    0.3210 H         1 <0>         0.1426
     51 H20         4.5003   -4.6293    1.1234 H         1 <0>         0.1419
     52 H21         4.4427   -4.9086   -0.6344 H         1 <0>         0.1411
     53 H22        -4.4826    3.6729    0.0661 H         1 <0>         0.1996
     54 H23        -1.7068   -0.8120    0.0145 H         1 <0>         0.4060
     55 H24        -3.1204   -2.4652    1.5720 H         1 <0>         0.1002
     56 H25        -4.9547   -2.3334    1.4320 H         1 <0>         0.1125
     57 H26        -6.4007   -2.5008    0.4210 H         1 <0>         0.1243
     58 H27        -8.4524   -3.1495   -0.7760 H         1 <0>         0.1255
     59 H28        -8.3375   -3.8183   -3.1430 H         1 <0>         0.1246
     60 H29        -6.1718   -3.8325   -4.3147 H         1 <0>         0.1239
     61 H30        -4.1212   -3.1768   -3.1196 H         1 <0>         0.1185
     62 N4          5.0153   -2.9543   -0.0395 N.4       1 <0>        -0.3951
     63 H31         5.5418   -2.5164    0.7256 H         1 <0>         0.4287
@<TRIPOS>BOND
     1    1    2 1
     2    1   34 1
     3    1   35 1
     4    1   36 1
     5    2    3 1
     6    3    8 ar
     7    3    4 ar
     8    4    5 ar
     9    4   37 1
    10    5   21 ar
    11    5    6 ar
    12    6    7 ar
    13    6   18 ar
    14    7    8 ar
    15    7   38 1
    16    8    9 1
    17    9   10 1
    18   10   11 1
    19   10   39 1
    20   10   40 1
    21   11   12 1
    22   11   41 1
    23   11   42 1
    24   12   43 1
    25   12   44 1
    26   12   62 1
    27   13   14 1
    28   13   45 1
    29   13   46 1
    30   13   62 1
    31   14   15 1
    32   14   47 1
    33   14   48 1
    34   15   16 1
    35   16   17 1
    36   16   49 1
    37   16   50 1
    38   17   51 1
    39   17   52 1
    40   17   62 1
    41   18   19 ar
    42   18   22 1
    43   19   20 ar
    44   20   21 ar
    45   20   53 1
    46   22   23 1
    47   22   54 1
    48   23   24 1
    49   23   26 1
    50   23   25 1
    51   25   26 1
    52   25   55 1
    53   25   56 1
    54   26   27 1
    55   26   28 1
    56   28   33 ar
    57   28   29 ar
    58   29   30 ar
    59   29   57 1
    60   30   31 ar
    61   30   58 1
    62   31   32 ar
    63   31   59 1
    64   32   33 ar
    65   32   60 1
    66   33   61 1
    67   62   63 1
@<TRIPOS>MOLECULE
ZINC04617807
   63    67     0     0     0
SMALL
USER_CHARGES

@<TRIPOS>ATOM
      1 C1         -3.8674    7.0717   -5.5261 C.3       1 <0>         0.0192
      2 O1         -2.9709    5.9746   -5.7123 O.3       1 <0>        -0.3014
      3 C2         -2.5619    5.3162   -4.5966 C.ar      1 <0>         0.1628
      4 C3         -3.0162    5.7219   -3.3612 C.ar      1 <0>        -0.1798
      5 C4         -2.5931    5.0415   -2.2130 C.ar      1 <0>         0.2096
      6 C5         -1.7039    3.9458   -2.3407 C.ar      1 <0>        -0.1962
      7 C6         -1.2569    3.5534   -3.6081 C.ar      1 <0>        -0.1351
      8 C7         -1.6826    4.2310   -4.7151 C.ar      1 <0>         0.0978
      9 O2         -1.2486    3.8485   -5.9458 O.3       1 <0>        -0.2971
     10 C8         -0.3538    2.7357   -6.0013 C.3       1 <0>         0.0587
     11 C9          0.0220    2.4556   -7.4577 C.3       1 <0>        -0.1505
     12 C10         0.9800    1.2641   -7.5171 C.3       1 <0>        -0.0031
     13 C11         0.1735    0.5354   -9.6817 C.3       1 <0>        -0.0447
     14 C12         0.5796    0.3247  -11.1428 C.3       1 <0>         0.0350
     15 O3          1.6656   -0.6039  -11.2013 O.3       1 <0>        -0.3559
     16 C13         2.8195   -0.1874  -10.4662 C.3       1 <0>         0.0343
     17 C14         2.4362    0.0180   -8.9983 C.3       1 <0>        -0.0387
     18 C15        -1.2941    3.2774   -1.1624 C.ar      1 <0>         0.4785
     19 N1         -1.7673    3.7075   -0.0003 N.ar      1 <0>        -0.5901
     20 C16        -2.5931    4.7395    0.0710 C.ar      1 <0>         0.3565
     21 N2         -3.0065    5.3966   -0.9862 N.ar      1 <0>        -0.5499
     22 N3         -0.4302    2.2035   -1.2215 N.pl3     1 <0>        -0.6692
     23 C17        -0.0187    1.5258    0.0104 C.3       1 <0>         0.1055
     24 H1         -0.3072    2.0201    0.9381 H         1 <0>         0.1546
     25 C18         0.0021   -0.0041    0.0020 C.3       1 <0>        -0.1821
     26 C19         1.3165    0.7789   -0.0063 C.3       1 <0>        -0.1334
     27 H2          1.9064    0.7818    0.9103 H         1 <0>         0.1287
     28 C20         2.1077    0.7967   -1.2888 C.ar      1 <0>        -0.0421
     29 C21         1.5617    0.2715   -2.4451 C.ar      1 <0>        -0.1407
     30 C22         2.2858    0.2918   -3.6225 C.ar      1 <0>        -0.1229
     31 C23         3.5594    0.8290   -3.6415 C.ar      1 <0>        -0.1287
     32 C24         4.1074    1.3494   -2.4841 C.ar      1 <0>        -0.1077
     33 C25         3.3816    1.3331   -1.3077 C.ar      1 <0>        -0.1042
     34 H3         -4.1141    7.5076   -6.4942 H         1 <0>         0.1086
     35 H4         -4.7789    6.7183   -5.0440 H         1 <0>         0.0642
     36 H5         -3.3932    7.8259   -4.8982 H         1 <0>         0.0642
     37 H6         -3.6941    6.5586   -3.2788 H         1 <0>         0.1582
     38 H7         -0.5785    2.7193   -3.7100 H         1 <0>         0.1323
     39 H8          0.5466    2.9647   -5.4313 H         1 <0>         0.0734
     40 H9         -0.8395    1.8574   -5.5760 H         1 <0>         0.0717
     41 H10        -0.8784    2.2265   -8.0277 H         1 <0>         0.1008
     42 H11         0.5076    3.3338   -7.8830 H         1 <0>         0.1016
     43 H12         1.8804    1.4931   -6.9471 H         1 <0>         0.1359
     44 H13         0.4944    0.3858   -7.0918 H         1 <0>         0.1362
     45 H14        -0.1879   -0.4049   -9.2652 H         1 <0>         0.1417
     46 H15        -0.6157    1.2853   -9.6278 H         1 <0>         0.1430
     47 H16         0.8903    1.2759  -11.5749 H         1 <0>         0.0820
     48 H17        -0.2679   -0.0706  -11.7027 H         1 <0>         0.1426
     49 H18         3.1954    0.7489  -10.8787 H         1 <0>         0.0818
     50 H19         3.5926   -0.9526  -10.5368 H         1 <0>         0.1426
     51 H20         3.2987    0.3904   -8.4456 H         1 <0>         0.1418
     52 H21         2.1109   -0.9304   -8.5709 H         1 <0>         0.1412
     53 H22        -2.9452    5.0522    1.0429 H         1 <0>         0.1998
     54 H23        -0.0951    1.8971   -2.0787 H         1 <0>         0.4072
     55 H24        -0.2728   -0.5162    0.9241 H         1 <0>         0.1153
     56 H25        -0.2904   -0.5063   -0.9201 H         1 <0>         0.0998
     57 H26         0.5682   -0.1516   -2.4294 H         1 <0>         0.1224
     58 H27         1.8575   -0.1145   -4.5269 H         1 <0>         0.1149
     59 H28         4.1261    0.8424   -4.5608 H         1 <0>         0.1192
     60 H29         5.1024    1.7691   -2.4989 H         1 <0>         0.1270
     61 H30         3.8098    1.7397   -0.4033 H         1 <0>         0.1283
     62 N4          1.3495    1.0178   -8.9278 N.4       1 <0>        -0.3947
     63 H31         1.6765    1.8969   -9.3455 H         1 <0>         0.4287
@<TRIPOS>BOND
     1    1    2 1
     2    1   34 1
     3    1   35 1
     4    1   36 1
     5    2    3 1
     6    3    8 ar
     7    3    4 ar
     8    4    5 ar
     9    4   37 1
    10    5   21 ar
    11    5    6 ar
    12    6    7 ar
    13    6   18 ar
    14    7    8 ar
    15    7   38 1
    16    8    9 1
    17    9   10 1
    18   10   11 1
    19   10   39 1
    20   10   40 1
    21   11   12 1
    22   11   41 1
    23   11   42 1
    24   12   43 1
    25   12   44 1
    26   12   62 1
    27   13   14 1
    28   13   45 1
    29   13   46 1
    30   13   62 1
    31   14   15 1
    32   14   47 1
    33   14   48 1
    34   15   16 1
    35   16   17 1
    36   16   49 1
    37   16   50 1
    38   17   51 1
    39   17   52 1
    40   17   62 1
    41   18   19 ar
    42   18   22 1
    43   19   20 ar
    44   20   21 ar
    45   20   53 1
    46   22   23 1
    47   22   54 1
    48   23   24 1
    49   23   26 1
    50   23   25 1
    51   25   26 1
    52   25   55 1
    53   25   56 1
    54   26   27 1
    55   26   28 1
    56   28   33 ar
    57   28   29 ar
    58   29   30 ar
    59   29   57 1
    60   30   31 ar
    61   30   58 1
    62   31   32 ar
    63   31   59 1
    64   32   33 ar
    65   32   60 1
    66   33   61 1
    67   62   63 1
@<TRIPOS>MOLECULE
ZINC04617808
   40    43     0     0     0
SMALL
USER_CHARGES

@<TRIPOS>ATOM
      1 C1         -3.9024    2.0409   -8.8026 C.3       1 <0>         0.0202
      2 O1         -3.7889    2.6519   -7.5158 O.3       1 <0>        -0.3005
      3 C2         -3.2186    1.9116   -6.5297 C.ar      1 <0>         0.1550
      4 C3         -2.7834    0.6336   -6.8022 C.ar      1 <0>        -0.2053
      5 C4         -2.1961   -0.1270   -5.7840 C.ar      1 <0>         0.2231
      6 C5         -2.0637    0.4287   -4.4873 C.ar      1 <0>        -0.2166
      7 C6         -2.5086    1.7325   -4.2380 C.ar      1 <0>        -0.0621
      8 C7         -3.0791    2.4569   -5.2458 C.ar      1 <0>         0.0763
      9 O2         -3.5162    3.7211   -5.0011 O.3       1 <0>        -0.4817
     10 C8         -1.4606   -0.3622   -3.4804 C.ar      1 <0>         0.4868
     11 N1         -1.0597   -1.5856   -3.7996 N.ar      1 <0>        -0.5992
     12 C9         -1.2088   -2.0650   -5.0244 C.ar      1 <0>         0.3579
     13 N2         -1.7554   -1.3767   -5.9980 N.ar      1 <0>        -0.5592
     14 N3         -1.2993    0.1243   -2.1996 N.pl3     1 <0>        -0.6666
     15 C10        -0.6780   -0.7134   -1.1707 C.3       1 <0>         0.1023
     16 H1         -0.2290   -1.6405   -1.5270 H         1 <0>         0.1525
     17 C11        -1.3280   -0.7298    0.2143 C.3       1 <0>        -0.1840
     18 C12         0.0021   -0.0041    0.0020 C.3       1 <0>        -0.1269
     19 H2          0.8987   -0.4644    0.4170 H         1 <0>         0.1257
     20 C13        -0.0184    1.5028    0.0103 C.ar      1 <0>        -0.0521
     21 C14        -1.2248    2.1776    0.0197 C.ar      1 <0>        -0.1410
     22 C15        -1.2435    3.5598    0.0322 C.ar      1 <0>        -0.1114
     23 C16        -0.0559    4.2672    0.0251 C.ar      1 <0>        -0.1220
     24 C17         1.1505    3.5924    0.0100 C.ar      1 <0>        -0.1109
     25 C18         1.1693    2.2102    0.0028 C.ar      1 <0>        -0.1109
     26 H3         -4.5101    1.1394   -8.7244 H         1 <0>         0.0617
     27 H4         -4.3738    2.7379   -9.4954 H         1 <0>         0.1065
     28 H5         -2.9099    1.7793   -9.1694 H         1 <0>         0.0620
     29 H6         -2.8940    0.2213   -7.7943 H         1 <0>         0.1508
     30 H7         -2.4058    2.1617   -3.2523 H         1 <0>         0.1372
     31 H8         -4.4368    3.7694   -4.7092 H         1 <0>         0.3899
     32 H9         -0.8647   -3.0675   -5.2313 H         1 <0>         0.1966
     33 H10        -1.5972    1.0210   -1.9802 H         1 <0>         0.4125
     34 H11        -1.3066   -1.6677    0.7692 H         1 <0>         0.1124
     35 H12        -2.2179   -0.1174    0.3599 H         1 <0>         0.1014
     36 H13        -2.1527    1.6249    0.0211 H         1 <0>         0.1215
     37 H14        -2.1860    4.0870    0.0437 H         1 <0>         0.1248
     38 H15        -0.0705    5.3471    0.0311 H         1 <0>         0.1242
     39 H16         2.0784    4.1450    0.0041 H         1 <0>         0.1248
     40 H17         2.1118    1.6830   -0.0091 H         1 <0>         0.1241
@<TRIPOS>BOND
     1    1    2 1
     2    1   26 1
     3    1   27 1
     4    1   28 1
     5    2    3 1
     6    3    8 ar
     7    3    4 ar
     8    4    5 ar
     9    4   29 1
    10    5   13 ar
    11    5    6 ar
    12    6    7 ar
    13    6   10 ar
    14    7    8 ar
    15    7   30 1
    16    8    9 1
    17    9   31 1
    18   10   11 ar
    19   10   14 1
    20   11   12 ar
    21   12   13 ar
    22   12   32 1
    23   14   15 1
    24   14   33 1
    25   15   16 1
    26   15   18 1
    27   15   17 1
    28   17   18 1
    29   17   34 1
    30   17   35 1
    31   18   19 1
    32   18   20 1
    33   20   25 ar
    34   20   21 ar
    35   21   22 ar
    36   21   36 1
    37   22   23 ar
    38   22   37 1
    39   23   24 ar
    40   23   38 1
    41   24   25 ar
    42   24   39 1
    43   25   40 1
@<TRIPOS>MOLECULE
ZINC04617809
   40    43     0     0     0
SMALL
USER_CHARGES

@<TRIPOS>ATOM
      1 C1          1.4784   12.7664    6.3147 C.3       1 <0>         0.0201
      2 O1          1.7445   12.4513    4.9465 O.3       1 <0>        -0.3006
      3 C2          1.2279   11.2889    4.4696 C.ar      1 <0>         0.1547
      4 C3          0.4866   10.4804    5.3027 C.ar      1 <0>        -0.2050
      5 C4         -0.0447    9.2830    4.8085 C.ar      1 <0>         0.2225
      6 C5          0.1890    8.9222    3.4584 C.ar      1 <0>        -0.2161
      7 C6          0.9459    9.7617    2.6323 C.ar      1 <0>        -0.0626
      8 C7          1.4553   10.9251    3.1351 C.ar      1 <0>         0.0761
      9 O2          2.1912   11.7394    2.3322 O.3       1 <0>        -0.4824
     10 C8         -0.3611    7.7063    2.9873 C.ar      1 <0>         0.4869
     11 N1         -1.0710    6.9700    3.8318 N.ar      1 <0>        -0.5979
     12 C9         -1.2592    7.3452    5.0871 C.ar      1 <0>         0.3581
     13 N2         -0.7741    8.4604    5.5786 N.ar      1 <0>        -0.5584
     14 N3         -0.1690    7.3006    1.6828 N.pl3     1 <0>        -0.6682
     15 C10        -0.7473    6.0382    1.2156 C.3       1 <0>         0.1030
     16 H1         -1.1777    5.4031    1.9898 H         1 <0>         0.1491
     17 C11        -1.4237    6.0362   -0.1568 C.3       1 <0>        -0.1835
     18 C12        -0.0705    5.3471    0.0302 C.3       1 <0>        -0.1225
     19 H2          0.8050    5.8314   -0.4024 H         1 <0>         0.1159
     20 C13        -0.0501    3.8402    0.0223 C.ar      1 <0>        -0.0534
     21 C14         1.1563    3.1654    0.0076 C.ar      1 <0>        -0.1116
     22 C15         1.1750    1.7832    0.0004 C.ar      1 <0>        -0.1169
     23 C16        -0.0126    1.0758    0.0080 C.ar      1 <0>        -0.1218
     24 C17        -1.2190    1.7506    0.0173 C.ar      1 <0>        -0.1153
     25 C18        -1.2377    3.1328    0.0303 C.ar      1 <0>        -0.1187
     26 H3          1.9469   13.7180    6.5661 H         1 <0>         0.1066
     27 H4          0.4017   12.8399    6.4678 H         1 <0>         0.0622
     28 H5          1.8836   11.9819    6.9537 H         1 <0>         0.0617
     29 H6          0.3167   10.7679    6.3297 H         1 <0>         0.1507
     30 H7          1.1268    9.4903    1.6028 H         1 <0>         0.1396
     31 H8          3.1391   11.5487    2.3415 H         1 <0>         0.3905
     32 H9         -1.8417    6.7066    5.7346 H         1 <0>         0.1966
     33 H10         0.3491    7.8511    1.0750 H         1 <0>         0.4124
     34 H11        -1.4384    6.9741   -0.7120 H         1 <0>         0.1033
     35 H12        -2.2991    5.3997   -0.2855 H         1 <0>         0.1108
     36 H13         2.0841    3.7181    0.0014 H         1 <0>         0.1208
     37 H14         2.1175    1.2560   -0.0115 H         1 <0>         0.1230
     38 H15         0.0021   -0.0041    0.0020 H         1 <0>         0.1225
     39 H16        -2.1469    1.1980    0.0188 H         1 <0>         0.1236
     40 H17        -2.1802    3.6600    0.0422 H         1 <0>         0.1243
@<TRIPOS>BOND
     1    1    2 1
     2    1   26 1
     3    1   27 1
     4    1   28 1
     5    2    3 1
     6    3    8 ar
     7    3    4 ar
     8    4    5 ar
     9    4   29 1
    10    5   13 ar
    11    5    6 ar
    12    6    7 ar
    13    6   10 ar
    14    7    8 ar
    15    7   30 1
    16    8    9 1
    17    9   31 1
    18   10   11 ar
    19   10   14 1
    20   11   12 ar
    21   12   13 ar
    22   12   32 1
    23   14   15 1
    24   14   33 1
    25   15   16 1
    26   15   18 1
    27   15   17 1
    28   17   18 1
    29   17   34 1
    30   17   35 1
    31   18   19 1
    32   18   20 1
    33   20   25 ar
    34   20   21 ar
    35   21   22 ar
    36   21   36 1
    37   22   23 ar
    38   22   37 1
    39   23   24 ar
    40   23   38 1
    41   24   25 ar
    42   24   39 1
    43   25   40 1
@<TRIPOS>MOLECULE
ZINC04617810
   40    43     0     0     0
SMALL
USER_CHARGES

@<TRIPOS>ATOM
      1 C1          2.2613    5.2832    0.0089 C.3       1 <0>         0.0201
      2 O1          2.3323    3.8560    0.0005 O.3       1 <0>        -0.3006
      3 C2          1.1541    3.1798    0.0082 C.ar      1 <0>         0.1548
      4 C3         -0.0326    3.8790    0.0229 C.ar      1 <0>        -0.2050
      5 C4         -1.2453    3.1794    0.0307 C.ar      1 <0>         0.2224
      6 C5         -1.2325    1.7626    0.0175 C.ar      1 <0>        -0.2161
      7 C6         -0.0126    1.0758    0.0080 C.ar      1 <0>        -0.0625
      8 C7          1.1590    1.7781    0.0005 C.ar      1 <0>         0.0760
      9 O2          2.3434    1.1100   -0.0139 O.3       1 <0>        -0.4825
     10 C8         -2.4741    1.0835    0.0326 C.ar      1 <0>         0.4870
     11 N1         -3.5853    1.8078    0.0477 N.ar      1 <0>        -0.5980
     12 C9         -3.5485    3.1310    0.0541 C.ar      1 <0>         0.3581
     13 N2         -2.4284    3.8134    0.0461 N.ar      1 <0>        -0.5584
     14 N3         -2.5274   -0.2950    0.0255 N.pl3     1 <0>        -0.6682
     15 C10        -3.8234   -0.9780    0.0348 C.3       1 <0>         0.1029
     16 H1         -4.6932   -0.3378   -0.1124 H         1 <0>         0.1491
     17 C11        -3.9810   -2.1816    0.9661 C.3       1 <0>        -0.1835
     18 C12        -3.8808   -2.3923   -0.5460 C.3       1 <0>        -0.1225
     19 H2         -2.9543   -2.8144   -0.9353 H         1 <0>         0.1158
     20 C13        -5.1357   -2.7938   -1.2773 C.ar      1 <0>        -0.0534
     21 C14        -6.3508   -2.7909   -0.6181 C.ar      1 <0>        -0.1187
     22 C15        -7.5025   -3.1554   -1.2900 C.ar      1 <0>        -0.1153
     23 C16        -7.4380   -3.5309   -2.6188 C.ar      1 <0>        -0.1219
     24 C17        -6.2222   -3.5389   -3.2766 C.ar      1 <0>        -0.1169
     25 C18        -5.0710   -3.1706   -2.6057 C.ar      1 <0>        -0.1116
     26 H3          1.7215    5.6253   -0.8741 H         1 <0>         0.0617
     27 H4          1.7386    5.6157    0.9057 H         1 <0>         0.0622
     28 H5          3.2696    5.6972    0.0014 H         1 <0>         0.1066
     29 H6         -0.0275    4.9589    0.0279 H         1 <0>         0.1507
     30 H7          0.0021   -0.0041    0.0020 H         1 <0>         0.1396
     31 H8          2.6776    0.9212   -0.9015 H         1 <0>         0.3905
     32 H9         -4.4826    3.6729    0.0661 H         1 <0>         0.1966
     33 H10        -1.7068   -0.8120    0.0145 H         1 <0>         0.4123
     34 H11        -3.1204   -2.4652    1.5720 H         1 <0>         0.1034
     35 H12        -4.9547   -2.3334    1.4320 H         1 <0>         0.1109
     36 H13        -6.4007   -2.5008    0.4210 H         1 <0>         0.1243
     37 H14        -8.4524   -3.1495   -0.7760 H         1 <0>         0.1236
     38 H15        -8.3375   -3.8183   -3.1430 H         1 <0>         0.1225
     39 H16        -6.1718   -3.8325   -4.3147 H         1 <0>         0.1231
     40 H17        -4.1212   -3.1768   -3.1196 H         1 <0>         0.1207
@<TRIPOS>BOND
     1    1    2 1
     2    1   26 1
     3    1   27 1
     4    1   28 1
     5    2    3 1
     6    3    8 ar
     7    3    4 ar
     8    4    5 ar
     9    4   29 1
    10    5   13 ar
    11    5    6 ar
    12    6    7 ar
    13    6   10 ar
    14    7    8 ar
    15    7   30 1
    16    8    9 1
    17    9   31 1
    18   10   11 ar
    19   10   14 1
    20   11   12 ar
    21   12   13 ar
    22   12   32 1
    23   14   15 1
    24   14   33 1
    25   15   16 1
    26   15   18 1
    27   15   17 1
    28   17   18 1
    29   17   34 1
    30   17   35 1
    31   18   19 1
    32   18   20 1
    33   20   25 ar
    34   20   21 ar
    35   21   22 ar
    36   21   36 1
    37   22   23 ar
    38   22   37 1
    39   23   24 ar
    40   23   38 1
    41   24   25 ar
    42   24   39 1
    43   25   40 1
@<TRIPOS>MOLECULE
ZINC04617811
   38    41     0     0     0
SMALL
USER_CHARGES

@<TRIPOS>ATOM
      1 C1         -1.6665    2.0319    1.4580 C.3       1 <0>        -0.1572
      2 C2         -1.2896    1.6810    0.0173 C.3       1 <0>         0.1958
      3 H1         -1.1985    2.5963   -0.5676 H         1 <0>         0.1028
      4 C3         -2.3595    0.8057   -0.5829 C.ar      1 <0>        -0.0945
      5 C4         -2.3836   -0.5476   -0.3017 C.ar      1 <0>        -0.1180
      6 C5         -3.3676   -1.3497   -0.8488 C.ar      1 <0>        -0.1152
      7 C6         -4.3218   -0.8003   -1.6845 C.ar      1 <0>        -0.1179
      8 C7         -4.2949    0.5521   -1.9695 C.ar      1 <0>        -0.1137
      9 C8         -3.3135    1.3550   -1.4190 C.ar      1 <0>        -0.1060
     10 N1         -0.0111    0.9658    0.0074 N.pl3     1 <0>        -0.7092
     11 C9          1.1800    1.6753   -0.0002 C.ar      1 <0>         0.4509
     12 C10         2.4109    1.0051   -0.0097 C.ar      1 <0>        -0.0250
     13 C11         3.5798    1.7764   -0.0227 C.ar      1 <0>         0.1714
     14 C12         4.7040    0.8276   -0.0386 C.ar      1 <0>        -0.1108
     15 C13         6.0899    0.9804   -0.0510 C.ar      1 <0>        -0.0353
     16 C14         6.9012   -0.1323   -0.0648 C.ar      1 <0>        -0.1566
     17 C15         6.3455   -1.4034   -0.0663 C.ar      1 <0>        -0.0664
     18 C16         4.9784   -1.5704   -0.0536 C.ar      1 <0>        -0.1502
     19 C17         4.1405   -0.4585   -0.0401 C.ar      1 <0>         0.1608
     20 N2          2.7649   -0.3308   -0.0262 N.pl3     1 <0>        -0.5981
     21 H2          2.1384   -1.0713   -0.0242 H         1 <0>         0.4162
     22 N3          3.4828    3.1057   -0.0146 N.ar      1 <0>        -0.5188
     23 C18         2.3047    3.6910   -0.0002 C.ar      1 <0>         0.3159
     24 N4          1.1771    3.0038    0.0070 N.ar      1 <0>        -0.5576
     25 H3         -0.8927    2.6650    1.8921 H         1 <0>         0.0673
     26 H4         -2.6178    2.5640    1.4654 H         1 <0>         0.0691
     27 H5         -1.7576    1.1166    2.0430 H         1 <0>         0.0553
     28 H6         -1.6357   -0.9775    0.3480 H         1 <0>         0.1162
     29 H7         -3.3889   -2.4062   -0.6259 H         1 <0>         0.1238
     30 H8         -5.0886   -1.4276   -2.1146 H         1 <0>         0.1241
     31 H9         -5.0404    0.9814   -2.6224 H         1 <0>         0.1260
     32 H10        -3.2922    2.4116   -1.6419 H         1 <0>         0.1265
     33 H11         0.0021   -0.0041    0.0020 H         1 <0>         0.4037
     34 H12         6.5258    1.9685   -0.0496 H         1 <0>         0.1326
     35 H13         7.9747   -0.0148   -0.0741 H         1 <0>         0.1312
     36 H14         6.9905   -2.2696   -0.0771 H         1 <0>         0.1327
     37 H15         4.5561   -2.5644   -0.0542 H         1 <0>         0.1274
     38 H16         2.2581    4.7699    0.0057 H         1 <0>         0.2008
@<TRIPOS>BOND
     1    1    2 1
     2    1   25 1
     3    1   26 1
     4    1   27 1
     5    2    3 1
     6    2    4 1
     7    2   10 1
     8    4    9 ar
     9    4    5 ar
    10    5    6 ar
    11    5   28 1
    12    6    7 ar
    13    6   29 1
    14    7    8 ar
    15    7   30 1
    16    8    9 ar
    17    8   31 1
    18    9   32 1
    19   10   11 1
    20   10   33 1
    21   11   24 ar
    22   11   12 ar
    23   12   20 1
    24   12   13 ar
    25   13   14 1
    26   13   22 ar
    27   14   19 ar
    28   14   15 ar
    29   15   16 ar
    30   15   34 1
    31   16   17 ar
    32   16   35 1
    33   17   18 ar
    34   17   36 1
    35   18   19 ar
    36   18   37 1
    37   19   20 1
    38   20   21 1
    39   22   23 ar
    40   23   24 ar
    41   23   38 1
@<TRIPOS>MOLECULE
ZINC04617812
   37    40     0     0     0
SMALL
USER_CHARGES

@<TRIPOS>ATOM
      1 C1          3.0725    9.6993   -1.4114 C.3       1 <0>        -0.1578
      2 C2          3.1305    9.1680    0.0223 C.3       1 <0>         0.1926
      3 H1          2.3624    9.6563    0.6221 H         1 <0>         0.1037
      4 C3          4.4872    9.4579    0.6108 C.ar      1 <0>        -0.0963
      5 C4          5.5609    8.6418    0.3073 C.ar      1 <0>        -0.1162
      6 C5          6.8064    8.9103    0.8437 C.ar      1 <0>        -0.1141
      7 C6          6.9760    9.9891    1.6912 C.ar      1 <0>        -0.1169
      8 C7          5.9012   10.8023    1.9985 C.ar      1 <0>        -0.1144
      9 C8          4.6567   10.5364    1.4587 C.ar      1 <0>        -0.1055
     10 N1          2.8995    7.7214    0.0167 N.pl3     1 <0>        -0.6975
     11 C9          1.6049    7.2261    0.0269 C.ar      1 <0>         0.4969
     12 C10         1.3653    5.8580    0.0214 C.ar      1 <0>        -0.2872
     13 C11         0.0585    5.3566    0.0308 C.ar      1 <0>         0.2194
     14 C12        -0.0700    3.8862    0.0237 C.ar      1 <0>        -0.0900
     15 C13        -1.2626    3.1289    0.0301 C.ar      1 <0>        -0.0437
     16 C14        -1.2204    1.7588    0.0174 C.ar      1 <0>        -0.1291
     17 C15        -0.0126    1.0758    0.0080 C.ar      1 <0>        -0.0730
     18 C16         1.1702    1.7877    0.0005 C.ar      1 <0>        -0.0869
     19 C17         1.1371    3.1680    0.0083 C.ar      1 <0>        -0.0800
     20 S1          2.3972    4.4181    0.0035 S.3       1 <0>         0.0723
     21 N2         -0.9311    6.2780    0.0458 N.ar      1 <0>        -0.5380
     22 C18        -0.6686    7.5604    0.0510 C.ar      1 <0>         0.3445
     23 N3          0.5581    8.0501    0.0418 N.ar      1 <0>        -0.5595
     24 H2          2.0912    9.4896   -1.8371 H         1 <0>         0.0668
     25 H3          3.2443   10.7756   -1.4072 H         1 <0>         0.0708
     26 H4          3.8405    9.2110   -2.0111 H         1 <0>         0.0577
     27 H5          5.4275    7.7966   -0.3515 H         1 <0>         0.1180
     28 H6          7.6462    8.2751    0.6034 H         1 <0>         0.1249
     29 H7          7.9483   10.1968    2.1130 H         1 <0>         0.1244
     30 H8          6.0338   11.6452    2.6606 H         1 <0>         0.1259
     31 H9          3.8170   11.1716    1.6990 H         1 <0>         0.1261
     32 H10         3.6526    7.1100    0.0059 H         1 <0>         0.4102
     33 H11        -2.2169    3.6344    0.0420 H         1 <0>         0.1359
     34 H12        -2.1448    1.2003    0.0183 H         1 <0>         0.1349
     35 H13         0.0021   -0.0041    0.0020 H         1 <0>         0.1408
     36 H14         2.1166    1.2676   -0.0117 H         1 <0>         0.1386
     37 H15        -1.4970    8.2532    0.0630 H         1 <0>         0.2018
@<TRIPOS>BOND
     1    1    2 1
     2    1   24 1
     3    1   25 1
     4    1   26 1
     5    2    3 1
     6    2    4 1
     7    2   10 1
     8    4    9 ar
     9    4    5 ar
    10    5    6 ar
    11    5   27 1
    12    6    7 ar
    13    6   28 1
    14    7    8 ar
    15    7   29 1
    16    8    9 ar
    17    8   30 1
    18    9   31 1
    19   10   11 1
    20   10   32 1
    21   11   23 ar
    22   11   12 ar
    23   12   20 1
    24   12   13 ar
    25   13   14 1
    26   13   21 ar
    27   14   19 ar
    28   14   15 ar
    29   15   16 ar
    30   15   33 1
    31   16   17 ar
    32   16   34 1
    33   17   18 ar
    34   17   35 1
    35   18   19 ar
    36   18   36 1
    37   19   20 1
    38   21   22 ar
    39   22   23 ar
    40   22   37 1
@<TRIPOS>MOLECULE
ZINC04617813
   36    38     0     0     0
SMALL
USER_CHARGES

@<TRIPOS>ATOM
      1 C1         -6.0417   -0.9542    0.0296 C.3       1 <0>         0.0202
      2 O1         -7.2855   -0.2508    0.0454 O.3       1 <0>        -0.2972
      3 C2         -7.2265    1.1070    0.0585 C.ar      1 <0>         0.1271
      4 C3         -6.0102    1.7304    0.0562 C.ar      1 <0>        -0.1488
      5 C4         -5.9513    3.1277    0.0698 C.ar      1 <0>        -0.1012
      6 C5         -7.1520    3.8847    0.0918 C.ar      1 <0>         0.1783
      7 C6         -8.3852    3.2189    0.1001 C.ar      1 <0>        -0.1794
      8 C7         -8.4150    1.8529    0.0748 C.ar      1 <0>         0.1626
      9 O2         -9.6108    1.2085    0.0767 O.3       1 <0>        -0.2962
     10 C8        -10.7858    2.0215    0.0935 C.3       1 <0>         0.0191
     11 N1         -7.0693    5.2215    0.0982 N.ar      1 <0>        -0.4928
     12 C9         -5.8998    5.8179    0.0898 C.ar      1 <0>         0.3031
     13 N2         -4.7546    5.1586    0.0752 N.ar      1 <0>        -0.5114
     14 C10        -4.7191    3.8289    0.0677 C.ar      1 <0>         0.3433
     15 N3         -3.5309    3.1591    0.0528 N.2       1 <0>        -0.2272
     16 N4         -2.4205    3.8155    0.0457 N.2       1 <0>        -0.1175
     17 C11        -1.2335    3.1463    0.0307 C.ar      1 <0>         0.0229
     18 C12        -1.2157    1.7466    0.0173 C.ar      1 <0>        -0.0462
     19 C13        -0.0126    1.0758    0.0080 C.ar      1 <0>        -0.1515
     20 C14         1.1801    1.7839    0.0004 C.ar      1 <0>         0.1590
     21 C15         1.1703    3.1719    0.0079 C.ar      1 <0>        -0.0889
     22 C16        -0.0270    3.8555    0.0230 C.ar      1 <0>         0.0035
     23 Cl1         2.6685    4.0489   -0.0023 Cl        1 <0>        -0.0276
     24 F1          2.3565    1.1197   -0.0149 F         1 <0>        -0.1127
     25 H1         -6.2314   -2.0275    0.0202 H         1 <0>         0.1076
     26 H2         -5.4787   -0.6769   -0.8616 H         1 <0>         0.0607
     27 H3         -5.4663   -0.6947    0.9182 H         1 <0>         0.0607
     28 H4         -5.1008    1.1480    0.0437 H         1 <0>         0.1565
     29 H5         -9.3065    3.7822    0.1127 H         1 <0>         0.1595
     30 H6        -11.6693    1.3831    0.0933 H         1 <0>         0.1085
     31 H7        -10.7858    2.6415    0.9900 H         1 <0>         0.0629
     32 H8        -10.7986    2.6599   -0.7898 H         1 <0>         0.0628
     33 H9         -5.8723    6.8975    0.0953 H         1 <0>         0.2023
     34 H10        -2.1434    1.1936    0.0183 H         1 <0>         0.1563
     35 H11         0.0021   -0.0041    0.0020 H         1 <0>         0.1576
     36 H12        -0.0338    4.9355    0.0285 H         1 <0>         0.1638
@<TRIPOS>BOND
     1    1    2 1
     2    1   25 1
     3    1   26 1
     4    1   27 1
     5    2    3 1
     6    3    8 ar
     7    3    4 ar
     8    4    5 ar
     9    4   28 1
    10    5   14 ar
    11    5    6 ar
    12    6    7 ar
    13    6   11 ar
    14    7    8 ar
    15    7   29 1
    16    8    9 1
    17    9   10 1
    18   10   30 1
    19   10   31 1
    20   10   32 1
    21   11   12 ar
    22   12   13 ar
    23   12   33 1
    24   13   14 ar
    25   14   15 1
    26   15   16 2
    27   16   17 1
    28   17   22 ar
    29   17   18 ar
    30   18   19 ar
    31   18   34 1
    32   19   20 ar
    33   19   35 1
    34   20   21 ar
    35   20   24 1
    36   21   22 ar
    37   21   23 1
    38   22   36 1
@<TRIPOS>MOLECULE
ZINC04617814
   43    46     0     0     0
SMALL
USER_CHARGES

@<TRIPOS>ATOM
      1 C1         -5.5266    3.7206   -5.2320 C.3       1 <0>         0.0228
      2 O1         -6.5241    2.7819   -4.8248 O.3       1 <0>        -0.3018
      3 C2         -6.4612    2.3311   -3.5434 C.ar      1 <0>         0.1029
      4 C3         -5.4714    2.7816   -2.7167 C.ar      1 <0>        -0.1420
      5 C4         -5.4091    2.3226   -1.3956 C.ar      1 <0>        -0.1917
      6 C5         -6.3637    1.3860   -0.9275 C.ar      1 <0>         0.2018
      7 C6         -7.3694    0.9373   -1.7922 C.ar      1 <0>        -0.1861
      8 C7         -7.4125    1.4089   -3.0856 C.ar      1 <0>         0.1620
      9 O2         -8.3871    0.9752   -3.9268 O.3       1 <0>        -0.2986
     10 C8         -9.3265    0.0353   -3.4015 C.3       1 <0>         0.0208
     11 N1         -6.2777    0.9570    0.3415 N.ar      1 <0>        -0.5529
     12 C9         -5.3239    1.3948    1.1282 C.ar      1 <0>         0.3467
     13 N2         -4.4080    2.2652    0.7335 N.ar      1 <0>        -0.5933
     14 C10        -4.4012    2.7529   -0.5000 C.ar      1 <0>         0.4758
     15 N3         -3.4407    3.6598   -0.8976 N.pl3     1 <0>        -0.6904
     16 C11        -2.4100    4.0967    0.0473 C.3       1 <0>         0.1930
     17 H1         -2.8255    4.1696    1.0523 H         1 <0>         0.1115
     18 C12        -1.8222    5.4547   -0.3914 C.3       1 <0>        -0.1265
     19 C13        -0.3439    5.3289    0.0340 C.3       1 <0>        -0.0800
     20 C14        -0.0535    3.8434    0.0232 C.ar      1 <0>        -0.0939
     21 C15        -1.2410    3.1352    0.0308 C.ar      1 <0>        -0.1099
     22 C16        -1.2178    1.7509    0.0173 C.ar      1 <0>        -0.0823
     23 C17        -0.0126    1.0758    0.0080 C.ar      1 <0>        -0.1243
     24 C18         1.1744    1.7838    0.0004 C.ar      1 <0>        -0.1126
     25 C19         1.1533    3.1650    0.0080 C.ar      1 <0>        -0.1101
     26 H2         -5.5874    4.6103   -4.6052 H         1 <0>         0.0563
     27 H3         -4.5396    3.2698   -5.1283 H         1 <0>         0.0562
     28 H4         -5.6918    3.9977   -6.2731 H         1 <0>         0.1057
     29 H5         -4.7433    3.4921   -3.0792 H         1 <0>         0.1375
     30 H6         -8.1057    0.2263   -1.4476 H         1 <0>         0.1539
     31 H7        -10.0486   -0.2274   -4.1746 H         1 <0>         0.1064
     32 H8         -8.7998   -0.8619   -3.0764 H         1 <0>         0.0614
     33 H9         -9.8478    0.4782   -2.5528 H         1 <0>         0.0615
     34 H10        -5.2843    1.0292    2.1437 H         1 <0>         0.1937
     35 H11        -3.4479    4.0082   -1.8029 H         1 <0>         0.4090
     36 H12        -1.9053    5.5824   -1.4707 H         1 <0>         0.0784
     37 H13        -2.3109    6.2759    0.1329 H         1 <0>         0.0883
     38 H14        -0.2028    5.7347    1.0358 H         1 <0>         0.0867
     39 H15         0.2998    5.8453   -0.6782 H         1 <0>         0.0806
     40 H16        -2.1450    1.1971    0.0187 H         1 <0>         0.1158
     41 H17         0.0021   -0.0041    0.0020 H         1 <0>         0.1226
     42 H18         2.1175    1.2576   -0.0118 H         1 <0>         0.1244
     43 H19         2.0813    3.7175    0.0025 H         1 <0>         0.1210
@<TRIPOS>BOND
     1    1    2 1
     2    1   26 1
     3    1   27 1
     4    1   28 1
     5    2    3 1
     6    3    8 ar
     7    3    4 ar
     8    4    5 ar
     9    4   29 1
    10    5   14 ar
    11    5    6 ar
    12    6    7 ar
    13    6   11 ar
    14    7    8 ar
    15    7   30 1
    16    8    9 1
    17    9   10 1
    18   10   31 1
    19   10   32 1
    20   10   33 1
    21   11   12 ar
    22   12   13 ar
    23   12   34 1
    24   13   14 ar
    25   14   15 1
    26   15   16 1
    27   15   35 1
    28   16   17 1
    29   16   21 1
    30   16   18 1
    31   18   19 1
    32   18   36 1
    33   18   37 1
    34   19   20 1
    35   19   38 1
    36   19   39 1
    37   20   25 ar
    38   20   21 ar
    39   21   22 ar
    40   22   23 ar
    41   22   40 1
    42   23   24 ar
    43   23   41 1
    44   24   25 ar
    45   24   42 1
    46   25   43 1
