@<TRIPOS>MOLECULE
ZINC00601820
   40    43     0     0     0
SMALL
USER_CHARGES

@<TRIPOS>ATOM
      1 C1          0.0591    1.0896    0.1025 C.3       1 <0>         0.0693
      2 N1         -0.4512    1.5807    1.3849 N.am      1 <0>        -0.5058
      3 C2         -0.5646    2.9313    1.5982 C.ar      1 <0>         0.4657
      4 C3         -1.0598    3.4211    2.8262 C.ar      1 <0>        -0.2716
      5 C4         -1.4333    2.5225    3.8517 C.2       1 <0>         0.0285
      6 C5         -1.3114    1.1768    3.6318 C.2       1 <0>        -0.1597
      7 C6         -0.7992    0.7020    2.3445 C.2       1 <0>         0.5572
      8 O1         -0.6876   -0.4937    2.1405 O.2       1 <0>        -0.5003
      9 C7         -1.6939    0.2094    4.6868 C.ar      1 <0>        -0.0120
     10 C8         -0.7486   -0.2216    5.6184 C.ar      1 <0>        -0.0062
     11 C9         -1.1129   -1.1199    6.6022 C.ar      1 <0>        -0.1062
     12 C10        -2.4088   -1.6003    6.6589 C.ar      1 <0>        -0.0866
     13 C11        -3.3493   -1.1811    5.7353 C.ar      1 <0>        -0.1061
     14 C12        -2.9995   -0.2791    4.7496 C.ar      1 <0>        -0.0062
     15 Cl1        -4.1812    0.2452    3.5911 Cl        1 <0>        -0.0500
     16 Cl2         0.8802    0.3746    5.5445 Cl        1 <0>        -0.0501
     17 C13        -1.1651    4.8089    3.0016 C.ar      1 <0>         0.2644
     18 N2         -0.8015    5.6004    2.0099 N.ar      1 <0>        -0.5677
     19 C14        -0.3442    5.1038    0.8660 C.ar      1 <0>         0.6075
     20 N3         -0.2270    3.8022    0.6537 N.ar      1 <0>        -0.5907
     21 N4          0.0231    5.9781   -0.1398 N.pl3     1 <0>        -0.6248
     22 C15        -0.1964    7.3460    0.0113 C.ar      1 <0>         0.2029
     23 C16        -1.3017    7.8194    0.7175 C.ar      1 <0>        -0.1666
     24 C17        -1.4807    9.1807    0.8480 C.ar      1 <0>         0.1183
     25 N5         -0.6279   10.0303    0.3069 N.ar      1 <0>        -0.4967
     26 C18         0.4274    9.6218   -0.3726 C.ar      1 <0>         0.1208
     27 C19         0.6804    8.2770   -0.5446 C.ar      1 <0>        -0.2009
     28 H1          0.0840   -0.0001    0.1147 H         1 <0>         0.1015
     29 H2          1.0660    1.4743   -0.0592 H         1 <0>         0.0806
     30 H3         -0.5932    1.4291   -0.7022 H         1 <0>         0.0808
     31 H4         -1.8093    2.8921    4.7943 H         1 <0>         0.1520
     32 H5         -0.3832   -1.4511    7.3264 H         1 <0>         0.1441
     33 H6         -2.6874   -2.3060    7.4275 H         1 <0>         0.1458
     34 H7         -4.3594   -1.5602    5.7848 H         1 <0>         0.1442
     35 H8         -1.5356    5.2210    3.9287 H         1 <0>         0.1903
     36 H9          0.4337    5.6395   -0.9508 H         1 <0>         0.4296
     37 H10        -2.0057    7.1297    1.1593 H         1 <0>         0.1460
     38 H11        -2.3320    9.5564    1.3964 H         1 <0>         0.1597
     39 H12         1.1010   10.3500   -0.7996 H         1 <0>         0.1605
     40 H13         1.5454    7.9496   -1.1023 H         1 <0>         0.1380
@<TRIPOS>BOND
     1    1    2 1
     2    1   28 1
     3    1   29 1
     4    1   30 1
     5    2    7 am
     6    2    3 1
     7    3   20 ar
     8    3    4 ar
     9    4    5 1
    10    4   17 ar
    11    5    6 2
    12    5   31 1
    13    6    7 1
    14    6    9 1
    15    7    8 2
    16    9   14 ar
    17    9   10 ar
    18   10   11 ar
    19   10   16 1
    20   11   12 ar
    21   11   32 1
    22   12   13 ar
    23   12   33 1
    24   13   14 ar
    25   13   34 1
    26   14   15 1
    27   17   18 ar
    28   17   35 1
    29   18   19 ar
    30   19   20 ar
    31   19   21 1
    32   21   22 1
    33   21   36 1
    34   22   27 ar
    35   22   23 ar
    36   23   24 ar
    37   23   37 1
    38   24   25 ar
    39   24   38 1
    40   25   26 ar
    41   26   27 ar
    42   26   39 1
    43   27   40 1
@<TRIPOS>MOLECULE
ZINC00838734
   41    44     0     0     0
SMALL
USER_CHARGES

@<TRIPOS>ATOM
      1 C1          0.0685    1.0902    0.1116 C.3       1 <0>         0.0700
      2 N1         -0.4262    1.5833    1.3993 N.am      1 <0>        -0.5062
      3 C2         -0.5385    2.9342    1.6114 C.ar      1 <0>         0.4666
      4 C3         -1.0181    3.4258    2.8448 C.ar      1 <0>        -0.2773
      5 C4         -1.3769    2.5290    3.8769 C.2       1 <0>         0.0314
      6 C5         -1.2565    1.1829    3.6581 C.2       1 <0>        -0.1644
      7 C6         -0.7608    0.7061    2.3651 C.2       1 <0>         0.5577
      8 O1         -0.6510   -0.4900    2.1618 O.2       1 <0>        -0.5028
      9 C7         -1.6239    0.2172    4.7199 C.ar      1 <0>        -0.0100
     10 C8         -0.6659   -0.2109    5.6398 C.ar      1 <0>        -0.0065
     11 C9         -1.0162   -1.1072    6.6305 C.ar      1 <0>        -0.1064
     12 C10        -2.3108   -1.5889    6.7053 C.ar      1 <0>        -0.0874
     13 C11        -3.2639   -1.1726    5.7933 C.ar      1 <0>        -0.1064
     14 C12        -2.9280   -0.2726    4.8010 C.ar      1 <0>        -0.0065
     15 Cl1        -4.1254    0.2477    3.6568 Cl        1 <0>        -0.0502
     16 Cl2         0.9613    0.3864    5.5428 Cl        1 <0>        -0.0503
     17 C13        -1.1230    4.8140    3.0188 C.ar      1 <0>         0.2641
     18 N2         -0.7738    5.6039    2.0208 N.ar      1 <0>        -0.5672
     19 C14        -0.3311    5.1056    0.8717 C.ar      1 <0>         0.6086
     20 N3         -0.2145    3.8035    0.6608 N.ar      1 <0>        -0.5951
     21 N4          0.0210    5.9779   -0.1404 N.pl3     1 <0>        -0.6261
     22 C15        -0.1997    7.3500    0.0111 C.ar      1 <0>         0.1544
     23 C16        -1.3057    7.8032    0.7189 C.ar      1 <0>        -0.1097
     24 C17        -1.5178    9.1593    0.8713 C.ar      1 <0>        -0.1005
     25 C18        -0.6364   10.0658    0.3112 C.ar      1 <0>        -0.1327
     26 C19         0.4626    9.6181   -0.3989 C.ar      1 <0>        -0.0995
     27 C20         0.6834    8.2633   -0.5505 C.ar      1 <0>        -0.1436
     28 H1          0.0950    0.0006    0.1257 H         1 <0>         0.1007
     29 H2          1.0729    1.4758   -0.0636 H         1 <0>         0.0801
     30 H3         -0.5942    1.4272   -0.6854 H         1 <0>         0.0803
     31 H4         -1.7408    2.9001    4.8236 H         1 <0>         0.1507
     32 H5         -0.2768   -1.4359    7.3458 H         1 <0>         0.1438
     33 H6         -2.5784   -2.2933    7.4789 H         1 <0>         0.1454
     34 H7         -4.2729   -1.5525    5.8572 H         1 <0>         0.1438
     35 H8         -1.4816    5.2275    3.9499 H         1 <0>         0.1883
     36 H9          0.4212    5.6382   -0.9561 H         1 <0>         0.4264
     37 H10        -1.9966    7.0958    1.1531 H         1 <0>         0.1341
     38 H11        -2.3753    9.5123    1.4249 H         1 <0>         0.1262
     39 H12        -0.8068   11.1258    0.4283 H         1 <0>         0.1239
     40 H13         1.1490   10.3287   -0.8350 H         1 <0>         0.1271
     41 H14         1.5417    7.9142   -1.1055 H         1 <0>         0.1251
@<TRIPOS>BOND
     1    1    2 1
     2    1   28 1
     3    1   29 1
     4    1   30 1
     5    2    7 am
     6    2    3 1
     7    3   20 ar
     8    3    4 ar
     9    4    5 1
    10    4   17 ar
    11    5    6 2
    12    5   31 1
    13    6    7 1
    14    6    9 1
    15    7    8 2
    16    9   14 ar
    17    9   10 ar
    18   10   11 ar
    19   10   16 1
    20   11   12 ar
    21   11   32 1
    22   12   13 ar
    23   12   33 1
    24   13   14 ar
    25   13   34 1
    26   14   15 1
    27   17   18 ar
    28   17   35 1
    29   18   19 ar
    30   19   20 ar
    31   19   21 1
    32   21   22 1
    33   21   36 1
    34   22   27 ar
    35   22   23 ar
    36   23   24 ar
    37   23   37 1
    38   24   25 ar
    39   24   38 1
    40   25   26 ar
    41   25   39 1
    42   26   27 ar
    43   26   40 1
    44   27   41 1
@<TRIPOS>MOLECULE
ZINC01546258
   53    55     0     0     0
SMALL
USER_CHARGES

@<TRIPOS>ATOM
      1 C1         -1.0887    7.6775    1.3033 C.3       1 <0>        -0.1663
      2 C2         -0.3113    8.0808    0.0487 C.3       1 <0>         0.1877
      3 C3         -0.0830    9.5937    0.0546 C.3       1 <0>        -0.1554
      4 C4         -1.1124    7.6908   -1.1951 C.3       1 <0>        -0.1662
      5 N1          0.9815    7.3919    0.0329 N.am      1 <0>        -0.7353
      6 C5          1.0273    6.0450    0.0253 C.2       1 <0>         0.6901
      7 O1         -0.0042    5.4017    0.0317 O.2       1 <0>        -0.5044
      8 N2          2.2167    5.4112    0.0107 N.am      1 <0>        -0.6633
      9 C6          2.2638    4.0247    0.0029 C.ar      1 <0>         0.4750
     10 C7          3.5175    3.3772   -0.0124 C.ar      1 <0>        -0.1647
     11 C8          3.5690    1.9924   -0.0207 C.ar      1 <0>         0.0437
     12 C9          2.3538    1.2883   -0.0134 C.ar      1 <0>        -0.2965
     13 C10         2.3093   -0.1165   -0.0206 C.ar      1 <0>         0.2662
     14 N3          1.1320   -0.7081   -0.0126 N.ar      1 <0>        -0.5715
     15 C11         0.0021   -0.0041    0.0020 C.ar      1 <0>         0.5958
     16 N4         -0.0158    1.3153    0.0093 N.ar      1 <0>        -0.5643
     17 C12         1.1301    2.0077    0.0021 C.ar      1 <0>         0.4294
     18 N5          1.1372    3.3420    0.0095 N.ar      1 <0>        -0.4758
     19 N6         -1.2015   -0.6830    0.0094 N.pl3     1 <0>        -0.8106
     20 C13         4.7693    4.1719   -0.0200 C.ar      1 <0>         0.0404
     21 C14         4.9368    5.2020   -0.9432 C.ar      1 <0>        -0.1979
     22 C15         6.1054    5.9464   -0.9438 C.ar      1 <0>         0.1772
     23 C16         7.1125    5.6599   -0.0338 C.ar      1 <0>        -0.2963
     24 C17         6.9514    4.6311    0.8826 C.ar      1 <0>         0.1767
     25 C18         5.7831    3.8866    0.8924 C.ar      1 <0>        -0.1729
     26 O2          7.9407    4.3534    1.7721 O.3       1 <0>        -0.3102
     27 C19         9.1180    5.1606    1.7060 C.3       1 <0>         0.0250
     28 O3          6.2671    6.9551   -1.8400 O.3       1 <0>        -0.3107
     29 C20         7.4986    7.6781   -1.7878 C.3       1 <0>         0.0249
     30 H1         -0.5180    7.9554    2.1894 H         1 <0>         0.0525
     31 H2         -2.0506    8.1901    1.3151 H         1 <0>         0.0638
     32 H3         -1.2514    6.5997    1.2991 H         1 <0>         0.0817
     33 H4          0.4708    9.8810   -0.8392 H         1 <0>         0.0624
     34 H5         -1.0449   10.1063    0.0664 H         1 <0>         0.0764
     35 H6          0.4877    9.8716    0.9407 H         1 <0>         0.0620
     36 H7         -1.2750    6.6130   -1.1992 H         1 <0>         0.0817
     37 H8         -2.0743    8.2033   -1.1832 H         1 <0>         0.0637
     38 H9         -0.5585    7.9781   -2.0888 H         1 <0>         0.0529
     39 H10         1.8046    7.9052    0.0278 H         1 <0>         0.3944
     40 H11         3.0397    5.9245    0.0056 H         1 <0>         0.4167
     41 H12         4.5146    1.4707   -0.0328 H         1 <0>         0.1552
     42 H13         3.2195   -0.6978   -0.0320 H         1 <0>         0.1816
     43 H14        -2.0366   -0.1897    0.0197 H         1 <0>         0.4185
     44 H15        -1.2112   -1.6530    0.0043 H         1 <0>         0.4170
     45 H16         4.1548    5.4227   -1.6547 H         1 <0>         0.1357
     46 H17         8.0241    6.2390   -0.0391 H         1 <0>         0.1377
     47 H18         5.6583    3.0857    1.6061 H         1 <0>         0.1385
     48 H19         9.5731    5.0593    0.7208 H         1 <0>         0.0572
     49 H20         8.8534    6.2039    1.8784 H         1 <0>         0.0568
     50 H21         9.8255    4.8344    2.4683 H         1 <0>         0.1047
     51 H22         8.3290    6.9943   -1.9635 H         1 <0>         0.0573
     52 H23         7.4977    8.4532   -2.5542 H         1 <0>         0.1047
     53 H24         7.6083    8.1383   -0.8058 H         1 <0>         0.0573
@<TRIPOS>BOND
     1    1    2 1
     2    1   30 1
     3    1   31 1
     4    1   32 1
     5    2    3 1
     6    2    4 1
     7    2    5 1
     8    3   33 1
     9    3   34 1
    10    3   35 1
    11    4   36 1
    12    4   37 1
    13    4   38 1
    14    5    6 am
    15    5   39 1
    16    6    7 2
    17    6    8 am
    18    8    9 1
    19    8   40 1
    20    9   18 ar
    21    9   10 ar
    22   10   11 ar
    23   10   20 1
    24   11   12 ar
    25   11   41 1
    26   12   17 ar
    27   12   13 ar
    28   13   14 ar
    29   13   42 1
    30   14   15 ar
    31   15   16 ar
    32   15   19 1
    33   16   17 ar
    34   17   18 ar
    35   19   43 1
    36   19   44 1
    37   20   25 ar
    38   20   21 ar
    39   21   22 ar
    40   21   45 1
    41   22   23 ar
    42   22   28 1
    43   23   24 ar
    44   23   46 1
    45   24   25 ar
    46   24   26 1
    47   25   47 1
    48   26   27 1
    49   27   48 1
    50   27   49 1
    51   27   50 1
    52   28   29 1
    53   29   51 1
    54   29   52 1
    55   29   53 1
@<TRIPOS>MOLECULE
ZINC02006382
   57    59     0     0     0
SMALL
USER_CHARGES

@<TRIPOS>ATOM
      1 C1          2.2640   10.7426   -2.2181 C.3       1 <0>        -0.1873
      2 C2          3.3734   10.5555   -1.1812 C.3       1 <0>        -0.0144
      3 C3          2.5236   12.3752    0.1712 C.3       1 <0>        -0.0122
      4 C4          3.8003   13.2176    0.1344 C.3       1 <0>        -0.1902
      5 C5          1.7357   10.1168    0.5475 C.3       1 <0>        -0.0109
      6 C6          2.2033    8.6739    0.7483 C.3       1 <0>        -0.1475
      7 C7          1.0150    7.8066    1.1686 C.3       1 <0>        -0.1336
      8 C8          1.4825    6.3637    1.3694 C.3       1 <0>         0.1082
      9 N1          0.3447    5.5332    1.7719 N.pl3     1 <0>        -0.7073
     10 C9          0.5252    4.1791    2.0130 C.ar      1 <0>         0.4708
     11 C10         1.7896    3.6249    1.8689 C.ar      1 <0>        -0.2570
     12 C11         1.9593    2.2676    2.1129 C.ar      1 <0>         0.3334
     13 C12         0.8314    1.5098    2.4984 C.ar      1 <0>        -0.1536
     14 C13         0.9656    0.1248    2.7558 C.2       1 <0>        -0.0213
     15 C14         2.1956   -0.4603    2.6255 C.2       1 <0>        -0.0863
     16 C15         3.3447    0.3543    2.2240 C.2       1 <0>         0.5426
     17 O1          4.4422   -0.1611    2.1060 O.2       1 <0>        -0.4468
     18 N2          3.1927    1.6715    1.9842 N.am      1 <0>        -0.6197
     19 H1          3.9826    2.2202    1.7105 H         1 <0>         0.4405
     20 C16         2.3639   -1.9086    2.8885 C.ar      1 <0>        -0.0488
     21 C17         2.6850   -2.3553    4.1709 C.ar      1 <0>        -0.0019
     22 C18         2.8348   -3.7072    4.4105 C.ar      1 <0>        -0.1009
     23 C19         2.6784   -4.6168    3.3802 C.ar      1 <0>        -0.0707
     24 C20         2.3657   -4.1802    2.1054 C.ar      1 <0>        -0.1009
     25 C21         2.2075   -2.8315    1.8536 C.ar      1 <0>        -0.0020
     26 Cl1         1.8156   -2.2855    0.2529 Cl        1 <0>        -0.0489
     27 Cl2         2.8892   -1.2147    5.4636 Cl        1 <0>        -0.0487
     28 C22        -0.4068    2.1507    2.6249 C.ar      1 <0>         0.2337
     29 H2          1.4000   10.1396   -1.9387 H         1 <0>         0.0774
     30 H3          1.9764   11.7933   -2.2569 H         1 <0>         0.0829
     31 H4          2.6251   10.4283   -3.1973 H         1 <0>         0.1079
     32 H5          4.2286   11.1764   -1.4480 H         1 <0>         0.1326
     33 H6          3.6771    9.5089   -1.1589 H         1 <0>         0.1272
     34 H7          1.9061   12.6133   -0.6949 H         1 <0>         0.1338
     35 H8          1.9695   12.5949    1.0839 H         1 <0>         0.1294
     36 H9          4.4165   12.9815    1.0020 H         1 <0>         0.0810
     37 H10         4.3557   12.9959   -0.7769 H         1 <0>         0.0805
     38 H11         3.5382   14.2754    0.1520 H         1 <0>         0.1091
     39 H12         0.9716   10.1464   -0.2292 H         1 <0>         0.1351
     40 H13         1.3203   10.4973    1.4806 H         1 <0>         0.1312
     41 H14         2.9674    8.6443    1.5250 H         1 <0>         0.0946
     42 H15         2.6187    8.2934   -0.1848 H         1 <0>         0.0944
     43 H16         0.2508    7.8362    0.3919 H         1 <0>         0.0892
     44 H17         0.5995    8.1871    2.1017 H         1 <0>         0.0899
     45 H18         2.2466    6.3341    2.1462 H         1 <0>         0.0916
     46 H19         1.8979    5.9832    0.4363 H         1 <0>         0.0912
     47 H20        -0.5349    5.9302    1.8698 H         1 <0>         0.4213
     48 H21         2.6274    4.2384    1.5718 H         1 <0>         0.1838
     49 H22         0.1087   -0.4626    3.0507 H         1 <0>         0.1700
     50 H23         3.0789   -4.0546    5.4036 H         1 <0>         0.1512
     51 H24         2.8014   -5.6726    3.5718 H         1 <0>         0.1537
     52 H25         2.2446   -4.8956    1.3054 H         1 <0>         0.1512
     53 H26        -1.2773    1.5850    2.9229 H         1 <0>         0.2133
     54 N3          2.8978   10.9453    0.1629 N.4       1 <0>        -0.3964
     55 H27         3.6539   10.7945    0.8409 H         1 <0>         0.4288
     56 N4         -0.5897    3.4740    2.3852 N.ar      1 <0>        -0.5484
     57 H28        -1.5096    3.9208    2.4772 H         1 <0>         0.4743
@<TRIPOS>BOND
     1    1    2 1
     2    1   29 1
     3    1   30 1
     4    1   31 1
     5    2   32 1
     6    2   33 1
     7    2   54 1
     8    3    4 1
     9    3   34 1
    10    3   35 1
    11    3   54 1
    12    4   36 1
    13    4   37 1
    14    4   38 1
    15    5    6 1
    16    5   39 1
    17    5   40 1
    18    5   54 1
    19    6    7 1
    20    6   41 1
    21    6   42 1
    22    7    8 1
    23    7   43 1
    24    7   44 1
    25    8    9 1
    26    8   45 1
    27    8   46 1
    28    9   10 1
    29    9   47 1
    30   10   11 ar
    31   10   56 ar
    32   11   12 ar
    33   11   48 1
    34   12   18 1
    35   12   13 ar
    36   13   14 1
    37   13   28 ar
    38   14   15 2
    39   14   49 1
    40   15   16 1
    41   15   20 1
    42   16   17 2
    43   16   18 am
    44   18   19 1
    45   20   25 ar
    46   20   21 ar
    47   21   22 ar
    48   21   27 1
    49   22   23 ar
    50   22   50 1
    51   23   24 ar
    52   23   51 1
    53   24   25 ar
    54   24   52 1
    55   25   26 1
    56   28   53 1
    57   28   56 ar
    58   54   55 1
    59   56   57 1
@<TRIPOS>MOLECULE
ZINC02006385
   61    64     0     0     0
SMALL
USER_CHARGES

@<TRIPOS>ATOM
      1 C1          0.0021   -0.0041    0.0020 C.3       1 <0>         0.0428
      2 N1         -0.0178    1.4608    0.0101 N.am      1 <0>        -0.5080
      3 C2         -1.2216    2.1269    0.0194 C.ar      1 <0>         0.3283
      4 C3         -2.4255    1.4324    0.0320 C.ar      1 <0>        -0.2544
      5 C4         -3.6131    2.1500    0.0463 C.ar      1 <0>         0.4655
      6 C5         -2.5054    4.1825    0.0466 C.ar      1 <0>         0.2321
      7 C6         -1.2621    3.5384    0.0322 C.ar      1 <0>        -0.1433
      8 C7         -0.0566    4.2794    0.0247 C.2       1 <0>        -0.0302
      9 C8          1.1365    3.6096    0.0101 C.2       1 <0>        -0.0739
     10 C9          1.1430    2.1450    0.0027 C.2       1 <0>         0.5373
     11 O1          2.2020    1.5430   -0.0099 O.2       1 <0>        -0.4388
     12 C10         2.4133    4.3610    0.0015 C.ar      1 <0>        -0.0546
     13 C11         3.0084    4.7175   -1.2093 C.ar      1 <0>        -0.0013
     14 C12         4.1956    5.4234   -1.2103 C.ar      1 <0>        -0.0995
     15 C13         4.8007    5.7666   -0.0147 C.ar      1 <0>        -0.0675
     16 C14         4.2192    5.4109    1.1890 C.ar      1 <0>        -0.0996
     17 C15         3.0290    4.7103    1.2040 C.ar      1 <0>        -0.0013
     18 Cl1         2.3008    4.2649    2.7157 Cl        1 <0>        -0.0500
     19 Cl2         2.2543    4.2815   -2.7109 Cl        1 <0>        -0.0495
     20 N2         -4.8205    1.4669    0.0541 N.pl3     1 <0>        -0.7196
     21 C16        -4.8333    0.0019    0.0468 C.3       1 <0>         0.1165
     22 C17        -6.2801   -0.4955    0.0578 C.3       1 <0>        -0.1701
     23 C18        -6.2935   -2.0254    0.0502 C.3       1 <0>        -0.0027
     24 C19        -8.3488   -2.1571    1.3241 C.3       1 <0>        -0.0327
     25 C20        -9.8125   -2.6003    1.2639 C.3       1 <0>        -0.0269
     26 C21        -9.2073   -4.3940   -0.2444 C.3       1 <0>        -0.0278
     27 C22        -7.7436   -3.9508   -0.1842 C.3       1 <0>        -0.0261
     28 C23       -11.2627   -4.5257    1.0295 C.3       1 <0>        -0.0475
     29 H1          1.0345   -0.3534   -0.0097 H         1 <0>         0.1220
     30 H2         -0.4983   -0.3791    0.8948 H         1 <0>         0.0911
     31 H3         -0.5153   -0.3696   -0.8850 H         1 <0>         0.0913
     32 H4         -2.4366    0.3525    0.0263 H         1 <0>         0.1826
     33 H5         -2.5521    5.2614    0.0521 H         1 <0>         0.2156
     34 H6         -0.0780    5.3592    0.0300 H         1 <0>         0.1726
     35 H7          4.6545    5.7045   -2.1467 H         1 <0>         0.1527
     36 H8          5.7314    6.3144   -0.0210 H         1 <0>         0.1557
     37 H9          4.6967    5.6818    2.1190 H         1 <0>         0.1526
     38 H10        -5.6562    1.9591    0.0644 H         1 <0>         0.4203
     39 H11        -4.3310   -0.3613   -0.8498 H         1 <0>         0.0982
     40 H12        -4.3143   -0.3703    0.9301 H         1 <0>         0.0973
     41 H13        -6.7824   -0.1322    0.9544 H         1 <0>         0.1018
     42 H14        -6.7990   -0.1232   -0.8255 H         1 <0>         0.1062
     43 H15        -5.7912   -2.3887   -0.8464 H         1 <0>         0.1505
     44 H16        -5.7745   -2.3977    0.9335 H         1 <0>         0.1484
     45 H17        -7.8490   -2.6640    2.1495 H         1 <0>         0.1595
     46 H18        -8.3014   -1.0789    1.4769 H         1 <0>         0.1714
     47 H19       -10.3192   -2.0730    0.4556 H         1 <0>         0.1564
     48 H20       -10.3012   -2.3709    2.2108 H         1 <0>         0.1772
     49 H21        -9.7071   -3.8871   -1.0699 H         1 <0>         0.1572
     50 H22        -9.2548   -5.4722   -0.3976 H         1 <0>         0.1791
     51 H23        -7.2549   -4.1803   -1.1311 H         1 <0>         0.1775
     52 H24        -7.2369   -4.4781    0.6240 H         1 <0>         0.1594
     53 H25       -11.2752   -5.6094    0.9131 H         1 <0>         0.1390
     54 H26       -11.7323   -4.2564    1.9756 H         1 <0>         0.1381
     55 H27       -11.8113   -4.0656    0.2076 H         1 <0>         0.1342
     56 N3         -3.6891    3.5189    0.0539 N.ar      1 <0>        -0.5465
     57 H28        -4.5890    4.0130    0.0644 H         1 <0>         0.4739
     58 N4         -7.6969   -2.4905    0.0403 N.4       1 <0>        -0.4067
     59 H29        -8.1991   -2.0194   -0.7213 H         1 <0>         0.4393
     60 N5         -9.8592   -4.0606    1.0394 N.4       1 <0>        -0.4066
     61 H30        -9.3570   -4.5317    1.8010 H         1 <0>         0.4415
@<TRIPOS>BOND
     1    1    2 1
     2    1   29 1
     3    1   30 1
     4    1   31 1
     5    2   10 am
     6    2    3 1
     7    3    7 ar
     8    3    4 ar
     9    4    5 ar
    10    4   32 1
    11    5   20 1
    12    5   56 ar
    13    6    7 ar
    14    6   33 1
    15    6   56 ar
    16    7    8 1
    17    8    9 2
    18    8   34 1
    19    9   10 1
    20    9   12 1
    21   10   11 2
    22   12   17 ar
    23   12   13 ar
    24   13   14 ar
    25   13   19 1
    26   14   15 ar
    27   14   35 1
    28   15   16 ar
    29   15   36 1
    30   16   17 ar
    31   16   37 1
    32   17   18 1
    33   20   21 1
    34   20   38 1
    35   21   22 1
    36   21   39 1
    37   21   40 1
    38   22   23 1
    39   22   41 1
    40   22   42 1
    41   23   43 1
    42   23   44 1
    43   23   58 1
    44   24   25 1
    45   24   45 1
    46   24   46 1
    47   24   58 1
    48   25   47 1
    49   25   48 1
    50   25   60 1
    51   26   27 1
    52   26   49 1
    53   26   50 1
    54   26   60 1
    55   27   51 1
    56   27   52 1
    57   27   58 1
    58   28   53 1
    59   28   54 1
    60   28   55 1
    61   28   60 1
    62   56   57 1
    63   58   59 1
    64   60   61 1
@<TRIPOS>MOLECULE
ZINC02047503
   45    48     0     0     0
SMALL
USER_CHARGES

@<TRIPOS>ATOM
      1 C1          0.0685    1.0902    0.1116 C.3       1 <0>         0.0699
      2 N1         -0.4262    1.5833    1.3993 N.am      1 <0>        -0.5062
      3 C2         -0.5386    2.9342    1.6113 C.ar      1 <0>         0.4668
      4 C3         -1.0182    3.4258    2.8448 C.ar      1 <0>        -0.2772
      5 C4         -1.3770    2.5290    3.8769 C.2       1 <0>         0.0314
      6 C5         -1.2566    1.1828    3.6580 C.2       1 <0>        -0.1643
      7 C6         -0.7609    0.7061    2.3650 C.2       1 <0>         0.5577
      8 O1         -0.6511   -0.4900    2.1618 O.2       1 <0>        -0.5027
      9 C7         -1.6241    0.2171    4.7198 C.ar      1 <0>        -0.0102
     10 C8         -0.6661   -0.2109    5.6397 C.ar      1 <0>        -0.0065
     11 C9         -1.0165   -1.1073    6.6304 C.ar      1 <0>        -0.1064
     12 C10        -2.3111   -1.5889    6.7051 C.ar      1 <0>        -0.0874
     13 C11        -3.2642   -1.1726    5.7932 C.ar      1 <0>        -0.1064
     14 C12        -2.9282   -0.2726    4.8008 C.ar      1 <0>        -0.0064
     15 Cl1        -4.1255    0.2477    3.6566 Cl        1 <0>        -0.0501
     16 Cl2         0.9610    0.3864    5.5428 Cl        1 <0>        -0.0503
     17 C13        -1.1231    4.8140    3.0188 C.ar      1 <0>         0.2643
     18 N2         -0.7739    5.6039    2.0208 N.ar      1 <0>        -0.5677
     19 C14        -0.3311    5.1056    0.8717 C.ar      1 <0>         0.6091
     20 N3         -0.2145    3.8035    0.6608 N.ar      1 <0>        -0.5948
     21 N4          0.0210    5.9779   -0.1404 N.pl3     1 <0>        -0.6255
     22 C15        -0.1997    7.3500    0.0111 C.ar      1 <0>         0.1535
     23 C16        -1.3058    7.8032    0.7190 C.ar      1 <0>        -0.1019
     24 C17        -1.5179    9.1592    0.8714 C.ar      1 <0>        -0.1022
     25 C18        -0.6364   10.0658    0.3112 C.ar      1 <0>        -0.1107
     26 C19         0.4624    9.6181   -0.3988 C.ar      1 <0>        -0.0740
     27 C20         0.6833    8.2631   -0.5504 C.ar      1 <0>        -0.1226
     28 C21         1.4197   10.6097   -1.0082 C.3       1 <0>         0.1166
     29 O2          0.9930   10.9310   -2.3336 O.3       1 <0>        -0.5676
     30 H1          0.0950    0.0006    0.1256 H         1 <0>         0.1008
     31 H2          1.0728    1.4758   -0.0636 H         1 <0>         0.0801
     32 H3         -0.5942    1.4272   -0.6855 H         1 <0>         0.0804
     33 H4         -1.7410    2.9000    4.8236 H         1 <0>         0.1507
     34 H5         -0.2771   -1.4360    7.3457 H         1 <0>         0.1438
     35 H6         -2.5787   -2.2934    7.4788 H         1 <0>         0.1454
     36 H7         -4.2732   -1.5525    5.8570 H         1 <0>         0.1438
     37 H8         -1.4817    5.2275    3.9498 H         1 <0>         0.1884
     38 H9          0.4212    5.6382   -0.9561 H         1 <0>         0.4268
     39 H10        -1.9968    7.0958    1.1532 H         1 <0>         0.1360
     40 H11        -2.3754    9.5121    1.4250 H         1 <0>         0.1294
     41 H12        -0.8068   11.1258    0.4283 H         1 <0>         0.1250
     42 H13         1.5416    7.9141   -1.1054 H         1 <0>         0.1259
     43 H14         1.4384   11.5159   -0.4028 H         1 <0>         0.0579
     44 H15         2.4189   10.1755   -1.0434 H         1 <0>         0.0551
     45 H16         1.5640   11.5657   -2.7877 H         1 <0>         0.3824
@<TRIPOS>BOND
     1    1    2 1
     2    1   30 1
     3    1   31 1
     4    1   32 1
     5    2    7 am
     6    2    3 1
     7    3   20 ar
     8    3    4 ar
     9    4    5 1
    10    4   17 ar
    11    5    6 2
    12    5   33 1
    13    6    7 1
    14    6    9 1
    15    7    8 2
    16    9   14 ar
    17    9   10 ar
    18   10   11 ar
    19   10   16 1
    20   11   12 ar
    21   11   34 1
    22   12   13 ar
    23   12   35 1
    24   13   14 ar
    25   13   36 1
    26   14   15 1
    27   17   18 ar
    28   17   37 1
    29   18   19 ar
    30   19   20 ar
    31   19   21 1
    32   21   22 1
    33   21   38 1
    34   22   27 ar
    35   22   23 ar
    36   23   24 ar
    37   23   39 1
    38   24   25 ar
    39   24   40 1
    40   25   26 ar
    41   25   41 1
    42   26   27 ar
    43   26   28 1
    44   27   42 1
    45   28   29 1
    46   28   43 1
    47   28   44 1
    48   29   45 1
@<TRIPOS>MOLECULE
ZINC03815223
   45    48     0     0     0
SMALL
USER_CHARGES

@<TRIPOS>ATOM
      1 C1         -3.8390    7.9998    7.4838 C.3       1 <0>         0.0697
      2 N1         -3.2868    8.9285    6.4944 N.am      1 <0>        -0.5058
      3 C2         -2.7444    8.4396    5.3328 C.ar      1 <0>         0.4664
      4 C3         -2.2079    9.3208    4.3691 C.ar      1 <0>        -0.2759
      5 C4         -2.2258   10.7164    4.5933 C.2       1 <0>         0.0305
      6 C5         -2.7695   11.1950    5.7550 C.2       1 <0>        -0.1636
      7 C6         -3.3170   10.2535    6.7341 C.2       1 <0>         0.5568
      8 O1         -3.8026   10.6709    7.7704 O.2       1 <0>        -0.5013
      9 C7         -2.8033   12.6524    6.0196 C.ar      1 <0>        -0.0102
     10 C8         -1.7424   13.2687    6.6843 C.ar      1 <0>        -0.0065
     11 C9         -1.7781   14.6284    6.9240 C.ar      1 <0>        -0.1064
     12 C10        -2.8671   15.3773    6.5156 C.ar      1 <0>        -0.0874
     13 C11        -3.9242   14.7718    5.8605 C.ar      1 <0>        -0.1064
     14 C12        -3.8988   13.4137    5.6103 C.ar      1 <0>        -0.0065
     15 Cl1        -5.2270   12.6554    4.7891 Cl        1 <0>        -0.0502
     16 Cl2        -0.3781   12.3293    7.2039 Cl        1 <0>        -0.0501
     17 C13        -1.6623    8.7799    3.1952 C.ar      1 <0>         0.2641
     18 N2         -1.6678    7.4690    3.0417 N.ar      1 <0>        -0.5651
     19 C14        -2.1863    6.6702    3.9680 C.ar      1 <0>         0.6102
     20 N3         -2.7120    7.1338    5.0914 N.ar      1 <0>        -0.5951
     21 N4         -2.1714    5.3052    3.7538 N.pl3     1 <0>        -0.6248
     22 C15        -1.7307    4.7946    2.5293 C.ar      1 <0>         0.1960
     23 C16        -1.9630    5.5024    1.3562 C.ar      1 <0>        -0.1458
     24 C17        -1.5272    4.9980    0.1466 C.ar      1 <0>        -0.0599
     25 C18        -0.8546    3.7914    0.0999 C.ar      1 <0>        -0.2207
     26 C19        -0.6244    3.0776    1.2675 C.ar      1 <0>         0.1477
     27 C20        -1.0602    3.5803    2.4836 C.ar      1 <0>        -0.1789
     28 O2          0.0329    1.8891    1.2194 O.3       1 <0>        -0.3170
     29 C21         0.4531    1.4318   -0.0676 C.3       1 <0>         0.0273
     30 H1         -3.0568    7.7078    8.1844 H         1 <0>         0.0747
     31 H2         -4.6495    8.4866    8.0263 H         1 <0>         0.0923
     32 H3         -4.2218    7.1141    6.9767 H         1 <0>         0.0953
     33 H4         -1.8168   11.3948    3.8592 H         1 <0>         0.1508
     34 H5         -0.9558   15.1074    7.4347 H         1 <0>         0.1438
     35 H6         -2.8922   16.4395    6.7094 H         1 <0>         0.1454
     36 H7         -4.7715   15.3621    5.5443 H         1 <0>         0.1438
     37 H8         -1.2424    9.4223    2.4353 H         1 <0>         0.1886
     38 H9         -2.4666    4.7013    4.4530 H         1 <0>         0.4279
     39 H10        -2.4850    6.4473    1.3903 H         1 <0>         0.1370
     40 H11        -1.7083    5.5496   -0.7641 H         1 <0>         0.1300
     41 H12        -0.5111    3.4017   -0.8469 H         1 <0>         0.1296
     42 H13        -0.8779    3.0284    3.3938 H         1 <0>         0.1338
     43 H14         0.9638    0.4744    0.0360 H         1 <0>         0.1014
     44 H15         1.1335    2.1608   -0.5079 H         1 <0>         0.0573
     45 H16        -0.4173    1.3114   -0.7124 H         1 <0>         0.0572
@<TRIPOS>BOND
     1    1    2 1
     2    1   30 1
     3    1   31 1
     4    1   32 1
     5    2    7 am
     6    2    3 1
     7    3   20 ar
     8    3    4 ar
     9    4    5 1
    10    4   17 ar
    11    5    6 2
    12    5   33 1
    13    6    7 1
    14    6    9 1
    15    7    8 2
    16    9   14 ar
    17    9   10 ar
    18   10   11 ar
    19   10   16 1
    20   11   12 ar
    21   11   34 1
    22   12   13 ar
    23   12   35 1
    24   13   14 ar
    25   13   36 1
    26   14   15 1
    27   17   18 ar
    28   17   37 1
    29   18   19 ar
    30   19   20 ar
    31   19   21 1
    32   21   22 1
    33   21   38 1
    34   22   27 ar
    35   22   23 ar
    36   23   24 ar
    37   23   39 1
    38   24   25 ar
    39   24   40 1
    40   25   26 ar
    41   25   41 1
    42   26   27 ar
    43   26   28 1
    44   27   42 1
    45   28   29 1
    46   29   43 1
    47   29   44 1
    48   29   45 1
@<TRIPOS>MOLECULE
ZINC03815240
   63    66     0     0     0
SMALL
USER_CHARGES

@<TRIPOS>ATOM
      1 C1          4.3966   -4.7837   -2.5468 C.3       1 <0>        -0.1870
      2 C2          2.8964   -4.6021   -2.7861 C.3       1 <0>        -0.0162
      3 C3          2.4461   -6.8910   -2.1372 C.3       1 <0>        -0.0118
      4 C4          1.8425   -7.2999   -3.4823 C.3       1 <0>        -0.1890
      5 C5          2.4154   -5.1324   -0.4731 C.3       1 <0>        -0.0017
      6 C6          1.8626   -3.7372   -0.1755 C.3       1 <0>         0.0258
      7 O1          0.4386   -3.7538   -0.2937 O.3       1 <0>        -0.3284
      8 C7         -0.2140   -2.5840   -0.0593 C.ar      1 <0>         0.0962
      9 C8         -1.5967   -2.5300   -0.1569 C.ar      1 <0>        -0.1190
     10 C9         -2.2601   -1.3423    0.0800 C.ar      1 <0>        -0.0693
     11 C10        -1.5427   -0.2019    0.4166 C.ar      1 <0>         0.1456
     12 C11        -0.1586   -0.2569    0.5145 C.ar      1 <0>        -0.1051
     13 C12         0.5033   -1.4453    0.2768 C.ar      1 <0>        -0.1797
     14 N1         -2.2146    1.0029    0.6565 N.pl3     1 <0>        -0.6299
     15 C13        -3.4618    0.9918    1.2505 C.ar      1 <0>         0.6044
     16 N2         -3.9572   -0.1650    1.6772 N.ar      1 <0>        -0.5742
     17 C14        -5.1437   -0.2299    2.2512 C.ar      1 <0>         0.2632
     18 C15        -5.8809    0.9543    2.4052 C.ar      1 <0>        -0.2686
     19 C16        -7.1573    0.9487    3.0126 C.2       1 <0>         0.0223
     20 C17        -7.8369    2.1304    3.1401 C.2       1 <0>        -0.1517
     21 C18        -7.2276    3.3671    2.6461 C.2       1 <0>         0.5544
     22 O2         -7.8250    4.4230    2.7559 O.2       1 <0>        -0.4939
     23 N3         -6.0096    3.3430    2.0714 N.am      1 <0>        -0.5055
     24 C19        -5.3213    2.1634    1.9394 C.ar      1 <0>         0.4667
     25 N4         -4.1173    2.1350    1.3785 N.ar      1 <0>        -0.5922
     26 C20        -5.4137    4.5888    1.5828 C.3       1 <0>         0.0688
     27 C21        -9.1768    2.1577    3.7717 C.ar      1 <0>        -0.0161
     28 C22       -10.3226    1.9980    2.9915 C.ar      1 <0>        -0.0058
     29 C23       -11.5685    2.0201    3.5872 C.ar      1 <0>        -0.1054
     30 C24       -11.6824    2.2097    4.9527 C.ar      1 <0>        -0.0846
     31 C25       -10.5507    2.3740    5.7310 C.ar      1 <0>        -0.1053
     32 C26        -9.2987    2.3491    5.1486 C.ar      1 <0>        -0.0060
     33 Cl1        -7.8797    2.5560    6.1271 Cl        1 <0>        -0.0505
     34 Cl2       -10.1822    1.7665    1.2768 Cl        1 <0>        -0.0510
     35 H1          4.9531   -4.1230   -3.2115 H         1 <0>         0.1068
     36 H2          4.6315   -4.5389   -1.5110 H         1 <0>         0.0793
     37 H3          4.6739   -5.8185   -2.7475 H         1 <0>         0.0822
     38 H4          2.6589   -4.8621   -3.8177 H         1 <0>         0.1316
     39 H5          2.6219   -3.5637   -2.6008 H         1 <0>         0.1265
     40 H6          3.5263   -7.0339   -2.1651 H         1 <0>         0.1326
     41 H7          2.0186   -7.5058   -1.3452 H         1 <0>         0.1298
     42 H8          2.0860   -8.3423   -3.6879 H         1 <0>         0.1065
     43 H9          0.7598   -7.1800   -3.4463 H         1 <0>         0.0812
     44 H10         2.2519   -6.6689   -4.2712 H         1 <0>         0.0791
     45 H11         3.4910   -5.1423   -0.2968 H         1 <0>         0.1506
     46 H12         1.9336   -5.8608    0.1791 H         1 <0>         0.1410
     47 H13         2.2779   -3.0226   -0.8861 H         1 <0>         0.0853
     48 H14         2.1397   -3.4450    0.8374 H         1 <0>         0.1080
     49 H15        -2.1544   -3.4170   -0.4187 H         1 <0>         0.1368
     50 H16        -3.3362   -1.2993   -0.0007 H         1 <0>         0.1474
     51 H17         0.4000    0.6295    0.7766 H         1 <0>         0.1342
     52 H18         1.5798   -1.4882    0.3529 H         1 <0>         0.1308
     53 H19        -1.8044    1.8453    0.4058 H         1 <0>         0.4284
     54 H20        -5.5388   -1.1742    2.5955 H         1 <0>         0.1893
     55 H21        -7.5900    0.0261    3.3703 H         1 <0>         0.1521
     56 H22        -5.7018    4.7463    0.5434 H         1 <0>         0.0759
     57 H23        -5.7679    5.4230    2.1883 H         1 <0>         0.0941
     58 H24        -4.3278    4.5242    1.6530 H         1 <0>         0.0949
     59 H25       -12.4560    1.8924    2.9851 H         1 <0>         0.1450
     60 H26       -12.6591    2.2300    5.4131 H         1 <0>         0.1471
     61 H27       -10.6465    2.5224    6.7965 H         1 <0>         0.1451
     62 N5          2.1179   -5.4728   -1.8803 N.4       1 <0>        -0.3969
     63 H28         1.1169   -5.3253   -2.0547 H         1 <0>         0.4358
@<TRIPOS>BOND
     1    1    2 1
     2    1   35 1
     3    1   36 1
     4    1   37 1
     5    2   38 1
     6    2   39 1
     7    2   62 1
     8    3    4 1
     9    3   40 1
    10    3   41 1
    11    3   62 1
    12    4   42 1
    13    4   43 1
    14    4   44 1
    15    5    6 1
    16    5   45 1
    17    5   46 1
    18    5   62 1
    19    6    7 1
    20    6   47 1
    21    6   48 1
    22    7    8 1
    23    8   13 ar
    24    8    9 ar
    25    9   10 ar
    26    9   49 1
    27   10   11 ar
    28   10   50 1
    29   11   12 ar
    30   11   14 1
    31   12   13 ar
    32   12   51 1
    33   13   52 1
    34   14   15 1
    35   14   53 1
    36   15   25 ar
    37   15   16 ar
    38   16   17 ar
    39   17   18 ar
    40   17   54 1
    41   18   24 ar
    42   18   19 1
    43   19   20 2
    44   19   55 1
    45   20   21 1
    46   20   27 1
    47   21   22 2
    48   21   23 am
    49   23   24 1
    50   23   26 1
    51   24   25 ar
    52   26   56 1
    53   26   57 1
    54   26   58 1
    55   27   32 ar
    56   27   28 ar
    57   28   29 ar
    58   28   34 1
    59   29   30 ar
    60   29   59 1
    61   30   31 ar
    62   30   60 1
    63   31   32 ar
    64   31   61 1
    65   32   33 1
    66   62   63 1
@<TRIPOS>MOLECULE
ZINC03815261
   52    55     0     0     0
SMALL
USER_CHARGES

@<TRIPOS>ATOM
      1 C1          0.0685    1.0902    0.1116 C.3       1 <0>         0.0709
      2 N1         -0.4262    1.5833    1.3993 N.am      1 <0>        -0.5064
      3 C2         -0.5385    2.9342    1.6114 C.ar      1 <0>         0.4672
      4 C3         -1.0181    3.4258    2.8448 C.ar      1 <0>        -0.2850
      5 C4         -1.3769    2.5290    3.8769 C.2       1 <0>         0.0388
      6 C5         -1.2565    1.1829    3.6581 C.2       1 <0>        -0.1755
      7 C6         -0.7608    0.7061    2.3651 C.2       1 <0>         0.5598
      8 O1         -0.6510   -0.4900    2.1618 O.2       1 <0>        -0.5093
      9 C7         -1.6239    0.2172    4.7199 C.ar      1 <0>        -0.0047
     10 C8         -0.6659   -0.2109    5.6398 C.ar      1 <0>        -0.0070
     11 C9         -1.0162   -1.1072    6.6305 C.ar      1 <0>        -0.1076
     12 C10        -2.3108   -1.5889    6.7053 C.ar      1 <0>        -0.0898
     13 C11        -3.2639   -1.1726    5.7933 C.ar      1 <0>        -0.1072
     14 C12        -2.9280   -0.2726    4.8010 C.ar      1 <0>        -0.0071
     15 Cl1        -4.1254    0.2477    3.6568 Cl        1 <0>        -0.0490
     16 Cl2         0.9613    0.3864    5.5428 Cl        1 <0>        -0.0504
     17 C13        -1.1230    4.8140    3.0188 C.ar      1 <0>         0.2657
     18 N2         -0.7738    5.6039    2.0208 N.ar      1 <0>        -0.5630
     19 C14        -0.3311    5.1056    0.8717 C.ar      1 <0>         0.6117
     20 N3         -0.2145    3.8035    0.6608 N.ar      1 <0>        -0.5989
     21 N4          0.0210    5.9779   -0.1404 N.pl3     1 <0>        -0.6196
     22 C15        -0.1997    7.3500    0.0111 C.ar      1 <0>         0.1342
     23 C16        -1.3057    7.8032    0.7189 C.ar      1 <0>        -0.1032
     24 C17        -1.5173    9.1593    0.8720 C.ar      1 <0>        -0.0993
     25 C18        -0.6364   10.0658    0.3112 C.ar      1 <0>        -0.0740
     26 C19         0.4626    9.6181   -0.3989 C.ar      1 <0>        -0.0986
     27 C20         0.6834    8.2633   -0.5505 C.ar      1 <0>        -0.1368
     28 C21        -0.8742   11.5449    0.4746 C.3       1 <0>        -0.0849
     29 C22        -1.7351   12.0540   -0.6832 C.3       1 <0>        -0.0910
     30 C23        -1.9766   13.5557   -0.5173 C.3       1 <0>        -0.1584
     31 C24        -2.8245   14.0572   -1.6577 C.2       1 <0>         0.4572
     32 O2         -3.1974   13.2920   -2.5152 O.co2     1 <0>        -0.6417
     33 H1          0.0950    0.0006    0.1257 H         1 <0>         0.0991
     34 H2          1.0729    1.4758   -0.0636 H         1 <0>         0.0794
     35 H3         -0.5942    1.4272   -0.6854 H         1 <0>         0.0801
     36 H4         -1.7408    2.9001    4.8236 H         1 <0>         0.1491
     37 H5         -0.2768   -1.4359    7.3458 H         1 <0>         0.1425
     38 H6         -2.5784   -2.2933    7.4789 H         1 <0>         0.1439
     39 H7         -4.2729   -1.5525    5.8572 H         1 <0>         0.1427
     40 H8         -1.4816    5.2275    3.9499 H         1 <0>         0.1872
     41 H9          0.4212    5.6382   -0.9561 H         1 <0>         0.4249
     42 H10        -1.9966    7.0958    1.1531 H         1 <0>         0.1313
     43 H11        -2.3744    9.5123    1.4263 H         1 <0>         0.1262
     44 H12         1.1490   10.3287   -0.8350 H         1 <0>         0.1272
     45 H13         1.5421    7.9142   -1.1049 H         1 <0>         0.1224
     46 H14        -1.3888   11.7282    1.4179 H         1 <0>         0.0693
     47 H15         0.0816   12.0688    0.4744 H         1 <0>         0.0687
     48 H16        -1.2205   11.8708   -1.6265 H         1 <0>         0.0612
     49 H17        -2.6909   11.5301   -0.6830 H         1 <0>         0.0614
     50 H18        -2.4911   13.7390    0.4260 H         1 <0>         0.0629
     51 H19        -1.0207   14.0796   -0.5175 H         1 <0>         0.0627
     52 O3         -3.1655   15.3539   -1.7209 O.co2     1 <0>        -0.7790
@<TRIPOS>BOND
     1    1    2 1
     2    1   33 1
     3    1   34 1
     4    1   35 1
     5    2    7 am
     6    2    3 1
     7    3   20 ar
     8    3    4 ar
     9    4    5 1
    10    4   17 ar
    11    5    6 2
    12    5   36 1
    13    6    7 1
    14    6    9 1
    15    7    8 2
    16    9   14 ar
    17    9   10 ar
    18   10   11 ar
    19   10   16 1
    20   11   12 ar
    21   11   37 1
    22   12   13 ar
    23   12   38 1
    24   13   14 ar
    25   13   39 1
    26   14   15 1
    27   17   18 ar
    28   17   40 1
    29   18   19 ar
    30   19   20 ar
    31   19   21 1
    32   21   22 1
    33   21   41 1
    34   22   27 ar
    35   22   23 ar
    36   23   24 ar
    37   23   42 1
    38   24   25 ar
    39   24   43 1
    40   25   26 ar
    41   25   28 1
    42   26   27 ar
    43   26   44 1
    44   27   45 1
    45   28   29 1
    46   28   46 1
    47   28   47 1
    48   29   30 1
    49   29   48 1
    50   29   49 1
    51   30   31 1
    52   30   50 1
    53   30   51 1
    54   31   32 2
    55   31   52 1
@<TRIPOS>MOLECULE
ZINC03815288
   42    45     0     0     0
SMALL
USER_CHARGES

@<TRIPOS>ATOM
      1 C1          0.8590   10.0323    0.4454 C.3       1 <0>         0.0699
      2 N1          2.1520    9.3435    0.4335 N.am      1 <0>        -0.5058
      3 C2          2.1922    7.9764    0.3242 C.ar      1 <0>         0.4661
      4 C3          3.4297    7.2973    0.3112 C.ar      1 <0>        -0.2752
      5 C4          4.6396    8.0215    0.4105 C.2       1 <0>         0.0304
      6 C5          4.5897    9.3854    0.5187 C.2       1 <0>        -0.1632
      7 C6          3.2892   10.0588    0.5296 C.2       1 <0>         0.5569
      8 O1          3.2358   11.2720    0.6256 O.2       1 <0>        -0.5011
      9 C7          5.8401   10.1731    0.6244 C.ar      1 <0>        -0.0104
     10 C8          6.3880   10.4532    1.8768 C.ar      1 <0>        -0.0064
     11 C9          7.5560   11.1847    1.9682 C.ar      1 <0>        -0.1063
     12 C10         8.1775   11.6472    0.8222 C.ar      1 <0>        -0.0872
     13 C11         7.6370   11.3770   -0.4221 C.ar      1 <0>        -0.1063
     14 C12         6.4718   10.6429   -0.5277 C.ar      1 <0>        -0.0064
     15 Cl1         5.7945   10.3060   -2.0902 Cl        1 <0>        -0.0503
     16 Cl2         5.6064    9.8789    3.3166 Cl        1 <0>        -0.0501
     17 C13         3.4266    5.8989    0.1984 C.ar      1 <0>         0.2650
     18 N2          2.2669    5.2745    0.1139 N.ar      1 <0>        -0.5662
     19 C14         1.1213    5.9471    0.1244 C.ar      1 <0>         0.6075
     20 N3          1.0737    7.2663    0.2291 N.ar      1 <0>        -0.5952
     21 N4         -0.0643    5.2439    0.0281 N.pl3     1 <0>        -0.6260
     22 C15        -0.0425    3.8650   -0.2009 C.ar      1 <0>         0.1731
     23 C16        -1.0219    3.0516    0.3562 C.ar      1 <0>        -0.1529
     24 C17        -0.9997    1.6892    0.1306 C.ar      1 <0>        -0.0813
     25 C18        -0.0044    1.1313   -0.6495 C.ar      1 <0>        -0.1594
     26 C19         0.9791    1.9380   -1.2044 C.ar      1 <0>         0.1254
     27 C20         0.9576    3.3064   -0.9844 C.ar      1 <0>        -0.1379
     28 O2          1.9599    1.3872   -1.9669 O.3       1 <0>        -0.4959
     29 H1          0.5036   10.1202    1.4720 H         1 <0>         0.0747
     30 H2          0.9731   11.0267    0.0140 H         1 <0>         0.0924
     31 H3          0.1384    9.4623   -0.1411 H         1 <0>         0.0950
     32 H4          5.5890    7.5068    0.4007 H         1 <0>         0.1510
     33 H5          7.9830   11.3994    2.9367 H         1 <0>         0.1439
     34 H6          9.0886   12.2219    0.8993 H         1 <0>         0.1455
     35 H7          8.1269   11.7413   -1.3130 H         1 <0>         0.1439
     36 H8          4.3535    5.3446    0.1854 H         1 <0>         0.1887
     37 H9         -0.9117    5.7071    0.1193 H         1 <0>         0.4279
     38 H10        -1.8007    3.4851    0.9661 H         1 <0>         0.1291
     39 H11        -1.7612    1.0585    0.5650 H         1 <0>         0.1331
     40 H12         0.0105    0.0656   -0.8237 H         1 <0>         0.1306
     41 H13         1.7198    3.9362   -1.4189 H         1 <0>         0.1418
     42 H14         1.7457    1.3391   -2.9087 H         1 <0>         0.3917
@<TRIPOS>BOND
     1    1    2 1
     2    1   29 1
     3    1   30 1
     4    1   31 1
     5    2    7 am
     6    2    3 1
     7    3   20 ar
     8    3    4 ar
     9    4    5 1
    10    4   17 ar
    11    5    6 2
    12    5   32 1
    13    6    7 1
    14    6    9 1
    15    7    8 2
    16    9   14 ar
    17    9   10 ar
    18   10   11 ar
    19   10   16 1
    20   11   12 ar
    21   11   33 1
    22   12   13 ar
    23   12   34 1
    24   13   14 ar
    25   13   35 1
    26   14   15 1
    27   17   18 ar
    28   17   36 1
    29   18   19 ar
    30   19   20 ar
    31   19   21 1
    32   21   22 1
    33   21   37 1
    34   22   27 ar
    35   22   23 ar
    36   23   24 ar
    37   23   38 1
    38   24   25 ar
    39   24   39 1
    40   25   26 ar
    41   25   40 1
    42   26   27 ar
    43   26   28 1
    44   27   41 1
    45   28   42 1
@<TRIPOS>MOLECULE
ZINC03815289
   73    76     0     0     0
SMALL
USER_CHARGES

@<TRIPOS>ATOM
      1 C1         -4.5476    1.9598   -6.0779 C.3       1 <0>        -0.1653
      2 C2         -3.1554    1.3302   -5.9996 C.3       1 <0>         0.1875
      3 C3         -2.2965    1.8463   -7.1558 C.3       1 <0>        -0.1577
      4 C4         -3.2778   -0.1919   -6.0951 C.3       1 <0>        -0.1654
      5 N1         -2.5274    1.6906   -4.7260 N.am      1 <0>        -0.7322
      6 C5         -3.1104    1.3372   -3.5634 C.2       1 <0>         0.6944
      7 O1         -4.1574    0.7194   -3.5715 O.2       1 <0>        -0.5077
      8 N2         -2.5327    1.6688   -2.3917 N.am      1 <0>        -0.6579
      9 C6         -3.1328    1.3050   -1.1949 C.ar      1 <0>         0.4915
     10 C7         -2.5145    1.6602    0.0229 C.ar      1 <0>        -0.1503
     11 C8         -3.1075    1.2934    1.2205 C.ar      1 <0>         0.0442
     12 C9         -4.3191    0.5850    1.1654 C.ar      1 <0>        -0.2852
     13 C10        -4.9944    0.1771    2.3285 C.ar      1 <0>         0.2685
     14 N3         -6.1242   -0.4885    2.1986 N.ar      1 <0>        -0.5792
     15 C11        -6.6263   -0.7753    0.9994 C.ar      1 <0>         0.5852
     16 N4         -6.0355   -0.4176   -0.1249 N.ar      1 <0>        -0.5542
     17 C12        -4.8825    0.2626   -0.0970 C.ar      1 <0>         0.4293
     18 N5         -4.2670    0.6354   -1.2206 N.ar      1 <0>        -0.4750
     19 N6         -7.8150   -1.4767    0.9293 N.pl3     1 <0>        -0.7062
     20 C13        -8.4959   -1.8890    2.1592 C.3       1 <0>         0.1459
     21 C14        -9.7785   -2.6436    1.8036 C.3       1 <0>        -0.1686
     22 C15       -10.4896   -3.0741    3.0880 C.3       1 <0>        -0.0008
     23 C16       -12.6921   -2.9089    2.0947 C.3       1 <0>        -0.0333
     24 C17       -13.9253   -3.7171    1.6845 C.3       1 <0>        -0.0263
     25 C18       -13.5403   -5.2394    3.5265 C.3       1 <0>        -0.0268
     26 C19       -12.3071   -4.4312    3.9367 C.3       1 <0>        -0.0261
     27 C20       -15.7428   -5.0741    2.5331 C.3       1 <0>        -0.0461
     28 C21        -1.2380    2.4142    0.0210 C.ar      1 <0>        -0.0511
     29 C22        -1.2484    3.8090    0.0341 C.ar      1 <0>        -0.0122
     30 C23        -0.0556    4.5057    0.0264 C.ar      1 <0>        -0.1024
     31 C24         1.1473    3.8231    0.0117 C.ar      1 <0>        -0.0780
     32 C25         1.1644    2.4401    0.0040 C.ar      1 <0>        -0.1023
     33 C26        -0.0215    1.7317    0.0116 C.ar      1 <0>        -0.0125
     34 Cl1         0.0021   -0.0041    0.0020 Cl        1 <0>        -0.0438
     35 Cl2        -2.7571    4.6675    0.0520 Cl        1 <0>        -0.0442
     36 H1         -4.4604    3.0441   -6.0098 H         1 <0>         0.0540
     37 H2         -5.0148    1.6916   -7.0255 H         1 <0>         0.0653
     38 H3         -5.1595    1.5921   -5.2542 H         1 <0>         0.0787
     39 H4         -1.3046    1.3978   -7.1000 H         1 <0>         0.0641
     40 H5         -2.7637    1.5782   -8.1034 H         1 <0>         0.0785
     41 H6         -2.2092    2.9307   -7.0877 H         1 <0>         0.0641
     42 H7         -3.8897   -0.5596   -5.2714 H         1 <0>         0.0787
     43 H8         -3.7450   -0.4601   -7.0427 H         1 <0>         0.0653
     44 H9         -2.2859   -0.6404   -6.0393 H         1 <0>         0.0541
     45 H10        -1.6920    2.1835   -4.7195 H         1 <0>         0.3964
     46 H11        -1.6973    2.1617   -2.3852 H         1 <0>         0.4151
     47 H12        -2.6541    1.5480    2.1670 H         1 <0>         0.1552
     48 H13        -4.5967    0.4044    3.3065 H         1 <0>         0.1829
     49 H14        -8.1984   -1.6961    0.0657 H         1 <0>         0.4165
     50 H15        -7.8397   -2.5398    2.7371 H         1 <0>         0.0797
     51 H16        -8.7449   -1.0073    2.7496 H         1 <0>         0.0787
     52 H17       -10.4346   -1.9927    1.2257 H         1 <0>         0.0952
     53 H18        -9.5295   -3.5253    1.2131 H         1 <0>         0.0997
     54 H19        -9.8335   -3.7250    3.6659 H         1 <0>         0.1482
     55 H20       -10.7386   -2.1924    3.6785 H         1 <0>         0.1461
     56 H21       -12.9873   -2.1219    2.7887 H         1 <0>         0.1581
     57 H22       -12.2390   -2.4624    1.2096 H         1 <0>         0.1751
     58 H23       -13.6345   -4.4867    0.9696 H         1 <0>         0.1560
     59 H24       -14.6593   -3.0540    1.2265 H         1 <0>         0.1754
     60 H25       -13.2451   -6.0264    2.8325 H         1 <0>         0.1559
     61 H26       -13.9932   -5.6862    4.4116 H         1 <0>         0.1758
     62 H27       -11.5733   -5.0946    4.3945 H         1 <0>         0.1760
     63 H28       -12.5979   -3.6615    4.6516 H         1 <0>         0.1573
     64 H29       -16.1918   -5.4757    3.4416 H         1 <0>         0.1362
     65 H30       -16.4440   -4.3923    2.0520 H         1 <0>         0.1361
     66 H31       -15.5063   -5.8920    1.8525 H         1 <0>         0.1328
     67 H32        -0.0624    5.5856    0.0323 H         1 <0>         0.1481
     68 H33         2.0771    4.3724    0.0058 H         1 <0>         0.1504
     69 H34         2.1069    1.9129   -0.0075 H         1 <0>         0.1482
     70 N7        -11.7151   -3.8190    2.7284 N.4       1 <0>        -0.4062
     71 H35       -11.4708   -4.5620    2.0633 H         1 <0>         0.4383
     72 N8        -14.5173   -4.3291    2.8925 N.4       1 <0>        -0.4065
     73 H36       -14.7616   -3.5860    3.5576 H         1 <0>         0.4405
@<TRIPOS>BOND
     1    1    2 1
     2    1   36 1
     3    1   37 1
     4    1   38 1
     5    2    3 1
     6    2    4 1
     7    2    5 1
     8    3   39 1
     9    3   40 1
    10    3   41 1
    11    4   42 1
    12    4   43 1
    13    4   44 1
    14    5    6 am
    15    5   45 1
    16    6    7 2
    17    6    8 am
    18    8    9 1
    19    8   46 1
    20    9   18 ar
    21    9   10 ar
    22   10   11 ar
    23   10   28 1
    24   11   12 ar
    25   11   47 1
    26   12   17 ar
    27   12   13 ar
    28   13   14 ar
    29   13   48 1
    30   14   15 ar
    31   15   16 ar
    32   15   19 1
    33   16   17 ar
    34   17   18 ar
    35   19   20 1
    36   19   49 1
    37   20   21 1
    38   20   50 1
    39   20   51 1
    40   21   22 1
    41   21   52 1
    42   21   53 1
    43   22   54 1
    44   22   55 1
    45   22   70 1
    46   23   24 1
    47   23   56 1
    48   23   57 1
    49   23   70 1
    50   24   58 1
    51   24   59 1
    52   24   72 1
    53   25   26 1
    54   25   60 1
    55   25   61 1
    56   25   72 1
    57   26   62 1
    58   26   63 1
    59   26   70 1
    60   27   64 1
    61   27   65 1
    62   27   66 1
    63   27   72 1
    64   28   33 ar
    65   28   29 ar
    66   29   30 ar
    67   29   35 1
    68   30   31 ar
    69   30   67 1
    70   31   32 ar
    71   31   68 1
    72   32   33 ar
    73   32   69 1
    74   33   34 1
    75   70   71 1
    76   72   73 1
@<TRIPOS>MOLECULE
ZINC03815299
   43    46     0     0     0
SMALL
USER_CHARGES

@<TRIPOS>ATOM
      1 C1          0.0695    1.0902    0.1128 C.3       1 <0>         0.0712
      2 N1         -0.4234    1.5836    1.4011 N.am      1 <0>        -0.5066
      3 C2         -0.5357    2.9345    1.6130 C.ar      1 <0>         0.4680
      4 C3         -1.0136    3.4263    2.8471 C.ar      1 <0>        -0.2917
      5 C4         -1.3712    2.5296    3.8797 C.2       1 <0>         0.0437
      6 C5         -1.2509    1.1835    3.6609 C.2       1 <0>        -0.1832
      7 C6         -0.7566    0.7065    2.3675 C.2       1 <0>         0.5610
      8 O1         -0.6465   -0.4896    2.1646 O.2       1 <0>        -0.5134
      9 C7         -1.6171    0.2179    4.7234 C.ar      1 <0>        -0.0012
     10 C8         -0.6581   -0.2099    5.6423 C.ar      1 <0>        -0.0075
     11 C9         -1.0070   -1.1072    6.6326 C.ar      1 <0>        -0.1079
     12 C10        -2.3015   -1.5886    6.7091 C.ar      1 <0>        -0.0914
     13 C11        -3.2558   -1.1722    5.7984 C.ar      1 <0>        -0.1081
     14 C12        -2.9211   -0.2719    4.8059 C.ar      1 <0>        -0.0074
     15 Cl1        -4.1199    0.2486    3.6632 Cl        1 <0>        -0.0501
     16 Cl2         0.9686    0.3884    5.5442 Cl        1 <0>        -0.0492
     17 C13        -1.1184    4.8145    3.0209 C.ar      1 <0>         0.2656
     18 N2         -0.7703    5.6043    2.0224 N.ar      1 <0>        -0.5606
     19 C14        -0.3288    5.1057    0.8729 C.ar      1 <0>         0.6141
     20 N3         -0.2122    3.8036    0.6621 N.ar      1 <0>        -0.6014
     21 N4          0.0221    5.9779   -0.1397 N.pl3     1 <0>        -0.6133
     22 C15        -0.1985    7.3504    0.0118 C.ar      1 <0>         0.1206
     23 C16        -1.3062    7.8023    0.7201 C.ar      1 <0>        -0.1078
     24 C17        -1.5263    9.1577    0.8769 C.ar      1 <0>        -0.1235
     25 C18        -0.6538   10.0721    0.3226 C.ar      1 <0>        -0.0830
     26 C19         0.4589    9.6289   -0.3951 C.ar      1 <0>        -0.0962
     27 C20         0.6840    8.2603   -0.5489 C.ar      1 <0>        -0.1013
     28 C21         1.3944   10.6055   -0.9900 C.2       1 <0>         0.4898
     29 O2          2.3615   10.2176   -1.6144 O.co2     1 <0>        -0.6307
     30 H1          0.0962    0.0006    0.1271 H         1 <0>         0.0981
     31 H2          1.0736    1.4760   -0.0639 H         1 <0>         0.0797
     32 H3         -0.5944    1.4270   -0.6834 H         1 <0>         0.0795
     33 H4         -1.7342    2.9008    4.8267 H         1 <0>         0.1474
     34 H5         -0.2666   -1.4366    7.3465 H         1 <0>         0.1419
     35 H6         -2.5683   -2.2930    7.4831 H         1 <0>         0.1431
     36 H7         -4.2647   -1.5521    5.8634 H         1 <0>         0.1418
     37 H8         -1.4761    5.2281    3.9523 H         1 <0>         0.1857
     38 H9          0.4216    5.6381   -0.9558 H         1 <0>         0.4250
     39 H10        -1.9951    7.0917    1.1524 H         1 <0>         0.1267
     40 H11        -2.3864    9.5026    1.4317 H         1 <0>         0.1212
     41 H12        -0.8318   11.1304    0.4436 H         1 <0>         0.1326
     42 H13         1.5427    7.9114   -1.1033 H         1 <0>         0.1297
     43 O3          1.1749   11.9261   -0.8401 O.co2     1 <0>        -0.7510
@<TRIPOS>BOND
     1    1    2 1
     2    1   30 1
     3    1   31 1
     4    1   32 1
     5    2    7 am
     6    2    3 1
     7    3   20 ar
     8    3    4 ar
     9    4    5 1
    10    4   17 ar
    11    5    6 2
    12    5   33 1
    13    6    7 1
    14    6    9 1
    15    7    8 2
    16    9   14 ar
    17    9   10 ar
    18   10   11 ar
    19   10   16 1
    20   11   12 ar
    21   11   34 1
    22   12   13 ar
    23   12   35 1
    24   13   14 ar
    25   13   36 1
    26   14   15 1
    27   17   18 ar
    28   17   37 1
    29   18   19 ar
    30   19   20 ar
    31   19   21 1
    32   21   22 1
    33   21   38 1
    34   22   27 ar
    35   22   23 ar
    36   23   24 ar
    37   23   39 1
    38   24   25 ar
    39   24   40 1
    40   25   26 ar
    41   25   41 1
    42   26   27 ar
    43   26   28 1
    44   27   42 1
    45   28   29 2
    46   28   43 1
@<TRIPOS>MOLECULE
ZINC03815302
   44    47     0     0     0
SMALL
USER_CHARGES

@<TRIPOS>ATOM
      1 C1         -0.2303    0.9301    0.1276 C.3       1 <0>        -0.1625
      2 C2         -0.7905    1.6082    1.3795 C.3       1 <0>         0.0973
      3 N1         -2.1926    1.2228    1.5577 N.am      1 <0>        -0.5029
      4 C3         -3.1832    1.9813    0.9868 C.ar      1 <0>         0.4682
      5 C4         -4.5390    1.6210    1.1448 C.ar      1 <0>        -0.2780
      6 C5         -4.8881    0.4799    1.9026 C.2       1 <0>         0.0304
      7 C6         -3.8931   -0.2679    2.4729 C.2       1 <0>        -0.1647
      8 C7         -2.4965    0.1305    2.2849 C.2       1 <0>         0.5579
      9 O1         -1.6050   -0.5294    2.7885 O.2       1 <0>        -0.5013
     10 C8         -4.2264   -1.4693    3.2733 C.ar      1 <0>        -0.0096
     11 C9         -4.4384   -1.3586    4.6481 C.ar      1 <0>        -0.0066
     12 C10        -4.7549   -2.4814    5.3875 C.ar      1 <0>        -0.1065
     13 C11        -4.8501   -3.7156    4.7701 C.ar      1 <0>        -0.0876
     14 C12        -4.6351   -3.8332    3.4087 C.ar      1 <0>        -0.1065
     15 C13        -4.3240   -2.7172    2.6567 C.ar      1 <0>        -0.0066
     16 Cl1        -4.0545   -2.8669    0.9483 Cl        1 <0>        -0.0503
     17 Cl2        -4.3117    0.1881    5.4261 Cl        1 <0>        -0.0503
     18 C14        -5.5207    2.4204    0.5401 C.ar      1 <0>         0.2637
     19 N2         -5.1367    3.4741   -0.1560 N.ar      1 <0>        -0.5676
     20 C15        -3.8507    3.7801   -0.2875 C.ar      1 <0>         0.6082
     21 N3         -2.8888    3.0566    0.2647 N.ar      1 <0>        -0.5949
     22 N4         -3.5041    4.8945   -1.0272 N.pl3     1 <0>        -0.6264
     23 C16        -4.4879    5.6099   -1.7162 C.ar      1 <0>         0.1548
     24 C17        -5.5746    4.9439   -2.2683 C.ar      1 <0>        -0.1097
     25 C18        -6.5475    5.6543   -2.9437 C.ar      1 <0>        -0.1006
     26 C19        -6.4352    7.0259   -3.0796 C.ar      1 <0>        -0.1329
     27 C20        -5.3517    7.6914   -2.5360 C.ar      1 <0>        -0.0995
     28 C21        -4.3780    6.9877   -1.8549 C.ar      1 <0>        -0.1438
     29 H1         -0.2982   -0.1520    0.2393 H         1 <0>         0.0607
     30 H2          0.8129    1.2169   -0.0049 H         1 <0>         0.0770
     31 H3         -0.8064    1.2424   -0.7434 H         1 <0>         0.0596
     32 H4         -0.2143    1.2960    2.2505 H         1 <0>         0.0978
     33 H5         -0.7225    2.6904    1.2679 H         1 <0>         0.1007
     34 H6         -5.9240    0.2021    2.0295 H         1 <0>         0.1500
     35 H7         -4.9243   -2.3963    6.4507 H         1 <0>         0.1437
     36 H8         -5.0931   -4.5913    5.3536 H         1 <0>         0.1453
     37 H9         -4.7109   -4.7997    2.9327 H         1 <0>         0.1436
     38 H10        -6.5683    2.1789    0.6423 H         1 <0>         0.1876
     39 H11        -2.5781    5.1804   -1.0685 H         1 <0>         0.4261
     40 H12        -5.6608    3.8722   -2.1661 H         1 <0>         0.1341
     41 H13        -7.3948    5.1376   -3.3698 H         1 <0>         0.1261
     42 H14        -7.1953    7.5786   -3.6118 H         1 <0>         0.1238
     43 H15        -5.2670    8.7626   -2.6439 H         1 <0>         0.1269
     44 H16        -3.5319    7.5079   -1.4309 H         1 <0>         0.1250
@<TRIPOS>BOND
     1    1    2 1
     2    1   29 1
     3    1   30 1
     4    1   31 1
     5    2    3 1
     6    2   32 1
     7    2   33 1
     8    3    8 am
     9    3    4 1
    10    4   21 ar
    11    4    5 ar
    12    5    6 1
    13    5   18 ar
    14    6    7 2
    15    6   34 1
    16    7    8 1
    17    7   10 1
    18    8    9 2
    19   10   15 ar
    20   10   11 ar
    21   11   12 ar
    22   11   17 1
    23   12   13 ar
    24   12   35 1
    25   13   14 ar
    26   13   36 1
    27   14   15 ar
    28   14   37 1
    29   15   16 1
    30   18   19 ar
    31   18   38 1
    32   19   20 ar
    33   20   21 ar
    34   20   22 1
    35   22   23 1
    36   22   39 1
    37   23   28 ar
    38   23   24 ar
    39   24   25 ar
    40   24   40 1
    41   25   26 ar
    42   25   41 1
    43   26   27 ar
    44   26   42 1
    45   27   28 ar
    46   27   43 1
    47   28   44 1
@<TRIPOS>MOLECULE
ZINC03815307
   62    65     0     0     0
SMALL
USER_CHARGES

@<TRIPOS>ATOM
      1 C1         -2.2664    2.6406    5.7207 C.3       1 <0>         0.0696
      2 N1         -1.0652    1.8152    5.8687 N.am      1 <0>        -0.5066
      3 C2         -0.4094    1.3640    4.7512 C.ar      1 <0>         0.4682
      4 C3          0.7497    0.5679    4.8763 C.ar      1 <0>        -0.2690
      5 C4          1.2453    0.2291    6.1562 C.2       1 <0>         0.0178
      6 C5          0.5843    0.6839    7.2655 C.2       1 <0>        -0.1458
      7 C6         -0.6156    1.5073    7.1005 C.2       1 <0>         0.5529
      8 O1         -1.2098    1.9161    8.0821 O.2       1 <0>        -0.4897
      9 C7          1.0781    0.3458    8.6209 C.ar      1 <0>        -0.0200
     10 C8          0.6245   -0.8061    9.2648 C.ar      1 <0>        -0.0056
     11 C9          1.0925   -1.1181   10.5262 C.ar      1 <0>        -0.1044
     12 C10         2.0012   -0.2863   11.1554 C.ar      1 <0>        -0.0827
     13 C11         2.4509    0.8598   10.5247 C.ar      1 <0>        -0.1045
     14 C12         1.9945    1.1808    9.2613 C.ar      1 <0>        -0.0056
     15 Cl1         2.5591    2.6202    8.4720 Cl        1 <0>        -0.0520
     16 Cl2        -0.5209   -1.8478    8.4796 Cl        1 <0>        -0.0516
     17 C13         1.3899    0.1267    3.7087 C.ar      1 <0>         0.2644
     18 N2          0.8797    0.4693    2.5405 N.ar      1 <0>        -0.5871
     19 C14        -0.2103    1.2245    2.4609 C.ar      1 <0>         0.6055
     20 N3         -0.8488    1.6644    3.5342 N.ar      1 <0>        -0.5994
     21 N4         -0.6984    1.5583    1.2133 N.pl3     1 <0>        -0.6990
     22 C15        -0.0127    1.0858    0.0080 C.3       1 <0>         0.1395
     23 C16        -0.7527    1.5927   -1.2315 C.3       1 <0>        -0.1350
     24 C17        -0.0366    1.0992   -2.4903 C.3       1 <0>        -0.1464
     25 C18        -0.7766    1.6061   -3.7298 C.3       1 <0>        -0.0067
     26 C19         1.2439    1.7395   -5.0583 C.3       1 <0>        -0.0328
     27 C20         1.9566    1.1616   -6.2833 C.3       1 <0>        -0.0263
     28 C21        -0.1814    0.8170   -7.3645 C.3       1 <0>        -0.0268
     29 C22        -0.8941    1.3949   -6.1395 C.3       1 <0>        -0.0263
     30 C23         1.8391    0.9504   -8.6929 C.3       1 <0>        -0.0462
     31 H1         -3.1464    1.9984    5.6843 H         1 <0>         0.0755
     32 H2         -2.3472    3.3201    6.5692 H         1 <0>         0.0946
     33 H3         -2.1993    3.2176    4.7983 H         1 <0>         0.0932
     34 H4          2.1320   -0.3790    6.2574 H         1 <0>         0.1521
     35 H5          0.7451   -2.0112   11.0242 H         1 <0>         0.1460
     36 H6          2.3610   -0.5326   12.1435 H         1 <0>         0.1484
     37 H7          3.1601    1.5053   11.0215 H         1 <0>         0.1460
     38 H8          2.2790   -0.4839    3.7644 H         1 <0>         0.1871
     39 H9         -1.4954    2.1056    1.1349 H         1 <0>         0.4172
     40 H10         0.0021   -0.0041    0.0020 H         1 <0>         0.0738
     41 H11         1.0099    1.4631    0.0003 H         1 <0>         0.0726
     42 H12        -1.7753    1.2154   -1.2238 H         1 <0>         0.0865
     43 H13        -0.7675    2.6825   -1.2255 H         1 <0>         0.0853
     44 H14         0.9860    1.4765   -2.4981 H         1 <0>         0.0923
     45 H15        -0.0218    0.0093   -2.4963 H         1 <0>         0.0968
     46 H16        -1.7991    1.2288   -3.7221 H         1 <0>         0.1442
     47 H17        -0.7913    2.6960   -3.7239 H         1 <0>         0.1421
     48 H18         1.1429    2.8189   -5.1719 H         1 <0>         0.1570
     49 H19         1.8251    1.5206   -4.1625 H         1 <0>         0.1757
     50 H20         2.0818    0.0862   -6.1574 H         1 <0>         0.1561
     51 H21         2.9341    1.6318   -6.3908 H         1 <0>         0.1754
     52 H22        -0.0804   -0.2624   -7.2509 H         1 <0>         0.1559
     53 H23        -0.7628    1.0356   -8.2602 H         1 <0>         0.1755
     54 H24        -1.8715    0.9247   -6.0320 H         1 <0>         0.1750
     55 H25        -1.0193    2.4703   -6.2654 H         1 <0>         0.1563
     56 H26         1.2531    1.2172   -9.5725 H         1 <0>         0.1362
     57 H27         2.8229    1.4153   -8.7571 H         1 <0>         0.1363
     58 H28         1.9514   -0.1327   -8.6461 H         1 <0>         0.1329
     59 N5         -0.0853    1.1047   -4.9368 N.4       1 <0>        -0.4066
     60 H29         0.0365    0.0886   -4.8536 H         1 <0>         0.4382
     61 N6          1.1480    1.4519   -7.4859 N.4       1 <0>        -0.4066
     62 H30         1.0263    2.4680   -7.5691 H         1 <0>         0.4405
@<TRIPOS>BOND
     1    1    2 1
     2    1   31 1
     3    1   32 1
     4    1   33 1
     5    2    7 am
     6    2    3 1
     7    3   20 ar
     8    3    4 ar
     9    4    5 1
    10    4   17 ar
    11    5    6 2
    12    5   34 1
    13    6    7 1
    14    6    9 1
    15    7    8 2
    16    9   14 ar
    17    9   10 ar
    18   10   11 ar
    19   10   16 1
    20   11   12 ar
    21   11   35 1
    22   12   13 ar
    23   12   36 1
    24   13   14 ar
    25   13   37 1
    26   14   15 1
    27   17   18 ar
    28   17   38 1
    29   18   19 ar
    30   19   20 ar
    31   19   21 1
    32   21   22 1
    33   21   39 1
    34   22   23 1
    35   22   40 1
    36   22   41 1
    37   23   24 1
    38   23   42 1
    39   23   43 1
    40   24   25 1
    41   24   44 1
    42   24   45 1
    43   25   46 1
    44   25   47 1
    45   25   59 1
    46   26   27 1
    47   26   48 1
    48   26   49 1
    49   26   59 1
    50   27   50 1
    51   27   51 1
    52   27   61 1
    53   28   29 1
    54   28   52 1
    55   28   53 1
    56   28   61 1
    57   29   54 1
    58   29   55 1
    59   29   59 1
    60   30   56 1
    61   30   57 1
    62   30   58 1
    63   30   61 1
    64   59   60 1
    65   61   62 1
@<TRIPOS>MOLECULE
ZINC03815308
   46    49     0     0     0
SMALL
USER_CHARGES

@<TRIPOS>ATOM
      1 C1         -9.4546   -4.6479   -0.9492 C.3       1 <0>         0.0715
      2 N1         -8.9344   -4.1755   -2.2347 N.am      1 <0>        -0.5064
      3 C2         -7.8393   -3.3493   -2.2619 C.ar      1 <0>         0.4677
      4 C3         -7.3255   -2.8851   -3.4921 C.ar      1 <0>        -0.2900
      5 C4         -7.9362   -3.2683   -4.7080 C.2       1 <0>         0.0423
      6 C5         -9.0282   -4.0933   -4.6711 C.2       1 <0>        -0.1814
      7 C6         -9.5359   -4.5568   -3.3779 C.2       1 <0>         0.5599
      8 O1        -10.5068   -5.2913   -3.3361 O.2       1 <0>        -0.5115
      9 C7         -9.6908   -4.5129   -5.9281 C.ar      1 <0>        -0.0020
     10 C8        -10.7328   -3.7517   -6.4589 C.ar      1 <0>        -0.0073
     11 C9        -11.3436   -4.1463   -7.6331 C.ar      1 <0>        -0.1077
     12 C10       -10.9306   -5.2984   -8.2778 C.ar      1 <0>        -0.0910
     13 C11        -9.9015   -6.0601   -7.7544 C.ar      1 <0>        -0.1080
     14 C12        -9.2793   -5.6743   -6.5832 C.ar      1 <0>        -0.0074
     15 Cl1        -7.9887   -6.6323   -5.9273 Cl        1 <0>        -0.0503
     16 Cl2       -11.2566   -2.3087   -5.6482 Cl        1 <0>        -0.0491
     17 C13        -6.2039   -2.0424   -3.4758 C.ar      1 <0>         0.2662
     18 N2         -5.6746   -1.7178   -2.3111 N.ar      1 <0>        -0.5604
     19 C14        -6.1852   -2.1737   -1.1726 C.ar      1 <0>         0.6130
     20 N3         -7.2389   -2.9749   -1.1378 N.ar      1 <0>        -0.6033
     21 N4         -5.5914   -1.8029    0.0188 N.pl3     1 <0>        -0.6143
     22 C15        -4.5481   -0.8724    0.0199 C.ar      1 <0>         0.1193
     23 C16        -4.5383    0.1635   -0.9055 C.ar      1 <0>        -0.1003
     24 C17        -3.5058    1.0807   -0.9019 C.ar      1 <0>        -0.0981
     25 C18        -2.4826    0.9687    0.0215 C.ar      1 <0>        -0.0327
     26 C19        -2.4865   -0.0644    0.9407 C.ar      1 <0>        -0.0977
     27 C20        -3.5187   -0.9820    0.9460 C.ar      1 <0>        -0.1342
     28 C21        -1.3573    1.9712    0.0221 C.3       1 <0>        -0.1322
     29 C22        -1.7105    3.1223    0.9283 C.2       1 <0>         0.4652
     30 O2         -2.7675    3.1280    1.5137 O.co2     1 <0>        -0.6307
     31 H1        -10.2009   -3.9451   -0.5788 H         1 <0>         0.0728
     32 H2         -9.9125   -5.6283   -1.0808 H         1 <0>         0.0895
     33 H3         -8.6374   -4.7219   -0.2317 H         1 <0>         0.0949
     34 H4         -7.5472   -2.9157   -5.6518 H         1 <0>         0.1479
     35 H5        -12.1478   -3.5560   -8.0470 H         1 <0>         0.1421
     36 H6        -11.4141   -5.6047   -9.1937 H         1 <0>         0.1433
     37 H7         -9.5840   -6.9588   -8.2624 H         1 <0>         0.1419
     38 H8         -5.7824   -1.6676   -4.3968 H         1 <0>         0.1862
     39 H9         -5.8986   -2.1882    0.8543 H         1 <0>         0.4233
     40 H10        -5.3369    0.2513   -1.6271 H         1 <0>         0.1278
     41 H11        -3.4978    1.8866   -1.6209 H         1 <0>         0.1208
     42 H12        -1.6836   -0.1516    1.6577 H         1 <0>         0.1218
     43 H13        -3.5235   -1.7860    1.6671 H         1 <0>         0.1187
     44 H14        -1.2000    2.3414   -0.9910 H         1 <0>         0.0765
     45 H15        -0.4453    1.4935    0.3800 H         1 <0>         0.0760
     46 O3         -0.8485    4.1385    1.0896 O.co2     1 <0>        -0.7725
@<TRIPOS>BOND
     1    1    2 1
     2    1   31 1
     3    1   32 1
     4    1   33 1
     5    2    7 am
     6    2    3 1
     7    3   20 ar
     8    3    4 ar
     9    4    5 1
    10    4   17 ar
    11    5    6 2
    12    5   34 1
    13    6    7 1
    14    6    9 1
    15    7    8 2
    16    9   14 ar
    17    9   10 ar
    18   10   11 ar
    19   10   16 1
    20   11   12 ar
    21   11   35 1
    22   12   13 ar
    23   12   36 1
    24   13   14 ar
    25   13   37 1
    26   14   15 1
    27   17   18 ar
    28   17   38 1
    29   18   19 ar
    30   19   20 ar
    31   19   21 1
    32   21   22 1
    33   21   39 1
    34   22   27 ar
    35   22   23 ar
    36   23   24 ar
    37   23   40 1
    38   24   25 ar
    39   24   41 1
    40   25   26 ar
    41   25   28 1
    42   26   27 ar
    43   26   42 1
    44   27   43 1
    45   28   29 1
    46   28   44 1
    47   28   45 1
    48   29   30 2
    49   29   46 1
@<TRIPOS>MOLECULE
ZINC03815309
   45    48     0     0     0
SMALL
USER_CHARGES

@<TRIPOS>ATOM
      1 C1          2.0709    8.2772    0.4276 C.3       1 <0>         0.0701
      2 N1          3.3654    7.5914    0.4148 N.am      1 <0>        -0.5061
      3 C2          3.4085    6.2243    0.3059 C.ar      1 <0>         0.4674
      4 C3          4.6476    5.5480    0.2920 C.ar      1 <0>        -0.2786
      5 C4          5.8559    6.2749    0.3904 C.2       1 <0>         0.0317
      6 C5          5.8030    7.6388    0.4983 C.2       1 <0>        -0.1655
      7 C6          4.5011    8.3093    0.5096 C.2       1 <0>         0.5571
      8 O1          4.4450    9.5224    0.6049 O.2       1 <0>        -0.5021
      9 C7          7.0517    8.4293    0.6026 C.ar      1 <0>        -0.0096
     10 C8          7.5999    8.7114    1.8545 C.ar      1 <0>        -0.0065
     11 C9          8.7669    9.4447    1.9445 C.ar      1 <0>        -0.1065
     12 C10         9.3865    9.9078    0.7978 C.ar      1 <0>        -0.0876
     13 C11         8.8455    9.6361   -0.4460 C.ar      1 <0>        -0.1065
     14 C12         7.6816    8.8998   -0.5502 C.ar      1 <0>        -0.0066
     15 Cl1         7.0036    8.5609   -2.1120 Cl        1 <0>        -0.0504
     16 Cl2         6.8202    8.1368    3.2951 Cl        1 <0>        -0.0501
     17 C13         4.6477    4.1496    0.1787 C.ar      1 <0>         0.2652
     18 N2          3.4895    3.5229    0.0897 N.ar      1 <0>        -0.5689
     19 C14         2.3421    4.1926    0.1060 C.ar      1 <0>         0.6089
     20 N3          2.2918    5.5122    0.2062 N.ar      1 <0>        -0.5976
     21 N4          1.1585    3.4870    0.0093 N.pl3     1 <0>        -0.6231
     22 C15         1.1757    2.0869    0.0133 C.ar      1 <0>         0.1171
     23 C16         2.1234    1.4060    0.7660 C.ar      1 <0>        -0.0674
     24 C17         2.1394    0.0252    0.7698 C.ar      1 <0>        -0.1319
     25 C18         1.2089   -0.6817    0.0223 C.ar      1 <0>         0.1168
     26 C19         0.2619   -0.0022   -0.7299 C.ar      1 <0>        -0.1885
     27 C20         0.2448    1.3786   -0.7351 C.ar      1 <0>        -0.1008
     28 O2          1.2253   -2.0414    0.0266 O.3       1 <0>        -0.3168
     29 C21         0.2382   -2.7046   -0.7658 C.3       1 <0>         0.0262
     30 H1          1.7162    8.3647    1.4546 H         1 <0>         0.0744
     31 H2          2.1823    9.2718   -0.0042 H         1 <0>         0.0919
     32 H3          1.3510    7.7055   -0.1580 H         1 <0>         0.0949
     33 H4          6.8065    5.7624    0.3799 H         1 <0>         0.1503
     34 H5          9.1942    9.6606    2.9126 H         1 <0>         0.1437
     35 H6         10.2966   10.4843    0.8739 H         1 <0>         0.1453
     36 H7          9.3340   10.0009   -1.3374 H         1 <0>         0.1436
     37 H8          5.5758    3.5975    0.1643 H         1 <0>         0.1882
     38 H9          0.3154    3.9615   -0.0615 H         1 <0>         0.4259
     39 H10         2.8449    1.9561    1.3519 H         1 <0>         0.1418
     40 H11         2.8763   -0.5046    1.3552 H         1 <0>         0.1357
     41 H12        -0.4620   -0.5533   -1.3119 H         1 <0>         0.1330
     42 H13        -0.4923    1.9074   -1.3211 H         1 <0>         0.1289
     43 H14        -0.7558   -2.4226   -0.4188 H         1 <0>         0.0559
     44 H15         0.3547   -2.4136   -1.8098 H         1 <0>         0.0560
     45 H16         0.3629   -3.7835   -0.6733 H         1 <0>         0.1010
@<TRIPOS>BOND
     1    1    2 1
     2    1   30 1
     3    1   31 1
     4    1   32 1
     5    2    7 am
     6    2    3 1
     7    3   20 ar
     8    3    4 ar
     9    4    5 1
    10    4   17 ar
    11    5    6 2
    12    5   33 1
    13    6    7 1
    14    6    9 1
    15    7    8 2
    16    9   14 ar
    17    9   10 ar
    18   10   11 ar
    19   10   16 1
    20   11   12 ar
    21   11   34 1
    22   12   13 ar
    23   12   35 1
    24   13   14 ar
    25   13   36 1
    26   14   15 1
    27   17   18 ar
    28   17   37 1
    29   18   19 ar
    30   19   20 ar
    31   19   21 1
    32   21   22 1
    33   21   38 1
    34   22   27 ar
    35   22   23 ar
    36   23   24 ar
    37   23   39 1
    38   24   25 ar
    39   24   40 1
    40   25   26 ar
    41   25   28 1
    42   26   27 ar
    43   26   41 1
    44   27   42 1
    45   28   29 1
    46   29   43 1
    47   29   44 1
    48   29   45 1
@<TRIPOS>MOLECULE
ZINC03815315
   48    51     0     0     0
SMALL
USER_CHARGES

@<TRIPOS>ATOM
      1 C1         -4.8073    0.5564   -0.9941 C.3       1 <0>        -0.1058
      2 C2         -3.6403    1.3421   -0.4538 C.ar      1 <0>        -0.0960
      3 C3         -2.3722    0.7952   -0.4720 C.ar      1 <0>        -0.1049
      4 C4         -1.2971    1.5195    0.0255 C.ar      1 <0>         0.1216
      5 C5         -1.4988    2.7911    0.5463 C.ar      1 <0>        -0.0725
      6 C6         -2.7663    3.3386    0.5586 C.ar      1 <0>        -0.1845
      7 C7         -3.8400    2.6143    0.0613 C.ar      1 <0>         0.1155
      8 O1         -5.0890    3.1518    0.0793 O.3       1 <0>        -0.3141
      9 C8         -5.2218    4.4662    0.6241 C.3       1 <0>         0.0263
     10 N1         -0.0111    0.9658    0.0074 N.pl3     1 <0>        -0.6226
     11 C9          1.0883    1.7790   -0.1883 C.ar      1 <0>         0.6094
     12 N2          0.8927    3.0625   -0.4717 N.ar      1 <0>        -0.5687
     13 C10         1.9089    3.8826   -0.6620 C.ar      1 <0>         0.2646
     14 C11         3.2120    3.3699   -0.5707 C.ar      1 <0>        -0.2790
     15 C12         4.3404    4.1976   -0.7699 C.2       1 <0>         0.0316
     16 C13         5.5913    3.6498   -0.6706 C.2       1 <0>        -0.1655
     17 C14         5.7297    2.2251   -0.3615 C.2       1 <0>         0.5570
     18 O2          6.8388    1.7295   -0.2712 O.2       1 <0>        -0.5020
     19 N3          4.6368    1.4600   -0.1760 N.am      1 <0>        -0.5060
     20 C15         3.3794    2.0002   -0.2736 C.ar      1 <0>         0.4674
     21 N4          2.2982    1.2499   -0.0919 N.ar      1 <0>        -0.5975
     22 C16         4.7923    0.0365    0.1336 C.3       1 <0>         0.0701
     23 C17         6.7939    4.4908   -0.8744 C.ar      1 <0>        -0.0097
     24 C18         7.3464    4.6263   -2.1486 C.ar      1 <0>        -0.0065
     25 C19         8.4645    5.4160   -2.3327 C.ar      1 <0>        -0.1065
     26 C20         9.0427    6.0633   -1.2556 C.ar      1 <0>        -0.0876
     27 C21         8.5033    5.9286    0.0110 C.ar      1 <0>        -0.1065
     28 C22         7.3824    5.1461    0.2079 C.ar      1 <0>        -0.0065
     29 Cl1         6.7073    4.9779    1.7984 Cl        1 <0>        -0.0504
     30 Cl2         6.6265    3.8089   -3.5004 Cl        1 <0>        -0.0502
     31 H1         -5.2489   -0.0358   -0.1926 H         1 <0>         0.0700
     32 H2         -5.5542    1.2430   -1.3925 H         1 <0>         0.0724
     33 H3         -4.4627   -0.1063   -1.7880 H         1 <0>         0.0656
     34 H4         -2.2169   -0.1955   -0.8728 H         1 <0>         0.1327
     35 H5         -0.6638    3.3531    0.9379 H         1 <0>         0.1368
     36 H6         -2.9227    4.3290    0.9598 H         1 <0>         0.1324
     37 H7         -4.8886    4.4647    1.6619 H         1 <0>         0.0555
     38 H8         -4.6119    5.1617    0.0476 H         1 <0>         0.0561
     39 H9         -6.2662    4.7746    0.5782 H         1 <0>         0.1005
     40 H10         0.1075    0.0107    0.1282 H         1 <0>         0.4260
     41 H11         1.7411    4.9253   -0.8879 H         1 <0>         0.1873
     42 H12         4.2176    5.2464   -0.9967 H         1 <0>         0.1500
     43 H13         4.8142   -0.5366   -0.7933 H         1 <0>         0.0744
     44 H14         5.7240   -0.1173    0.6779 H         1 <0>         0.0920
     45 H15         3.9543   -0.2957    0.7464 H         1 <0>         0.0951
     46 H16         8.8905    5.5253   -3.3191 H         1 <0>         0.1437
     47 H17         9.9194    6.6763   -1.4042 H         1 <0>         0.1453
     48 H18         8.9600    6.4361    0.8479 H         1 <0>         0.1437
@<TRIPOS>BOND
     1    1    2 1
     2    1   31 1
     3    1   32 1
     4    1   33 1
     5    2    7 ar
     6    2    3 ar
     7    3    4 ar
     8    3   34 1
     9    4    5 ar
    10    4   10 1
    11    5    6 ar
    12    5   35 1
    13    6    7 ar
    14    6   36 1
    15    7    8 1
    16    8    9 1
    17    9   37 1
    18    9   38 1
    19    9   39 1
    20   10   11 1
    21   10   40 1
    22   11   21 ar
    23   11   12 ar
    24   12   13 ar
    25   13   14 ar
    26   13   41 1
    27   14   20 ar
    28   14   15 1
    29   15   16 2
    30   15   42 1
    31   16   17 1
    32   16   23 1
    33   17   18 2
    34   17   19 am
    35   19   20 1
    36   19   22 1
    37   20   21 ar
    38   22   43 1
    39   22   44 1
    40   22   45 1
    41   23   28 ar
    42   23   24 ar
    43   24   25 ar
    44   24   30 1
    45   25   26 ar
    46   25   46 1
    47   26   27 ar
    48   26   47 1
    49   27   28 ar
    50   27   48 1
    51   28   29 1
@<TRIPOS>MOLECULE
ZINC03815329
   49    52     0     0     0
SMALL
USER_CHARGES

@<TRIPOS>ATOM
      1 C1          3.3736    3.6163    0.1121 C.3       1 <0>         0.0698
      2 N1          3.4289    2.1661    0.3125 N.am      1 <0>        -0.5057
      3 C2          2.2658    1.4385    0.3323 C.ar      1 <0>         0.4659
      4 C3          2.3015    0.0403    0.5239 C.ar      1 <0>        -0.2747
      5 C4          3.5381   -0.6227    0.6962 C.2       1 <0>         0.0307
      6 C5          4.6934    0.1116    0.6755 C.2       1 <0>        -0.1637
      7 C6          4.6210    1.5606    0.4751 C.2       1 <0>         0.5570
      8 O1          5.6441    2.2214    0.4548 O.2       1 <0>        -0.5015
      9 C7          6.0052   -0.5536    0.8537 C.ar      1 <0>        -0.0100
     10 C8          6.5478   -0.7021    2.1306 C.ar      1 <0>        -0.0064
     11 C9          7.7693   -1.3267    2.2902 C.ar      1 <0>        -0.1065
     12 C10         8.4588   -1.7963    1.1868 C.ar      1 <0>        -0.0875
     13 C11         7.9286   -1.6481   -0.0823 C.ar      1 <0>        -0.1065
     14 C12         6.7060   -1.0293   -0.2553 C.ar      1 <0>        -0.0065
     15 Cl1         6.0430   -0.8432   -1.8488 Cl        1 <0>        -0.0499
     16 Cl2         5.6870   -0.1080    3.5162 Cl        1 <0>        -0.0501
     17 C13         1.0896   -0.6663    0.5380 C.ar      1 <0>         0.2649
     18 N2         -0.0348    0.0047    0.3716 N.ar      1 <0>        -0.5625
     19 C14        -0.0302    1.3212    0.1938 C.ar      1 <0>         0.6098
     20 N3          1.0876    2.0307    0.1730 N.ar      1 <0>        -0.5938
     21 N4         -1.2358    1.9733    0.0186 N.pl3     1 <0>        -0.6232
     22 C15        -2.4198    1.2374   -0.0854 C.ar      1 <0>         0.2348
     23 C16        -2.4129   -0.0059   -0.7033 C.ar      1 <0>        -0.1787
     24 C17        -3.5865   -0.7376   -0.8009 C.ar      1 <0>         0.1855
     25 C18        -4.7693   -0.2230   -0.2913 C.ar      1 <0>        -0.3100
     26 C19        -4.7783    1.0216    0.3207 C.ar      1 <0>         0.1868
     27 C20        -3.6045    1.7520    0.4241 C.ar      1 <0>        -0.2137
     28 O2         -5.9378    1.5251    0.8193 O.3       1 <0>        -0.3119
     29 C21        -7.1091    0.7187    0.6780 C.3       1 <0>         0.0265
     30 O3         -3.5789   -1.9570   -1.4007 O.3       1 <0>        -0.3097
     31 C22        -4.8249   -2.6531   -1.4711 C.3       1 <0>         0.0262
     32 H1          3.2910    4.1137    1.0785 H         1 <0>         0.0747
     33 H2          4.2817    3.9484   -0.3910 H         1 <0>         0.0922
     34 H3          2.5070    3.8657   -0.5002 H         1 <0>         0.0954
     35 H4          3.5709   -1.6922    0.8432 H         1 <0>         0.1509
     36 H5          8.1887   -1.4455    3.2783 H         1 <0>         0.1437
     37 H6          9.4153   -2.2806    1.3166 H         1 <0>         0.1453
     38 H7          8.4721   -2.0167   -0.9397 H         1 <0>         0.1437
     39 H8          1.0769   -1.7366    0.6816 H         1 <0>         0.1887
     40 H9         -1.2605    2.9416   -0.0323 H         1 <0>         0.4301
     41 H10        -1.4928   -0.4048   -1.1042 H         1 <0>         0.1453
     42 H11        -5.6840   -0.7917   -0.3712 H         1 <0>         0.1359
     43 H12        -3.6115    2.7209    0.9013 H         1 <0>         0.1365
     44 H13        -7.9618    1.2364    1.1171 H         1 <0>         0.1033
     45 H14        -7.2996    0.5369   -0.3797 H         1 <0>         0.0567
     46 H15        -6.9591   -0.2325    1.1888 H         1 <0>         0.0568
     47 H16        -5.2026   -2.8248   -0.4632 H         1 <0>         0.0564
     48 H17        -5.5438   -2.0555   -2.0317 H         1 <0>         0.0558
     49 H18        -4.6787   -3.6099   -1.9723 H         1 <0>         0.1030
@<TRIPOS>BOND
     1    1    2 1
     2    1   32 1
     3    1   33 1
     4    1   34 1
     5    2    7 am
     6    2    3 1
     7    3   20 ar
     8    3    4 ar
     9    4    5 1
    10    4   17 ar
    11    5    6 2
    12    5   35 1
    13    6    7 1
    14    6    9 1
    15    7    8 2
    16    9   14 ar
    17    9   10 ar
    18   10   11 ar
    19   10   16 1
    20   11   12 ar
    21   11   36 1
    22   12   13 ar
    23   12   37 1
    24   13   14 ar
    25   13   38 1
    26   14   15 1
    27   17   18 ar
    28   17   39 1
    29   18   19 ar
    30   19   20 ar
    31   19   21 1
    32   21   22 1
    33   21   40 1
    34   22   27 ar
    35   22   23 ar
    36   23   24 ar
    37   23   41 1
    38   24   25 ar
    39   24   30 1
    40   25   26 ar
    41   25   42 1
    42   26   27 ar
    43   26   28 1
    44   27   43 1
    45   28   29 1
    46   29   44 1
    47   29   45 1
    48   29   46 1
    49   30   31 1
    50   31   47 1
    51   31   48 1
    52   31   49 1
@<TRIPOS>MOLECULE
ZINC03815345
   45    47     0     0     0
SMALL
USER_CHARGES

@<TRIPOS>ATOM
      1 C1         -4.5485    1.9602   -6.0776 C.3       1 <0>        -0.1661
      2 C2         -3.1559    1.3311   -5.9996 C.3       1 <0>         0.1881
      3 C3         -2.2974    1.8479   -7.1558 C.3       1 <0>        -0.1552
      4 C4         -3.2778   -0.1910   -6.0954 C.3       1 <0>        -0.1661
      5 N1         -2.5280    1.6915   -4.7260 N.am      1 <0>        -0.7355
      6 C5         -3.1107    1.3377   -3.5634 C.2       1 <0>         0.6920
      7 O1         -4.1574    0.7195   -3.5715 O.2       1 <0>        -0.5027
      8 N2         -2.5330    1.6692   -2.3917 N.am      1 <0>        -0.6602
      9 C6         -3.1329    1.3050   -1.1949 C.ar      1 <0>         0.4841
     10 C7         -2.5145    1.6602    0.0229 C.ar      1 <0>        -0.1701
     11 C8         -3.1074    1.2933    1.2204 C.ar      1 <0>         0.0511
     12 C9         -4.3186    0.5841    1.1654 C.ar      1 <0>        -0.2952
     13 C10        -4.9933    0.1754    2.3286 C.ar      1 <0>         0.2665
     14 N3         -6.1228   -0.4907    2.1988 N.ar      1 <0>        -0.5712
     15 C11        -6.6252   -0.7770    0.9997 C.ar      1 <0>         0.5963
     16 N4         -6.0348   -0.4190   -0.1247 N.ar      1 <0>        -0.5645
     17 C12        -4.8821    0.2616   -0.0970 C.ar      1 <0>         0.4321
     18 N5         -4.2668    0.6349   -1.2206 N.ar      1 <0>        -0.4746
     19 N6         -7.8138   -1.4786    0.9296 N.pl3     1 <0>        -0.8106
     20 C13        -1.2380    2.4142    0.0210 C.ar      1 <0>        -0.0377
     21 C14        -1.2484    3.8090    0.0341 C.ar      1 <0>        -0.0135
     22 C15        -0.0556    4.5057    0.0264 C.ar      1 <0>        -0.1049
     23 C16         1.1473    3.8231    0.0117 C.ar      1 <0>        -0.0845
     24 C17         1.1644    2.4401    0.0040 C.ar      1 <0>        -0.1049
     25 C18        -0.0215    1.7317    0.0116 C.ar      1 <0>        -0.0137
     26 Cl1         0.0021   -0.0041    0.0020 Cl        1 <0>        -0.0426
     27 Cl2        -2.7571    4.6675    0.0520 Cl        1 <0>        -0.0425
     28 H1         -4.4616    3.0446   -6.0093 H         1 <0>         0.0526
     29 H2         -5.0157    1.6920   -7.0252 H         1 <0>         0.0639
     30 H3         -5.1601    1.5921   -5.2539 H         1 <0>         0.0816
     31 H4         -1.3053    1.3997   -7.1002 H         1 <0>         0.0622
     32 H5         -2.7646    1.5797   -8.1033 H         1 <0>         0.0765
     33 H6         -2.2106    2.9322   -7.0875 H         1 <0>         0.0622
     34 H7         -3.8894   -0.5591   -5.2717 H         1 <0>         0.0816
     35 H8         -3.7450   -0.4591   -7.0430 H         1 <0>         0.0639
     36 H9         -2.2857   -0.6391   -6.0398 H         1 <0>         0.0526
     37 H10        -1.6928    2.1848   -4.7195 H         1 <0>         0.3936
     38 H11        -1.6978    2.1625   -2.3852 H         1 <0>         0.4113
     39 H12        -2.6543    1.5483    2.1670 H         1 <0>         0.1511
     40 H13        -4.5950    0.4022    3.3065 H         1 <0>         0.1806
     41 H14        -8.1973   -1.6980    0.0661 H         1 <0>         0.4185
     42 H15        -8.2645   -1.7516    1.7440 H         1 <0>         0.4170
     43 H16        -0.0624    5.5856    0.0323 H         1 <0>         0.1451
     44 H17         2.0771    4.3724    0.0058 H         1 <0>         0.1465
     45 H18         2.1069    1.9129   -0.0075 H         1 <0>         0.1451
@<TRIPOS>BOND
     1    1    2 1
     2    1   28 1
     3    1   29 1
     4    1   30 1
     5    2    3 1
     6    2    4 1
     7    2    5 1
     8    3   31 1
     9    3   32 1
    10    3   33 1
    11    4   34 1
    12    4   35 1
    13    4   36 1
    14    5    6 am
    15    5   37 1
    16    6    7 2
    17    6    8 am
    18    8    9 1
    19    8   38 1
    20    9   18 ar
    21    9   10 ar
    22   10   11 ar
    23   10   20 1
    24   11   12 ar
    25   11   39 1
    26   12   17 ar
    27   12   13 ar
    28   13   14 ar
    29   13   40 1
    30   14   15 ar
    31   15   16 ar
    32   15   19 1
    33   16   17 ar
    34   17   18 ar
    35   19   41 1
    36   19   42 1
    37   20   25 ar
    38   20   21 ar
    39   21   22 ar
    40   21   27 1
    41   22   23 ar
    42   22   43 1
    43   23   24 ar
    44   23   44 1
    45   24   25 ar
    46   24   45 1
    47   25   26 1
@<TRIPOS>MOLECULE
ZINC03815349
   44    47     0     0     0
SMALL
USER_CHARGES

@<TRIPOS>ATOM
      1 C1          1.2198   -2.1877    0.0271 C.3       1 <0>        -0.1150
      2 C2          1.2045   -0.6808    0.0223 C.ar      1 <0>        -0.0978
      3 C3          2.1341    0.0209    0.7678 C.ar      1 <0>        -0.1016
      4 C4          2.1229    1.4019    0.7657 C.ar      1 <0>        -0.1041
      5 C5          1.1767    2.0861    0.0133 C.ar      1 <0>         0.1482
      6 C6          0.2449    1.3782   -0.7351 C.ar      1 <0>        -0.1384
      7 C7          0.2612   -0.0028   -0.7279 C.ar      1 <0>        -0.1006
      8 N1          1.1623    3.4840    0.0092 N.pl3     1 <0>        -0.6254
      9 C8          2.3476    4.1875    0.1060 C.ar      1 <0>         0.6088
     10 N2          3.4938    3.5155    0.0896 N.ar      1 <0>        -0.5670
     11 C9          4.6530    4.1397    0.1791 C.ar      1 <0>         0.2645
     12 C10         4.6556    5.5384    0.2928 C.ar      1 <0>        -0.2777
     13 C11         5.8653    6.2630    0.3917 C.2       1 <0>         0.0312
     14 C12         5.8151    7.6269    0.5004 C.2       1 <0>        -0.1646
     15 C13         4.5143    8.2997    0.5121 C.2       1 <0>         0.5569
     16 O1          4.4604    9.5129    0.6086 O.2       1 <0>        -0.5018
     17 N3          3.3774    7.5840    0.4164 N.am      1 <0>        -0.5059
     18 C14         3.4181    6.2169    0.3067 C.ar      1 <0>         0.4666
     19 N4          2.2998    5.5067    0.2062 N.ar      1 <0>        -0.5969
     20 C15         2.0841    8.2721    0.4292 C.3       1 <0>         0.0700
     21 C16         7.0653    8.4149    0.6052 C.ar      1 <0>        -0.0100
     22 C17         7.6140    8.6952    1.8572 C.ar      1 <0>        -0.0064
     23 C18         8.7828    9.4255    1.9477 C.ar      1 <0>        -0.1065
     24 C19         9.4031    9.8885    0.8012 C.ar      1 <0>        -0.0875
     25 C20         8.8613    9.6190   -0.4426 C.ar      1 <0>        -0.1064
     26 C21         7.6960    8.8850   -0.5473 C.ar      1 <0>        -0.0065
     27 Cl1         7.0173    8.5483   -2.1093 Cl        1 <0>        -0.0503
     28 Cl2         6.8332    8.1212    3.2975 Cl        1 <0>        -0.0503
     29 H1          0.5824   -2.5550    0.8314 H         1 <0>         0.0702
     30 H2          0.8485   -2.5578   -0.9286 H         1 <0>         0.0661
     31 H3          2.2395   -2.5402    0.1818 H         1 <0>         0.0667
     32 H4          2.8695   -0.5116    1.3526 H         1 <0>         0.1258
     33 H5          2.8462    1.9493    1.3519 H         1 <0>         0.1345
     34 H6         -0.4918    1.9071   -1.3215 H         1 <0>         0.1253
     35 H7         -0.4635   -0.5538   -1.3090 H         1 <0>         0.1267
     36 H8          0.3201    3.9601   -0.0615 H         1 <0>         0.4261
     37 H9          5.5801    3.5859    0.1646 H         1 <0>         0.1881
     38 H10         6.8148    5.7485    0.3816 H         1 <0>         0.1504
     39 H11         1.7292    8.3596    1.4561 H         1 <0>         0.0745
     40 H12         2.1975    9.2668   -0.0020 H         1 <0>         0.0922
     41 H13         1.3634    7.7020   -0.1570 H         1 <0>         0.0949
     42 H14         9.2110    9.6394    2.9158 H         1 <0>         0.1437
     43 H15        10.3143   10.4632    0.8777 H         1 <0>         0.1454
     44 H16         9.3503    9.9837   -1.3339 H         1 <0>         0.1438
@<TRIPOS>BOND
     1    1    2 1
     2    1   29 1
     3    1   30 1
     4    1   31 1
     5    2    7 ar
     6    2    3 ar
     7    3    4 ar
     8    3   32 1
     9    4    5 ar
    10    4   33 1
    11    5    6 ar
    12    5    8 1
    13    6    7 ar
    14    6   34 1
    15    7   35 1
    16    8    9 1
    17    8   36 1
    18    9   19 ar
    19    9   10 ar
    20   10   11 ar
    21   11   12 ar
    22   11   37 1
    23   12   18 ar
    24   12   13 1
    25   13   14 2
    26   13   38 1
    27   14   15 1
    28   14   21 1
    29   15   16 2
    30   15   17 am
    31   17   18 1
    32   17   20 1
    33   18   19 ar
    34   20   39 1
    35   20   40 1
    36   20   41 1
    37   21   26 ar
    38   21   22 ar
    39   22   23 ar
    40   22   28 1
    41   23   24 ar
    42   23   42 1
    43   24   25 ar
    44   24   43 1
    45   25   26 ar
    46   25   44 1
    47   26   27 1
@<TRIPOS>MOLECULE
ZINC03815350
   43    46     0     0     0
SMALL
USER_CHARGES

@<TRIPOS>ATOM
      1 C1         -4.1948    2.7952    1.5249 C.3       1 <0>        -0.1629
      2 C2         -3.6608    3.2387    0.1614 C.3       1 <0>         0.0967
      3 N1         -2.4147    3.9870    0.3449 N.am      1 <0>        -0.5025
      4 C3         -1.2157    3.3200    0.3436 C.ar      1 <0>         0.4674
      5 C4         -0.0058    4.0261    0.5186 C.ar      1 <0>        -0.2723
      6 C5         -0.0199    5.4284    0.6969 C.2       1 <0>         0.0275
      7 C6         -1.2211    6.0853    0.6968 C.2       1 <0>        -0.1599
      8 C7         -2.4578    5.3227    0.5127 C.2       1 <0>         0.5573
      9 O1         -3.5308    5.8994    0.5108 O.2       1 <0>        -0.4989
     10 C8         -1.2695    7.5545    0.8818 C.ar      1 <0>        -0.0115
     11 C9         -1.3816    8.0962    2.1629 C.ar      1 <0>        -0.0063
     12 C10        -1.4214    9.4667    2.3288 C.ar      1 <0>        -0.1063
     13 C11        -1.3609   10.3018    1.2276 C.ar      1 <0>        -0.0868
     14 C12        -1.2551    9.7711   -0.0454 C.ar      1 <0>        -0.1062
     15 C13        -1.2090    8.4025   -0.2248 C.ar      1 <0>        -0.0063
     16 Cl1        -1.0766    7.7385   -1.8233 Cl        1 <0>        -0.0501
     17 Cl2        -1.4649    7.0498    3.5456 Cl        1 <0>        -0.0502
     18 C14         1.1983    3.3063    0.5105 C.ar      1 <0>         0.2640
     19 N2          1.1513    1.9983    0.3395 N.ar      1 <0>        -0.5681
     20 C15        -0.0062    1.3671    0.1777 C.ar      1 <0>         0.6071
     21 N3         -1.1672    2.0036    0.1731 N.ar      1 <0>        -0.5905
     22 N4          0.0021   -0.0041    0.0020 N.pl3     1 <0>        -0.6250
     23 C16         1.2127   -0.6839   -0.1184 C.ar      1 <0>         0.2033
     24 C17         2.3106   -0.0859   -0.7361 C.ar      1 <0>        -0.1666
     25 C18         3.4921   -0.7909   -0.8314 C.ar      1 <0>         0.1182
     26 N5          3.5878   -2.0184   -0.3559 N.ar      1 <0>        -0.4968
     27 C19         2.5705   -2.6203    0.2311 C.ar      1 <0>         0.1208
     28 C20         1.3559   -1.9820    0.3705 C.ar      1 <0>        -0.2011
     29 H1         -4.3854    3.6723    2.1432 H         1 <0>         0.0611
     30 H2         -5.1219    2.2385    1.3884 H         1 <0>         0.0777
     31 H3         -3.4576    2.1588    2.0143 H         1 <0>         0.0593
     32 H4         -4.3980    3.8751   -0.3281 H         1 <0>         0.0987
     33 H5         -3.4702    2.3616   -0.4570 H         1 <0>         0.1011
     34 H6          0.9028    5.9732    0.8316 H         1 <0>         0.1514
     35 H7         -1.5040    9.8874    3.3201 H         1 <0>         0.1440
     36 H8         -1.3970   11.3727    1.3624 H         1 <0>         0.1457
     37 H9         -1.2080   10.4286   -0.9010 H         1 <0>         0.1440
     38 H10         2.1438    3.8117    0.6409 H         1 <0>         0.1897
     39 H11        -0.8347   -0.4930   -0.0374 H         1 <0>         0.4294
     40 H12         2.2377    0.9167   -1.1311 H         1 <0>         0.1459
     41 H13         4.3487   -0.3343   -1.3049 H         1 <0>         0.1595
     42 H14         2.6905   -3.6258    0.6068 H         1 <0>         0.1604
     43 H15         0.5272   -2.4805    0.8513 H         1 <0>         0.1378
@<TRIPOS>BOND
     1    1    2 1
     2    1   29 1
     3    1   30 1
     4    1   31 1
     5    2    3 1
     6    2   32 1
     7    2   33 1
     8    3    8 am
     9    3    4 1
    10    4   21 ar
    11    4    5 ar
    12    5    6 1
    13    5   18 ar
    14    6    7 2
    15    6   34 1
    16    7    8 1
    17    7   10 1
    18    8    9 2
    19   10   15 ar
    20   10   11 ar
    21   11   12 ar
    22   11   17 1
    23   12   13 ar
    24   12   35 1
    25   13   14 ar
    26   13   36 1
    27   14   15 ar
    28   14   37 1
    29   15   16 1
    30   18   19 ar
    31   18   38 1
    32   19   20 ar
    33   20   21 ar
    34   20   22 1
    35   22   23 1
    36   22   39 1
    37   23   28 ar
    38   23   24 ar
    39   24   25 ar
    40   24   40 1
    41   25   26 ar
    42   25   41 1
    43   26   27 ar
    44   27   28 ar
    45   27   42 1
    46   28   43 1
@<TRIPOS>MOLECULE
ZINC03815354
   40    43     0     0     0
SMALL
USER_CHARGES

@<TRIPOS>ATOM
      1 C1         -5.9264    7.2257    0.5000 C.3       1 <0>         0.0695
      2 N1         -4.6527    7.9495    0.4955 N.am      1 <0>        -0.5056
      3 C2         -3.4763    7.2531    0.3779 C.ar      1 <0>         0.4670
      4 C3         -2.2404    7.9352    0.3714 C.ar      1 <0>        -0.2742
      5 C4         -2.2047    9.3438    0.4855 C.2       1 <0>         0.0289
      6 C5         -3.3835   10.0302    0.6024 C.2       1 <0>        -0.1611
      7 C6         -4.6483    9.2918    0.6063 C.2       1 <0>         0.5565
      8 O1         -5.7017    9.8947    0.7098 O.2       1 <0>        -0.4997
      9 C7         -3.3797   11.5068    0.7242 C.ar      1 <0>        -0.0113
     10 C8         -3.3221   12.1058    1.9832 C.ar      1 <0>        -0.0062
     11 C9         -3.3150   13.4828    2.0897 C.ar      1 <0>        -0.1063
     12 C10        -3.3740   14.2678    0.9522 C.ar      1 <0>        -0.0869
     13 C11        -3.4362   13.6803   -0.2985 C.ar      1 <0>        -0.1062
     14 C12        -3.4396   12.3044   -0.4191 C.ar      1 <0>        -0.0064
     15 Cl1        -3.5188   11.5691   -1.9897 Cl        1 <0>        -0.0500
     16 Cl2        -3.2539   11.1224    3.4122 Cl        1 <0>        -0.0503
     17 C13        -1.0608    7.1856    0.2498 C.ar      1 <0>         0.2651
     18 N2         -1.1539    5.8727    0.1514 N.ar      1 <0>        -0.5719
     19 C14        -2.3352    5.2648    0.1562 C.ar      1 <0>         0.6081
     20 N3         -3.4750    5.9293    0.2688 N.ar      1 <0>        -0.5935
     21 N4         -2.3756    3.8881    0.0453 N.pl3     1 <0>        -0.6216
     22 C15        -1.1869    3.1518    0.0415 C.ar      1 <0>         0.1068
     23 C16        -0.0915    3.5739    0.7916 C.ar      1 <0>        -0.0682
     24 C17         1.0655    2.8137    0.7515 C.ar      1 <0>        -0.1505
     25 C18         1.0920    1.6641   -0.0164 C.ar      1 <0>         0.0826
     26 N5          0.0360    1.2886   -0.7111 N.ar      1 <0>        -0.4637
     27 C19        -1.0828    1.9855   -0.7054 C.ar      1 <0>         0.0800
     28 H1         -6.1903    6.9613    1.5240 H         1 <0>         0.0751
     29 H2         -6.7056    7.8590    0.0759 H         1 <0>         0.0928
     30 H3         -5.8309    6.3184   -0.0964 H         1 <0>         0.0953
     31 H4         -1.2619    9.8705    0.4803 H         1 <0>         0.1513
     32 H5         -3.2666   13.9478    3.0633 H         1 <0>         0.1440
     33 H6         -3.3720   15.3441    1.0411 H         1 <0>         0.1457
     34 H7         -3.4825   14.2988   -1.1827 H         1 <0>         0.1441
     35 H8         -0.0966    7.6721    0.2413 H         1 <0>         0.1891
     36 H9         -3.2286    3.4324   -0.0299 H         1 <0>         0.4294
     37 H10        -0.1419    4.4740    1.3863 H         1 <0>         0.1461
     38 H11         1.9356    3.1130    1.3170 H         1 <0>         0.1401
     39 H12         1.9904    1.0654   -0.0479 H         1 <0>         0.1592
     40 H13        -1.9271    1.6460   -1.2870 H         1 <0>         0.1572
@<TRIPOS>BOND
     1    1    2 1
     2    1   28 1
     3    1   29 1
     4    1   30 1
     5    2    7 am
     6    2    3 1
     7    3   20 ar
     8    3    4 ar
     9    4    5 1
    10    4   17 ar
    11    5    6 2
    12    5   31 1
    13    6    7 1
    14    6    9 1
    15    7    8 2
    16    9   14 ar
    17    9   10 ar
    18   10   11 ar
    19   10   16 1
    20   11   12 ar
    21   11   32 1
    22   12   13 ar
    23   12   33 1
    24   13   14 ar
    25   13   34 1
    26   14   15 1
    27   17   18 ar
    28   17   35 1
    29   18   19 ar
    30   19   20 ar
    31   19   21 1
    32   21   22 1
    33   21   36 1
    34   22   27 ar
    35   22   23 ar
    36   23   24 ar
    37   23   37 1
    38   24   25 ar
    39   24   38 1
    40   25   26 ar
    41   25   39 1
    42   26   27 ar
    43   27   40 1
@<TRIPOS>MOLECULE
ZINC03815368
   51    53     0     0     0
SMALL
USER_CHARGES

@<TRIPOS>ATOM
      1 C1          4.7452    4.1433    2.4915 C.3       1 <0>        -0.1183
      2 C2          5.3689    4.5451    1.1798 C.ar      1 <0>        -0.0599
      3 C3          6.5375    5.2792    1.1660 C.ar      1 <0>        -0.1258
      4 C4          7.1078    5.6539   -0.0372 C.ar      1 <0>        -0.1015
      5 C5          6.5144    5.2909   -1.2329 C.ar      1 <0>        -0.1257
      6 C6          5.3491    4.5516   -1.2314 C.ar      1 <0>        -0.0598
      7 C7          4.7698    4.1711   -0.0220 C.ar      1 <0>        -0.0609
      8 C8          3.5179    3.3767   -0.0138 C.ar      1 <0>        -0.1501
      9 C9          3.5691    1.9916   -0.0217 C.ar      1 <0>         0.0324
     10 C10         2.3540    1.2879   -0.0135 C.ar      1 <0>        -0.2938
     11 C11         2.3093   -0.1169   -0.0206 C.ar      1 <0>         0.2630
     12 N1          1.1319   -0.7082   -0.0125 N.ar      1 <0>        -0.5712
     13 C12         0.0021   -0.0041    0.0020 C.ar      1 <0>         0.5940
     14 N2         -0.0158    1.3152    0.0093 N.ar      1 <0>        -0.5641
     15 C13         1.1302    2.0077    0.0020 C.ar      1 <0>         0.4256
     16 N3          1.1376    3.3417    0.0087 N.ar      1 <0>        -0.4765
     17 C14         2.2646    4.0243    0.0012 C.ar      1 <0>         0.4710
     18 N4          2.2178    5.4108    0.0086 N.am      1 <0>        -0.6598
     19 C15         1.0286    6.0449    0.0233 C.2       1 <0>         0.6903
     20 O1         -0.0031    5.4018    0.0301 O.2       1 <0>        -0.5047
     21 N5          0.9831    7.3918    0.0305 N.am      1 <0>        -0.7358
     22 C16        -0.3096    8.0810    0.0465 C.3       1 <0>         0.1880
     23 C17        -1.0868    7.6782    1.3014 C.3       1 <0>        -0.1660
     24 C18        -0.0809    9.5938    0.0519 C.3       1 <0>        -0.1554
     25 C19        -1.1110    7.6908   -1.1969 C.3       1 <0>        -0.1660
     26 N6         -1.2015   -0.6829    0.0094 N.pl3     1 <0>        -0.8116
     27 C20         4.7044    4.1560   -2.5348 C.3       1 <0>        -0.1193
     28 H1          5.1451    3.1785    2.8036 H         1 <0>         0.0748
     29 H2          4.9749    4.8937    3.2480 H         1 <0>         0.0694
     30 H3          3.6645    4.0671    2.3717 H         1 <0>         0.0636
     31 H4          7.0053    5.5651    2.0965 H         1 <0>         0.1253
     32 H5          8.0197    6.2325   -0.0432 H         1 <0>         0.1248
     33 H6          6.9641    5.5863   -2.1693 H         1 <0>         0.1253
     34 H7          4.5145    1.4696   -0.0332 H         1 <0>         0.1502
     35 H8          3.2193   -0.6983   -0.0320 H         1 <0>         0.1798
     36 H9          3.0410    5.9239    0.0032 H         1 <0>         0.4149
     37 H10         1.8063    7.9050    0.0251 H         1 <0>         0.3940
     38 H11        -0.5158    7.9563    2.1873 H         1 <0>         0.0525
     39 H12        -2.0485    8.1910    1.3133 H         1 <0>         0.0639
     40 H13        -1.2496    6.6005    1.2976 H         1 <0>         0.0815
     41 H14         0.4728    9.8808   -0.8421 H         1 <0>         0.0622
     42 H15        -1.0427   10.1066    0.0638 H         1 <0>         0.0765
     43 H16         0.4900    9.8719    0.9378 H         1 <0>         0.0622
     44 H17        -1.2739    6.6130   -1.2008 H         1 <0>         0.0815
     45 H18        -2.0728    8.2036   -1.1850 H         1 <0>         0.0639
     46 H19        -0.5573    7.9777   -2.0909 H         1 <0>         0.0525
     47 H20        -2.0366   -0.1895    0.0197 H         1 <0>         0.4182
     48 H21        -1.2113   -1.6529    0.0042 H         1 <0>         0.4167
     49 H22         3.9981    4.9282   -2.8399 H         1 <0>         0.0705
     50 H23         5.4720    4.0428   -3.3003 H         1 <0>         0.0707
     51 H24         4.1766    3.2109   -2.4070 H         1 <0>         0.0672
@<TRIPOS>BOND
     1    1    2 1
     2    1   28 1
     3    1   29 1
     4    1   30 1
     5    2    7 ar
     6    2    3 ar
     7    3    4 ar
     8    3   31 1
     9    4    5 ar
    10    4   32 1
    11    5    6 ar
    12    5   33 1
    13    6    7 ar
    14    6   27 1
    15    7    8 1
    16    8   17 ar
    17    8    9 ar
    18    9   10 ar
    19    9   34 1
    20   10   15 ar
    21   10   11 ar
    22   11   12 ar
    23   11   35 1
    24   12   13 ar
    25   13   14 ar
    26   13   26 1
    27   14   15 ar
    28   15   16 ar
    29   16   17 ar
    30   17   18 1
    31   18   19 am
    32   18   36 1
    33   19   20 2
    34   19   21 am
    35   21   22 1
    36   21   37 1
    37   22   23 1
    38   22   24 1
    39   22   25 1
    40   23   38 1
    41   23   39 1
    42   23   40 1
    43   24   41 1
    44   24   42 1
    45   24   43 1
    46   25   44 1
    47   25   45 1
    48   25   46 1
    49   26   47 1
    50   26   48 1
    51   27   49 1
    52   27   50 1
    53   27   51 1
@<TRIPOS>MOLECULE
ZINC03815379
   75    79     0     0     0
SMALL
USER_CHARGES

@<TRIPOS>ATOM
      1 C1         17.6153   -0.7836   -1.7674 C.3       1 <0>        -0.0461
      2 C2         16.6203   -2.6587   -0.6017 C.3       1 <0>        -0.0268
      3 C3         15.5490   -3.7472   -0.7019 C.3       1 <0>        -0.0260
      4 C4         14.1571   -2.2571   -2.0061 C.3       1 <0>        -0.0333
      5 C5         15.2284   -1.1687   -1.9060 C.3       1 <0>        -0.0263
      6 C6         13.1620   -4.1322   -0.8404 C.3       1 <0>        -0.0008
      7 C7         11.8009   -3.4458   -0.7102 C.3       1 <0>        -0.1688
      8 C8         10.6933   -4.5011   -0.7338 C.3       1 <0>         0.1457
      9 N1          9.3899   -3.8439   -0.6091 N.pl3     1 <0>        -0.7057
     10 C9          8.2326   -4.5993   -0.6058 C.ar      1 <0>         0.5860
     11 N2          8.3336   -5.9221   -0.7171 N.ar      1 <0>        -0.5779
     12 C10         7.2657   -6.6941   -0.7205 C.ar      1 <0>         0.2691
     13 C11         6.0019   -6.0908   -0.6024 C.ar      1 <0>        -0.2837
     14 C12         4.8170   -6.8450   -0.5980 C.ar      1 <0>         0.0458
     15 C13         3.6151   -6.1659   -0.4776 C.ar      1 <0>        -0.1488
     16 C14         3.6214   -4.7591   -0.3651 C.ar      1 <0>         0.4900
     17 N3          4.7461   -4.0733   -0.3767 N.ar      1 <0>        -0.4754
     18 C15         5.9306   -4.6779   -0.4851 C.ar      1 <0>         0.4296
     19 N4          7.0732   -3.9798   -0.4922 N.ar      1 <0>        -0.5537
     20 N5          2.4159   -4.0829   -0.2453 N.am      1 <0>        -0.6545
     21 C16         2.4047   -2.7396   -0.1368 C.2       1 <0>         0.6931
     22 O1          3.4509   -2.1204   -0.1441 O.2       1 <0>        -0.4948
     23 N6          1.2336   -2.0827   -0.0204 N.am      1 <0>        -0.6769
     24 C17         1.2132   -0.6815   -0.0198 C.ar      1 <0>         0.1218
     25 C18         2.1374    0.0268   -0.7760 C.ar      1 <0>        -0.0777
     26 C19         2.1165    1.4076   -0.7753 C.ar      1 <0>        -0.1324
     27 C20         1.1724    2.0869   -0.0194 C.ar      1 <0>         0.1174
     28 C21         0.2487    1.3798    0.7363 C.ar      1 <0>        -0.1872
     29 C22         0.2686   -0.0010    0.7366 C.ar      1 <0>        -0.1001
     30 O2          1.1526    3.4465   -0.0188 O.3       1 <0>        -0.3174
     31 C23         0.1534    4.0805    0.7823 C.3       1 <0>         0.0254
     32 C24         2.3334   -6.9109   -0.4667 C.ar      1 <0>        -0.0525
     33 C25         1.6588   -7.1615   -1.6616 C.ar      1 <0>        -0.0124
     34 C26         0.4677   -7.8608   -1.6452 C.ar      1 <0>        -0.1019
     35 C27        -0.0618   -8.3027   -0.4463 C.ar      1 <0>        -0.0775
     36 C28         0.5994   -8.0524    0.7426 C.ar      1 <0>        -0.1020
     37 C29         1.7942   -7.3592    0.7391 C.ar      1 <0>        -0.0127
     38 Cl1         2.6226   -7.0462    2.2322 Cl        1 <0>        -0.0435
     39 Cl2         2.3181   -6.6015   -3.1667 Cl        1 <0>        -0.0436
     40 H1         18.5870   -1.2771   -1.7491 H         1 <0>         0.1362
     41 H2         17.5415   -0.1595   -2.6580 H         1 <0>         0.1361
     42 H3         17.5065   -0.1624   -0.8784 H         1 <0>         0.1328
     43 H4         16.4476   -2.0597    0.2924 H         1 <0>         0.1558
     44 H5         17.6052   -3.1221   -0.5444 H         1 <0>         0.1757
     45 H6         15.5788   -4.3701    0.1920 H         1 <0>         0.1759
     46 H7         15.7375   -4.3631   -1.5812 H         1 <0>         0.1573
     47 H8         14.3297   -2.8561   -2.9003 H         1 <0>         0.1581
     48 H9         13.1721   -1.7938   -2.0631 H         1 <0>         0.1751
     49 H10        15.0399   -0.5527   -1.0266 H         1 <0>         0.1561
     50 H11        15.1987   -0.5454   -2.7997 H         1 <0>         0.1755
     51 H12        13.3013   -4.8236   -0.0094 H         1 <0>         0.1482
     52 H13        13.2035   -4.6815   -1.7810 H         1 <0>         0.1461
     53 H14        11.6616   -2.7544   -1.5413 H         1 <0>         0.0954
     54 H15        11.7594   -2.8965    0.2303 H         1 <0>         0.0999
     55 H16        10.8325   -5.1925    0.0973 H         1 <0>         0.0799
     56 H17        10.7347   -5.0504   -1.6743 H         1 <0>         0.0790
     57 H18         9.3392   -2.8785   -0.5289 H         1 <0>         0.4169
     58 H19         7.3596   -7.7661   -0.8117 H         1 <0>         0.1837
     59 H20         4.8419   -7.9212   -0.6854 H         1 <0>         0.1565
     60 H21         1.5812   -4.5770   -0.2395 H         1 <0>         0.4176
     61 H22         0.4049   -2.5799    0.0630 H         1 <0>         0.4079
     62 H23         2.8727   -0.5019   -1.3643 H         1 <0>         0.1414
     63 H24         2.8381    1.9588   -1.3600 H         1 <0>         0.1339
     64 H25        -0.4860    1.9093    1.3247 H         1 <0>         0.1349
     65 H26        -0.4508   -0.5514    1.3247 H         1 <0>         0.1303
     66 H27         0.2487    5.1626    0.6929 H         1 <0>         0.1024
     67 H28        -0.8350    3.7734    0.4406 H         1 <0>         0.0576
     68 H29         0.2844    3.7890    1.8244 H         1 <0>         0.0564
     69 H30        -0.0532   -8.0596   -2.5702 H         1 <0>         0.1485
     70 H31        -0.9957   -8.8451   -0.4383 H         1 <0>         0.1507
     71 H32         0.1808   -8.4001    1.6755 H         1 <0>         0.1485
     72 N7         16.5551   -1.8132   -1.8124 N.4       1 <0>        -0.4065
     73 H33        16.6985   -2.4037   -2.6401 H         1 <0>         0.4405
     74 N8         14.2222   -3.1026   -0.7954 N.4       1 <0>        -0.4062
     75 H34        14.0789   -2.5122    0.0323 H         1 <0>         0.4384
@<TRIPOS>BOND
     1    1   40 1
     2    1   41 1
     3    1   42 1
     4    1   72 1
     5    2    3 1
     6    2   43 1
     7    2   44 1
     8    2   72 1
     9    3   45 1
    10    3   46 1
    11    3   74 1
    12    4    5 1
    13    4   47 1
    14    4   48 1
    15    4   74 1
    16    5   49 1
    17    5   50 1
    18    5   72 1
    19    6    7 1
    20    6   51 1
    21    6   52 1
    22    6   74 1
    23    7    8 1
    24    7   53 1
    25    7   54 1
    26    8    9 1
    27    8   55 1
    28    8   56 1
    29    9   10 1
    30    9   57 1
    31   10   19 ar
    32   10   11 ar
    33   11   12 ar
    34   12   13 ar
    35   12   58 1
    36   13   18 ar
    37   13   14 ar
    38   14   15 ar
    39   14   59 1
    40   15   16 ar
    41   15   32 1
    42   16   17 ar
    43   16   20 1
    44   17   18 ar
    45   18   19 ar
    46   20   21 am
    47   20   60 1
    48   21   22 2
    49   21   23 am
    50   23   24 1
    51   23   61 1
    52   24   29 ar
    53   24   25 ar
    54   25   26 ar
    55   25   62 1
    56   26   27 ar
    57   26   63 1
    58   27   28 ar
    59   27   30 1
    60   28   29 ar
    61   28   64 1
    62   29   65 1
    63   30   31 1
    64   31   66 1
    65   31   67 1
    66   31   68 1
    67   32   37 ar
    68   32   33 ar
    69   33   34 ar
    70   33   39 1
    71   34   35 ar
    72   34   69 1
    73   35   36 ar
    74   35   70 1
    75   36   37 ar
    76   36   71 1
    77   37   38 1
    78   72   73 1
    79   74   75 1
@<TRIPOS>MOLECULE
ZINC03815405
   77    81     0     0     0
SMALL
USER_CHARGES

@<TRIPOS>ATOM
      1 C1        -14.8245    1.7607   -9.8470 C.3       1 <0>        -0.0461
      2 C2        -12.7907    2.2967  -11.0476 C.3       1 <0>        -0.0268
      3 C3        -11.3785    1.8007  -11.3673 C.3       1 <0>        -0.0261
      4 C4        -11.2569    0.7451   -9.1926 C.3       1 <0>        -0.0333
      5 C5        -12.6690    1.2410   -8.8728 C.3       1 <0>        -0.0262
      6 C6         -9.2231    1.2811  -10.3931 C.3       1 <0>        -0.0008
      7 C7         -8.3939    1.4096   -9.1137 C.3       1 <0>        -0.1686
      8 C8         -6.9499    0.9911   -9.3976 C.3       1 <0>         0.1459
      9 N1         -6.1560    1.1141   -8.1726 N.pl3     1 <0>        -0.7061
     10 C9         -4.8127    0.7894   -8.1842 C.ar      1 <0>         0.5853
     11 N2         -4.2678    0.3681   -9.3234 N.ar      1 <0>        -0.5789
     12 C10        -2.9927    0.0437   -9.3956 C.ar      1 <0>         0.2686
     13 C11        -2.2066    0.1520   -8.2356 C.ar      1 <0>        -0.2849
     14 C12        -0.8406   -0.1747   -8.2316 C.ar      1 <0>         0.0444
     15 C13        -0.1435   -0.0380   -7.0419 C.ar      1 <0>        -0.1500
     16 C14        -0.8194    0.4184   -5.8902 C.ar      1 <0>         0.4912
     17 N3         -2.1029    0.7136   -5.9178 N.ar      1 <0>        -0.4757
     18 C15        -2.8197    0.6050   -7.0381 C.ar      1 <0>         0.4293
     19 N4         -4.1231    0.9102   -7.0658 N.ar      1 <0>        -0.5543
     20 N5         -0.1177    0.5539   -4.7009 N.am      1 <0>        -0.6573
     21 C16        -0.7486    0.9886   -3.5921 C.2       1 <0>         0.6932
     22 O1         -1.9324    1.2619   -3.6339 O.2       1 <0>        -0.5118
     23 N6         -0.0670    1.1202   -2.4368 N.am      1 <0>        -0.7355
     24 C17        -0.7527    1.5927   -1.2315 C.3       1 <0>         0.1651
     25 C18        -0.0127    1.0858    0.0080 C.3       1 <0>        -0.1274
     26 C19        -0.7288    1.5792    1.2668 C.3       1 <0>        -0.1158
     27 C20        -0.7496    3.1091    1.2752 C.3       1 <0>        -0.1242
     28 C21        -1.4896    3.6159    0.0357 C.3       1 <0>        -0.1163
     29 C22        -0.7734    3.1225   -1.2231 C.3       1 <0>        -0.1300
     30 C23         1.3006   -0.3680   -6.9795 C.ar      1 <0>        -0.0510
     31 C24         1.7101   -1.6609   -6.6533 C.ar      1 <0>        -0.0125
     32 C25         3.0570   -1.9630   -6.6011 C.ar      1 <0>        -0.1022
     33 C26         3.9989   -0.9844   -6.8620 C.ar      1 <0>        -0.0780
     34 C27         3.5994    0.3009   -7.1809 C.ar      1 <0>        -0.1021
     35 C28         2.2555    0.6146   -7.2411 C.ar      1 <0>        -0.0125
     36 Cl1         1.7560    2.2284   -7.6410 Cl        1 <0>        -0.0438
     37 Cl2         0.5295   -2.8889   -6.3190 Cl        1 <0>        -0.0442
     38 H1        -15.3886    1.7750  -10.7795 H         1 <0>         0.1362
     39 H2        -15.2799    1.0497   -9.1577 H         1 <0>         0.1361
     40 H3        -14.8336    2.7554   -9.4015 H         1 <0>         0.1328
     41 H4        -12.7342    3.2831  -10.5872 H         1 <0>         0.1558
     42 H5        -13.3718    2.3576  -11.9678 H         1 <0>         0.1757
     43 H6        -10.8860    2.5099  -12.0327 H         1 <0>         0.1760
     44 H7        -11.4364    0.8263  -11.8524 H         1 <0>         0.1573
     45 H8        -11.3134   -0.2413   -9.6529 H         1 <0>         0.1581
     46 H9        -10.6757    0.6846   -8.2724 H         1 <0>         0.1751
     47 H10       -12.6112    2.2154   -8.3878 H         1 <0>         0.1560
     48 H11       -13.1617    0.5322   -8.2073 H         1 <0>         0.1754
     49 H12        -8.8029    1.9262  -11.1648 H         1 <0>         0.1482
     50 H13        -9.2053    0.2463  -10.7353 H         1 <0>         0.1461
     51 H14        -8.8141    0.7645   -8.3421 H         1 <0>         0.0952
     52 H15        -8.4118    2.4443   -8.7716 H         1 <0>         0.0997
     53 H16        -6.5297    1.6362  -10.1693 H         1 <0>         0.0797
     54 H17        -6.9321   -0.0437   -9.7398 H         1 <0>         0.0787
     55 H18        -6.5731    1.4235   -7.3533 H         1 <0>         0.4166
     56 H19        -2.5613   -0.2969  -10.3253 H         1 <0>         0.1832
     57 H20        -0.3486   -0.5215   -9.1284 H         1 <0>         0.1556
     58 H21         0.8268    0.3358   -4.6676 H         1 <0>         0.4157
     59 H22         0.8776    0.9021   -2.4035 H         1 <0>         0.3969
     60 H23        -1.7753    1.2154   -1.2238 H         1 <0>         0.0901
     61 H24         0.0021   -0.0041    0.0020 H         1 <0>         0.0698
     62 H25         1.0099    1.4631    0.0003 H         1 <0>         0.0701
     63 H26        -1.7514    1.2020    1.2746 H         1 <0>         0.0652
     64 H27        -0.2017    1.2182    2.1499 H         1 <0>         0.0705
     65 H28         0.2730    3.4864    1.2675 H         1 <0>         0.0644
     66 H29        -1.2598    3.4606    2.1720 H         1 <0>         0.0661
     67 H30        -1.5044    4.7058    0.0417 H         1 <0>         0.0657
     68 H31        -2.5122    3.2386    0.0434 H         1 <0>         0.0636
     69 H32         0.2491    3.4998   -1.2308 H         1 <0>         0.0643
     70 H33        -1.3006    3.4836   -2.1062 H         1 <0>         0.0665
     71 H34         3.3753   -2.9647   -6.3526 H         1 <0>         0.1482
     72 H35         5.0508   -1.2247   -6.8162 H         1 <0>         0.1505
     73 H36         4.3397    1.0608   -7.3829 H         1 <0>         0.1483
     74 N7        -13.4379    1.3338  -10.1319 N.4       1 <0>        -0.4066
     75 H37       -13.4585    0.4099  -10.5793 H         1 <0>         0.4405
     76 N8        -10.6097    1.7081  -10.1085 N.4       1 <0>        -0.4061
     77 H38       -10.5891    2.6321   -9.6612 H         1 <0>         0.4384
@<TRIPOS>BOND
     1    1   38 1
     2    1   39 1
     3    1   40 1
     4    1   74 1
     5    2    3 1
     6    2   41 1
     7    2   42 1
     8    2   74 1
     9    3   43 1
    10    3   44 1
    11    3   76 1
    12    4    5 1
    13    4   45 1
    14    4   46 1
    15    4   76 1
    16    5   47 1
    17    5   48 1
    18    5   74 1
    19    6    7 1
    20    6   49 1
    21    6   50 1
    22    6   76 1
    23    7    8 1
    24    7   51 1
    25    7   52 1
    26    8    9 1
    27    8   53 1
    28    8   54 1
    29    9   10 1
    30    9   55 1
    31   10   19 ar
    32   10   11 ar
    33   11   12 ar
    34   12   13 ar
    35   12   56 1
    36   13   18 ar
    37   13   14 ar
    38   14   15 ar
    39   14   57 1
    40   15   16 ar
    41   15   30 1
    42   16   17 ar
    43   16   20 1
    44   17   18 ar
    45   18   19 ar
    46   20   21 am
    47   20   58 1
    48   21   22 2
    49   21   23 am
    50   23   24 1
    51   23   59 1
    52   24   29 1
    53   24   25 1
    54   24   60 1
    55   25   26 1
    56   25   61 1
    57   25   62 1
    58   26   27 1
    59   26   63 1
    60   26   64 1
    61   27   28 1
    62   27   65 1
    63   27   66 1
    64   28   29 1
    65   28   67 1
    66   28   68 1
    67   29   69 1
    68   29   70 1
    69   30   35 ar
    70   30   31 ar
    71   31   32 ar
    72   31   37 1
    73   32   33 ar
    74   32   71 1
    75   33   34 ar
    76   33   72 1
    77   34   35 ar
    78   34   73 1
    79   35   36 1
    80   74   75 1
    81   76   77 1
@<TRIPOS>MOLECULE
ZINC03815412
   74    78     0     0     0
SMALL
USER_CHARGES

@<TRIPOS>ATOM
      1 C1         -7.8609    7.7677   -0.8644 C.3       1 <0>        -0.0461
      2 C2         -5.7851    7.6946    0.3808 C.3       1 <0>        -0.0269
      3 C3         -4.3103    7.2933    0.3001 C.3       1 <0>        -0.0260
      4 C4         -4.8851    5.4832   -1.2006 C.3       1 <0>        -0.0333
      5 C5         -6.3598    5.8845   -1.1199 C.3       1 <0>        -0.0262
      6 C6         -2.8093    5.4101    0.0446 C.3       1 <0>        -0.0009
      7 C7         -2.7524    3.8812    0.0360 C.3       1 <0>        -0.1686
      8 C8         -1.2920    3.4252    0.0267 C.3       1 <0>         0.1459
      9 N1         -1.2375    1.9612    0.0185 N.pl3     1 <0>        -0.7061
     10 C9         -0.0158    1.3152    0.0093 C.ar      1 <0>         0.5855
     11 N2          1.0945    2.0497    0.0026 N.ar      1 <0>        -0.5789
     12 C10         2.2875    1.4904   -0.0119 C.ar      1 <0>         0.2688
     13 C11         2.3700    0.0874   -0.0202 C.ar      1 <0>        -0.2848
     14 C12         3.6040   -0.5833   -0.0361 C.ar      1 <0>         0.0447
     15 C13         3.5901   -1.9690   -0.0439 C.ar      1 <0>        -0.1498
     16 C14         2.3544   -2.6505   -0.0357 C.ar      1 <0>         0.4913
     17 N3          1.2097   -1.9987   -0.0207 N.ar      1 <0>        -0.4761
     18 C15         1.1664   -0.6651   -0.0127 C.ar      1 <0>         0.4295
     19 N4          0.0021   -0.0041    0.0020 N.ar      1 <0>        -0.5544
     20 N5          2.3449   -4.0378   -0.0430 N.am      1 <0>        -0.6566
     21 C16         1.1731   -4.7038   -0.0353 C.2       1 <0>         0.6929
     22 O1          0.1246   -4.0888   -0.0219 O.2       1 <0>        -0.5126
     23 N6          1.1639   -6.0515   -0.0425 N.am      1 <0>        -0.7344
     24 C17        -0.1097   -6.7753   -0.0341 C.3       1 <0>         0.1831
     25 C18         0.1555   -8.2588   -0.0446 C.ar      1 <0>        -0.1176
     26 C19         0.2600   -8.9337   -1.2465 C.ar      1 <0>        -0.0990
     27 C20         0.5081  -10.2936   -1.2561 C.ar      1 <0>        -0.1208
     28 C21         0.6417  -10.9803   -0.0639 C.ar      1 <0>        -0.1065
     29 C22         0.5315  -10.3064    1.1380 C.ar      1 <0>        -0.1207
     30 C23         0.2886   -8.9456    1.1476 C.ar      1 <0>        -0.0989
     31 C24         4.8629   -2.7291   -0.0612 C.ar      1 <0>        -0.0513
     32 C25         5.4489   -3.0863   -1.2756 C.ar      1 <0>        -0.0124
     33 C26         6.6375   -3.7900   -1.2849 C.ar      1 <0>        -0.1021
     34 C27         7.2411   -4.1495   -0.0935 C.ar      1 <0>        -0.0779
     35 C28         6.6621   -3.8033    1.1140 C.ar      1 <0>        -0.1020
     36 C29         5.4764   -3.0951    1.1369 C.ar      1 <0>        -0.0124
     37 Cl1         4.7510   -2.6620    2.6534 Cl        1 <0>        -0.0437
     38 Cl2         4.6890   -2.6422   -2.7720 Cl        1 <0>        -0.0442
     39 H1         -7.9027    8.8506   -0.7473 H         1 <0>         0.1362
     40 H2         -8.3357    7.4853   -1.8040 H         1 <0>         0.1361
     41 H3         -8.3847    7.2921   -0.0353 H         1 <0>         0.1327
     42 H4         -6.2588    7.1735    1.2128 H         1 <0>         0.1558
     43 H5         -5.8611    8.7709    0.5352 H         1 <0>         0.1757
     44 H6         -3.8153    7.5365    1.2402 H         1 <0>         0.1760
     45 H7         -3.8302    7.8349   -0.5149 H         1 <0>         0.1573
     46 H8         -4.4114    6.0043   -2.0327 H         1 <0>         0.1582
     47 H9         -4.8090    4.4068   -1.3546 H         1 <0>         0.1751
     48 H10        -6.8400    5.3429   -0.3050 H         1 <0>         0.1560
     49 H11        -6.8552    5.6413   -2.0599 H         1 <0>         0.1754
     50 H12        -2.3051    5.7875    0.9343 H         1 <0>         0.1482
     51 H13        -2.3134    5.7971   -0.8456 H         1 <0>         0.1461
     52 H14        -3.2565    3.5038   -0.8537 H         1 <0>         0.0952
     53 H15        -3.2482    3.4942    0.9262 H         1 <0>         0.0997
     54 H16        -0.7878    3.8025    0.9164 H         1 <0>         0.0797
     55 H17        -0.7961    3.8122   -0.8635 H         1 <0>         0.0788
     56 H18        -2.0589    1.4453    0.0195 H         1 <0>         0.4166
     57 H19         3.1815    2.0963   -0.0168 H         1 <0>         0.1833
     58 H20         4.5350   -0.0360   -0.0418 H         1 <0>         0.1558
     59 H21         3.1815   -4.5285   -0.0537 H         1 <0>         0.4162
     60 H22         2.0006   -6.5422   -0.0531 H         1 <0>         0.3993
     61 H23        -0.6709   -6.5129    0.8627 H         1 <0>         0.0783
     62 H24        -0.6880   -6.5034   -0.9171 H         1 <0>         0.0782
     63 H25         0.1515   -8.3979   -2.1779 H         1 <0>         0.1237
     64 H26         0.5938  -10.8202   -2.1952 H         1 <0>         0.1263
     65 H27         0.8318  -12.0434   -0.0714 H         1 <0>         0.1262
     66 H28         0.6355  -10.8430    2.0695 H         1 <0>         0.1263
     67 H29         0.2025   -8.4190    2.0867 H         1 <0>         0.1238
     68 H30         7.0945   -4.0632   -2.2245 H         1 <0>         0.1482
     69 H31         8.1683   -4.7032   -0.1061 H         1 <0>         0.1505
     70 H32         7.1384   -4.0870    2.0409 H         1 <0>         0.1483
     71 N7         -6.4450    7.3429   -0.8940 N.4       1 <0>        -0.4066
     72 H33        -5.9671    7.8282   -1.6623 H         1 <0>         0.4406
     73 N8         -4.2251    5.8352    0.0744 N.4       1 <0>        -0.4062
     74 H34        -4.7030    5.3499    0.8427 H         1 <0>         0.4383
@<TRIPOS>BOND
     1    1   39 1
     2    1   40 1
     3    1   41 1
     4    1   71 1
     5    2    3 1
     6    2   42 1
     7    2   43 1
     8    2   71 1
     9    3   44 1
    10    3   45 1
    11    3   73 1
    12    4    5 1
    13    4   46 1
    14    4   47 1
    15    4   73 1
    16    5   48 1
    17    5   49 1
    18    5   71 1
    19    6    7 1
    20    6   50 1
    21    6   51 1
    22    6   73 1
    23    7    8 1
    24    7   52 1
    25    7   53 1
    26    8    9 1
    27    8   54 1
    28    8   55 1
    29    9   10 1
    30    9   56 1
    31   10   19 ar
    32   10   11 ar
    33   11   12 ar
    34   12   13 ar
    35   12   57 1
    36   13   18 ar
    37   13   14 ar
    38   14   15 ar
    39   14   58 1
    40   15   16 ar
    41   15   31 1
    42   16   17 ar
    43   16   20 1
    44   17   18 ar
    45   18   19 ar
    46   20   21 am
    47   20   59 1
    48   21   22 2
    49   21   23 am
    50   23   24 1
    51   23   60 1
    52   24   25 1
    53   24   61 1
    54   24   62 1
    55   25   30 ar
    56   25   26 ar
    57   26   27 ar
    58   26   63 1
    59   27   28 ar
    60   27   64 1
    61   28   29 ar
    62   28   65 1
    63   29   30 ar
    64   29   66 1
    65   30   67 1
    66   31   36 ar
    67   31   32 ar
    68   32   33 ar
    69   32   38 1
    70   33   34 ar
    71   33   68 1
    72   34   35 ar
    73   34   69 1
    74   35   36 ar
    75   35   70 1
    76   36   37 1
    77   71   72 1
    78   73   74 1
@<TRIPOS>MOLECULE
ZINC03815479
   59    61     0     0     0
SMALL
USER_CHARGES

@<TRIPOS>ATOM
      1 C1         -4.8214   -6.9051   -0.2013 C.3       1 <0>        -0.1733
      2 C2         -3.5255   -6.1431   -0.0971 C.2       1 <0>         0.5006
      3 O1         -2.4691   -6.7387   -0.1110 O.2       1 <0>        -0.4743
      4 N1         -3.5404   -4.7998    0.0116 N.am      1 <0>        -0.6637
      5 C3         -2.3429   -4.0863    0.0010 C.ar      1 <0>         0.3711
      6 C4         -2.3811   -2.7069    0.0065 C.ar      1 <0>        -0.1998
      7 C5         -1.1687   -1.9985   -0.0038 C.ar      1 <0>         0.2243
      8 C6          0.0395   -2.7455   -0.0197 C.ar      1 <0>        -0.2187
      9 C7          1.2683   -2.0618   -0.0297 C.ar      1 <0>         0.0227
     10 C8          1.2420   -0.6774   -0.0289 C.ar      1 <0>        -0.1474
     11 C9          0.0014   -0.0036   -0.0075 C.ar      1 <0>         0.4475
     12 N2         -1.1377   -0.6633    0.0016 N.ar      1 <0>        -0.4747
     13 N3         -0.0176    1.3846   -0.0018 N.am      1 <0>        -0.6656
     14 C10        -1.1939    2.0424    0.0073 C.2       1 <0>         0.6941
     15 O2         -2.2383    1.4202    0.0106 O.2       1 <0>        -0.5142
     16 N4         -1.2124    3.3901    0.0129 N.am      1 <0>        -0.7359
     17 C11        -2.4910    4.1051    0.0228 C.3       1 <0>         0.1876
     18 C12        -3.2813    3.7195    1.2749 C.3       1 <0>        -0.1657
     19 C13        -2.2321    5.6130    0.0274 C.3       1 <0>        -0.1560
     20 C14        -3.2951    3.7295   -1.2235 C.3       1 <0>        -0.1657
     21 C15         2.5090    0.0928   -0.0446 C.ar      1 <0>         0.0373
     22 C16         2.6915    1.1179   -0.9705 C.ar      1 <0>        -0.1969
     23 C17         3.8743    1.8394   -0.9787 C.ar      1 <0>         0.1767
     24 C18         4.8807    1.5346   -0.0739 C.ar      1 <0>        -0.2958
     25 C19         4.7045    0.5109    0.8455 C.ar      1 <0>         0.1768
     26 C20         3.5219   -0.2107    0.8629 C.ar      1 <0>        -0.1723
     27 O3          5.6927    0.2158    1.7305 O.3       1 <0>        -0.3100
     28 C21         6.8852    0.9997    1.6566 C.3       1 <0>         0.0250
     29 O4          4.0510    2.8430   -1.8778 O.3       1 <0>        -0.3109
     30 C22         5.2970    3.5414   -1.8340 C.3       1 <0>         0.0248
     31 C23        -0.0260   -4.1461   -0.0246 C.ar      1 <0>         0.2043
     32 N5         -1.1910   -4.7519   -0.0140 N.ar      1 <0>        -0.4831
     33 H1         -5.3667   -6.5754   -1.0857 H         1 <0>         0.0916
     34 H2         -4.6105   -7.9715   -0.2811 H         1 <0>         0.0977
     35 H3         -5.4245   -6.7195    0.6875 H         1 <0>         0.0912
     36 H4         -4.3844   -4.3295    0.0971 H         1 <0>         0.4202
     37 H5         -3.3251   -2.1824    0.0183 H         1 <0>         0.1480
     38 H6          2.2043   -2.6003   -0.0423 H         1 <0>         0.1542
     39 H7          0.8156    1.8811   -0.0085 H         1 <0>         0.4156
     40 H8         -0.3791    3.8865    0.0102 H         1 <0>         0.3946
     41 H9         -2.7084    3.9870    2.1628 H         1 <0>         0.0526
     42 H10        -4.2326    4.2514    1.2823 H         1 <0>         0.0637
     43 H11        -3.4657    2.6452    1.2716 H         1 <0>         0.0811
     44 H12        -1.6691    5.8877   -0.8646 H         1 <0>         0.0626
     45 H13        -3.1834    6.1450    0.0349 H         1 <0>         0.0765
     46 H14        -1.6593    5.8806    0.9154 H         1 <0>         0.0621
     47 H15        -3.4796    2.6552   -1.2268 H         1 <0>         0.0811
     48 H16        -4.2464    4.2615   -1.2161 H         1 <0>         0.0636
     49 H17        -2.7321    4.0042   -2.1155 H         1 <0>         0.0530
     50 H18         1.9102    1.3528   -1.6781 H         1 <0>         0.1354
     51 H19         5.8037    2.0953   -0.0855 H         1 <0>         0.1379
     52 H20         3.3855   -1.0078    1.5787 H         1 <0>         0.1387
     53 H21         6.6418    2.0483    1.8282 H         1 <0>         0.0568
     54 H22         7.5901    0.6614    2.4160 H         1 <0>         0.1049
     55 H23         7.3331    0.8876    0.6692 H         1 <0>         0.0573
     56 H24         6.1126    2.8408   -2.0131 H         1 <0>         0.0573
     57 H25         5.3072    4.3148   -2.6020 H         1 <0>         0.1047
     58 H26         5.4216    4.0011   -0.8536 H         1 <0>         0.0573
     59 H27         0.8837   -4.7280   -0.0367 H         1 <0>         0.1715
@<TRIPOS>BOND
     1    1    2 1
     2    1   33 1
     3    1   34 1
     4    1   35 1
     5    2    3 2
     6    2    4 am
     7    4    5 1
     8    4   36 1
     9    5   32 ar
    10    5    6 ar
    11    6    7 ar
    12    6   37 1
    13    7   12 ar
    14    7    8 ar
    15    8    9 ar
    16    8   31 ar
    17    9   10 ar
    18    9   38 1
    19   10   11 ar
    20   10   21 1
    21   11   12 ar
    22   11   13 1
    23   13   14 am
    24   13   39 1
    25   14   15 2
    26   14   16 am
    27   16   17 1
    28   16   40 1
    29   17   18 1
    30   17   19 1
    31   17   20 1
    32   18   41 1
    33   18   42 1
    34   18   43 1
    35   19   44 1
    36   19   45 1
    37   19   46 1
    38   20   47 1
    39   20   48 1
    40   20   49 1
    41   21   26 ar
    42   21   22 ar
    43   22   23 ar
    44   22   50 1
    45   23   24 ar
    46   23   29 1
    47   24   25 ar
    48   24   51 1
    49   25   26 ar
    50   25   27 1
    51   26   52 1
    52   27   28 1
    53   28   53 1
    54   28   54 1
    55   28   55 1
    56   29   30 1
    57   30   56 1
    58   30   57 1
    59   30   58 1
    60   31   32 ar
    61   31   59 1
@<TRIPOS>MOLECULE
ZINC03815480
   59    63     0     0     0
SMALL
USER_CHARGES

@<TRIPOS>ATOM
      1 C1         -5.0668    5.9046  -10.2548 C.3       1 <0>         0.0686
      2 N1         -4.9239    4.4536  -10.1124 N.am      1 <0>        -0.5054
      3 C2         -4.4245    3.9316   -8.9459 C.ar      1 <0>         0.4668
      4 C3         -4.2808    2.5355   -8.7923 C.ar      1 <0>        -0.2680
      5 C4         -4.6514    1.6628   -9.8407 C.2       1 <0>         0.0216
      6 C5         -5.1484    2.1928  -11.0012 C.2       1 <0>        -0.1509
      7 C6         -5.2845    3.6454  -11.1278 C.2       1 <0>         0.5542
      8 O1         -5.7265    4.1252  -12.1566 O.2       1 <0>        -0.4935
      9 C7         -5.5448    1.3047  -12.1188 C.ar      1 <0>        -0.0164
     10 C8         -4.6157    0.9550  -13.0994 C.ar      1 <0>        -0.0059
     11 C9         -4.9904    0.1227  -14.1360 C.ar      1 <0>        -0.1052
     12 C10        -6.2863   -0.3557  -14.2090 C.ar      1 <0>        -0.0845
     13 C11        -7.2136   -0.0086  -13.2431 C.ar      1 <0>        -0.1054
     14 C12        -6.8506    0.8190  -12.1986 C.ar      1 <0>        -0.0058
     15 Cl1        -8.0162    1.2544  -10.9880 Cl        1 <0>        -0.0514
     16 Cl2        -2.9907    1.5596  -13.0133 Cl        1 <0>        -0.0501
     17 C13        -3.7662    2.0428   -7.5837 C.ar      1 <0>         0.2617
     18 N2         -3.4373    2.9040   -6.6393 N.ar      1 <0>        -0.5734
     19 C14        -3.5862    4.2120   -6.8190 C.ar      1 <0>         0.6045
     20 N3         -4.0724    4.7237   -7.9396 N.ar      1 <0>        -0.5917
     21 N4         -3.2261    5.0692   -5.7975 N.pl3     1 <0>        -0.6306
     22 C15        -2.8255    4.5530   -4.5586 C.ar      1 <0>         0.1606
     23 C16        -1.8587    5.2128   -3.8113 C.ar      1 <0>        -0.1196
     24 C17        -1.4635    4.7037   -2.5902 C.ar      1 <0>        -0.1041
     25 C18        -2.0333    3.5322   -2.1091 C.ar      1 <0>         0.0675
     26 C19        -2.9964    2.8695   -2.8588 C.ar      1 <0>        -0.1392
     27 C20        -3.3956    3.3817   -4.0773 C.ar      1 <0>        -0.0846
     28 N5         -1.6329    3.0162   -0.8714 N.pl3     1 <0>        -0.4847
     29 C21        -2.3588    1.7777   -0.5574 C.3       1 <0>         0.0193
     30 C22        -1.8368    1.2042    0.7621 C.3       1 <0>         0.0019
     31 C23        -1.2866    3.4378    1.5152 C.3       1 <0>         0.0016
     32 C24        -1.8086    4.0112    0.1957 C.3       1 <0>         0.0240
     33 C25        -1.5914    1.6571    3.1285 C.3       1 <0>        -0.0409
     34 H1         -4.1501    6.3207  -10.6725 H         1 <0>         0.0762
     35 H2         -5.9017    6.1239  -10.9203 H         1 <0>         0.0942
     36 H3         -5.2550    6.3488   -9.2773 H         1 <0>         0.0950
     37 H4         -4.5432    0.5941   -9.7284 H         1 <0>         0.1519
     38 H5         -4.2713   -0.1518  -14.8936 H         1 <0>         0.1452
     39 H6         -6.5754   -1.0028  -15.0239 H         1 <0>         0.1471
     40 H7         -8.2239   -0.3852  -13.3060 H         1 <0>         0.1450
     41 H8         -3.6422    0.9811   -7.4293 H         1 <0>         0.1885
     42 H9         -3.2505    6.0286   -5.9382 H         1 <0>         0.4287
     43 H10        -1.4156    6.1239   -4.1855 H         1 <0>         0.1346
     44 H11        -0.7116    5.2169   -2.0091 H         1 <0>         0.1318
     45 H12        -3.4360    1.9559   -2.4869 H         1 <0>         0.1296
     46 H13        -4.1481    2.8690   -4.6582 H         1 <0>         0.1420
     47 H14        -2.2030    1.0524   -1.3560 H         1 <0>         0.1299
     48 H15        -3.4231    1.9936   -0.4644 H         1 <0>         0.0706
     49 H16        -2.3938    0.3011    1.0117 H         1 <0>         0.1374
     50 H17        -0.7788    0.9626    0.6604 H         1 <0>         0.1402
     51 H18        -0.2223    3.2219    1.4222 H         1 <0>         0.1402
     52 H19        -1.4421    4.1632    2.3138 H         1 <0>         0.1371
     53 H20        -1.2516    4.9144   -0.0539 H         1 <0>         0.1275
     54 H21        -2.8666    4.2528    0.2970 H         1 <0>         0.0686
     55 H22        -0.5391    1.3766    3.0815 H         1 <0>         0.1245
     56 H23        -1.7316    2.4138    3.9004 H         1 <0>         0.1229
     57 H24        -2.1912    0.7789    3.3673 H         1 <0>         0.1229
     58 N6         -2.0395    2.2052    1.8304 N.4       1 <0>        -0.4000
     59 H25        -3.0392    2.4311    1.8909 H         1 <0>         0.4272
@<TRIPOS>BOND
     1    1    2 1
     2    1   34 1
     3    1   35 1
     4    1   36 1
     5    2    7 am
     6    2    3 1
     7    3   20 ar
     8    3    4 ar
     9    4    5 1
    10    4   17 ar
    11    5    6 2
    12    5   37 1
    13    6    7 1
    14    6    9 1
    15    7    8 2
    16    9   14 ar
    17    9   10 ar
    18   10   11 ar
    19   10   16 1
    20   11   12 ar
    21   11   38 1
    22   12   13 ar
    23   12   39 1
    24   13   14 ar
    25   13   40 1
    26   14   15 1
    27   17   18 ar
    28   17   41 1
    29   18   19 ar
    30   19   20 ar
    31   19   21 1
    32   21   22 1
    33   21   42 1
    34   22   27 ar
    35   22   23 ar
    36   23   24 ar
    37   23   43 1
    38   24   25 ar
    39   24   44 1
    40   25   26 ar
    41   25   28 1
    42   26   27 ar
    43   26   45 1
    44   27   46 1
    45   28   32 1
    46   28   29 1
    47   29   30 1
    48   29   47 1
    49   29   48 1
    50   30   49 1
    51   30   50 1
    52   30   58 1
    53   31   32 1
    54   31   51 1
    55   31   52 1
    56   31   58 1
    57   32   53 1
    58   32   54 1
    59   33   55 1
    60   33   56 1
    61   33   57 1
    62   33   58 1
    63   58   59 1
@<TRIPOS>MOLECULE
ZINC03815481
   49    51     0     0     0
SMALL
USER_CHARGES

@<TRIPOS>ATOM
      1 C1         -2.2306    5.6128    0.0431 C.3       1 <0>        -0.1690
      2 C2         -2.4898    4.1049    0.0362 C.3       1 <0>         0.1303
      3 N1         -1.2113    3.3897    0.0262 N.am      1 <0>        -0.7330
      4 C3         -1.1930    2.0421    0.0188 C.2       1 <0>         0.6890
      5 O1         -2.2375    1.4200    0.0204 O.2       1 <0>        -0.5119
      6 N2         -0.0168    1.3842    0.0097 N.am      1 <0>        -0.6512
      7 C4          0.0021   -0.0041    0.0020 C.ar      1 <0>         0.5004
      8 C5          1.2425   -0.6779   -0.0193 C.ar      1 <0>        -0.1132
      9 C6          1.2686   -2.0624   -0.0221 C.ar      1 <0>         0.0285
     10 C7          0.0399   -2.7461   -0.0140 C.ar      1 <0>        -0.2010
     11 C8         -0.0254   -4.1469   -0.0209 C.ar      1 <0>         0.2524
     12 C9         -2.3427   -4.0871    0.0025 C.ar      1 <0>         0.4253
     13 C10        -2.3806   -2.7070    0.0103 C.ar      1 <0>        -0.1808
     14 C11        -1.1683   -1.9990    0.0021 C.ar      1 <0>         0.2854
     15 N3         -1.1371   -0.6637    0.0094 N.ar      1 <0>        -0.4869
     16 N4         -3.5369   -4.7985    0.0106 N.pl3     1 <0>        -0.8364
     17 C12         2.5096    0.0921   -0.0333 C.ar      1 <0>         0.0097
     18 C13         2.6929    1.1182   -0.9580 C.ar      1 <0>        -0.1970
     19 C14         3.8759    1.8392   -0.9649 C.ar      1 <0>         0.1837
     20 C15         4.8815    1.5336   -0.0595 C.ar      1 <0>        -0.2863
     21 C16         4.7046    0.5088    0.8586 C.ar      1 <0>         0.1823
     22 C17         3.5219   -0.2126    0.8744 C.ar      1 <0>        -0.1679
     23 O2          5.6922    0.2126    1.7439 O.3       1 <0>        -0.3079
     24 C18         6.8848    0.9965    1.6716 C.3       1 <0>         0.0224
     25 O3          4.0535    2.8435   -1.8630 O.3       1 <0>        -0.3083
     26 C19         5.2995    3.5417   -1.8177 C.3       1 <0>         0.0222
     27 H1         -1.6585    5.8790    0.9319 H         1 <0>         0.0642
     28 H2         -1.6669    5.8887   -0.8480 H         1 <0>         0.0647
     29 H3         -3.1819    6.1449    0.0505 H         1 <0>         0.0820
     30 H4         -3.0619    3.8387   -0.8526 H         1 <0>         0.0733
     31 H5         -3.0535    3.8290    0.9273 H         1 <0>         0.0731
     32 H6         -0.3779    3.8861    0.0250 H         1 <0>         0.4011
     33 H7          0.8166    1.8806    0.0044 H         1 <0>         0.4256
     34 H8          2.2046   -2.6010   -0.0346 H         1 <0>         0.1733
     35 H9          0.8845   -4.7285   -0.0327 H         1 <0>         0.2058
     36 H10        -3.3245   -2.1823    0.0229 H         1 <0>         0.1873
     37 H11        -3.5238   -5.7684    0.0052 H         1 <0>         0.4169
     38 H12        -4.3834   -4.3250    0.0216 H         1 <0>         0.4361
     39 H13         1.9120    1.3539   -1.6658 H         1 <0>         0.1371
     40 H14         5.8044    2.0944   -0.0697 H         1 <0>         0.1436
     41 H15         3.3849   -1.0105    1.5892 H         1 <0>         0.1405
     42 H16         6.6415    2.0449    1.8443 H         1 <0>         0.0602
     43 H17         7.5892    0.6571    2.4311 H         1 <0>         0.1095
     44 H18         7.3334    0.8854    0.6845 H         1 <0>         0.0604
     45 H19         5.3105    4.3157   -2.5850 H         1 <0>         0.1097
     46 H20         5.4234    4.0006   -0.8368 H         1 <0>         0.0606
     47 H21         6.1152    2.8411   -1.9966 H         1 <0>         0.0605
     48 N5         -1.1918   -4.8379   -0.0130 N.ar      1 <0>        -0.5376
     49 H22        -1.2140   -5.8644   -0.0184 H         1 <0>         0.4712
@<TRIPOS>BOND
     1    1    2 1
     2    1   27 1
     3    1   28 1
     4    1   29 1
     5    2    3 1
     6    2   30 1
     7    2   31 1
     8    3    4 am
     9    3   32 1
    10    4    5 2
    11    4    6 am
    12    6    7 1
    13    6   33 1
    14    7   15 ar
    15    7    8 ar
    16    8    9 ar
    17    8   17 1
    18    9   10 ar
    19    9   34 1
    20   10   14 ar
    21   10   11 ar
    22   11   35 1
    23   11   48 ar
    24   12   13 ar
    25   12   16 1
    26   12   48 ar
    27   13   14 ar
    28   13   36 1
    29   14   15 ar
    30   16   37 1
    31   16   38 1
    32   17   22 ar
    33   17   18 ar
    34   18   19 ar
    35   18   39 1
    36   19   20 ar
    37   19   25 1
    38   20   21 ar
    39   20   40 1
    40   21   22 ar
    41   21   23 1
    42   22   41 1
    43   23   24 1
    44   24   42 1
    45   24   43 1
    46   24   44 1
    47   25   26 1
    48   26   45 1
    49   26   46 1
    50   26   47 1
    51   48   49 1
@<TRIPOS>MOLECULE
ZINC03815482
   66    69     0     0     0
SMALL
USER_CHARGES

@<TRIPOS>ATOM
      1 C1          2.0264    8.2096    2.3954 C.3       1 <0>        -0.1628
      2 C2          2.4026    8.1290    0.9145 C.3       1 <0>         0.0964
      3 N1          3.6471    7.3702    0.7675 N.am      1 <0>        -0.5024
      4 C3          3.5968    6.0100    0.5949 C.ar      1 <0>         0.4685
      5 C4          4.7868    5.2639    0.4516 C.ar      1 <0>        -0.2694
      6 C5          6.0418    5.9134    0.4849 C.2       1 <0>         0.0217
      7 C6          6.0821    7.2712    0.6566 C.2       1 <0>        -0.1523
      8 C7          4.8291    8.0151    0.8026 C.2       1 <0>         0.5554
      9 O1          4.8560    9.2232    0.9562 O.2       1 <0>        -0.4938
     10 C8          7.3818    7.9814    0.6954 C.ar      1 <0>        -0.0156
     11 C9          8.0419    8.1688    1.9104 C.ar      1 <0>        -0.0059
     12 C10         9.2555    8.8276    1.9390 C.ar      1 <0>        -0.1056
     13 C11         9.8119    9.3099    0.7680 C.ar      1 <0>        -0.0849
     14 C12         9.1599    9.1324   -0.4390 C.ar      1 <0>        -0.1053
     15 C13         7.9483    8.4708   -0.4822 C.ar      1 <0>        -0.0061
     16 Cl1         7.1317    8.2492   -1.9980 Cl        1 <0>        -0.0506
     17 Cl2         7.3425    7.5696    3.3820 Cl        1 <0>        -0.0511
     18 C14         4.6913    3.8752    0.2767 C.ar      1 <0>         0.2622
     19 N2          3.4930    3.3223    0.2532 N.ar      1 <0>        -0.5746
     20 C15         2.3941    4.0562    0.3912 C.ar      1 <0>         0.6038
     21 N3          2.4337    5.3699    0.5536 N.ar      1 <0>        -0.5905
     22 N4          1.1651    3.4265    0.3585 N.pl3     1 <0>        -0.6300
     23 C16         1.0957    2.0296    0.2920 C.ar      1 <0>         0.1461
     24 C17         2.0510    1.2551    0.9368 C.ar      1 <0>        -0.0695
     25 C18         1.9816   -0.1226    0.8710 C.ar      1 <0>        -0.1191
     26 C19         0.9576   -0.7327    0.1615 C.ar      1 <0>         0.0968
     27 C20         0.0029    0.0403   -0.4828 C.ar      1 <0>        -0.1793
     28 C21         0.0711    1.4180   -0.4184 C.ar      1 <0>        -0.1052
     29 O2          0.8894   -2.0893    0.0980 O.3       1 <0>        -0.3290
     30 C22        -0.1914   -2.6503   -0.6498 C.3       1 <0>         0.0255
     31 C23        -0.0357   -4.1712   -0.7085 C.3       1 <0>        -0.0025
     32 C24        -1.5478   -4.7397    1.0951 C.3       1 <0>        -0.0102
     33 C25        -1.6026   -5.0866    2.5842 C.3       1 <0>        -0.1898
     34 C26         0.4370   -6.0731    0.7135 C.3       1 <0>        -0.0110
     35 C27         1.9503   -5.9810    0.5078 C.3       1 <0>        -0.1898
     36 H1          2.8235    8.7089    2.9461 H         1 <0>         0.0619
     37 H2          1.1004    8.7741    2.5048 H         1 <0>         0.0783
     38 H3          1.8872    7.2032    2.7902 H         1 <0>         0.0585
     39 H4          2.5418    9.1353    0.5197 H         1 <0>         0.0996
     40 H5          1.6054    7.6296    0.3638 H         1 <0>         0.1008
     41 H6          6.9551    5.3474    0.3754 H         1 <0>         0.1514
     42 H7          9.7695    8.9697    2.8782 H         1 <0>         0.1449
     43 H8         10.7593    9.8276    0.7963 H         1 <0>         0.1469
     44 H9          9.5995    9.5117   -1.3497 H         1 <0>         0.1450
     45 H10         5.5795    3.2713    0.1634 H         1 <0>         0.1885
     46 H11         0.3501    3.9521    0.3817 H         1 <0>         0.4283
     47 H12         2.8456    1.7299    1.4932 H         1 <0>         0.1472
     48 H13         2.7245   -0.7251    1.3724 H         1 <0>         0.1364
     49 H14        -0.7939   -0.4355   -1.0353 H         1 <0>         0.1310
     50 H15        -0.6721    2.0197   -0.9205 H         1 <0>         0.1341
     51 H16        -1.1359   -2.4001   -0.1667 H         1 <0>         0.0849
     52 H17        -0.1822   -2.2448   -1.6616 H         1 <0>         0.1085
     53 H18        -0.8173   -4.5923   -1.3409 H         1 <0>         0.1497
     54 H19         0.9410   -4.4207   -1.1233 H         1 <0>         0.1425
     55 H20        -1.9893   -3.7562    0.9346 H         1 <0>         0.1260
     56 H21        -2.1051   -5.4851    0.5277 H         1 <0>         0.1322
     57 H22        -1.1610   -6.0702    2.7447 H         1 <0>         0.0810
     58 H23        -1.0453   -4.3412    3.1517 H         1 <0>         0.0806
     59 H24        -2.6404   -5.0955    2.9173 H         1 <0>         0.1065
     60 H25         0.2290   -6.5116    1.6895 H         1 <0>         0.1312
     61 H26         0.0017   -6.6984   -0.0660 H         1 <0>         0.1308
     62 H27         2.1588   -5.4709   -0.4327 H         1 <0>         0.0800
     63 H28         2.3955   -5.4219    1.3308 H         1 <0>         0.0820
     64 H29         2.3747   -6.9845    0.4787 H         1 <0>         0.1059
     65 N5         -0.1342   -4.7107    0.6640 N.4       1 <0>        -0.3987
     66 H30         0.3960   -4.1035    1.2999 H         1 <0>         0.4338
@<TRIPOS>BOND
     1    1    2 1
     2    1   36 1
     3    1   37 1
     4    1   38 1
     5    2    3 1
     6    2   39 1
     7    2   40 1
     8    3    8 am
     9    3    4 1
    10    4   21 ar
    11    4    5 ar
    12    5    6 1
    13    5   18 ar
    14    6    7 2
    15    6   41 1
    16    7    8 1
    17    7   10 1
    18    8    9 2
    19   10   15 ar
    20   10   11 ar
    21   11   12 ar
    22   11   17 1
    23   12   13 ar
    24   12   42 1
    25   13   14 ar
    26   13   43 1
    27   14   15 ar
    28   14   44 1
    29   15   16 1
    30   18   19 ar
    31   18   45 1
    32   19   20 ar
    33   20   21 ar
    34   20   22 1
    35   22   23 1
    36   22   46 1
    37   23   28 ar
    38   23   24 ar
    39   24   25 ar
    40   24   47 1
    41   25   26 ar
    42   25   48 1
    43   26   27 ar
    44   26   29 1
    45   27   28 ar
    46   27   49 1
    47   28   50 1
    48   29   30 1
    49   30   31 1
    50   30   51 1
    51   30   52 1
    52   31   53 1
    53   31   54 1
    54   31   65 1
    55   32   33 1
    56   32   55 1
    57   32   56 1
    58   32   65 1
    59   33   57 1
    60   33   58 1
    61   33   59 1
    62   34   35 1
    63   34   60 1
    64   34   61 1
    65   34   65 1
    66   35   62 1
    67   35   63 1
    68   35   64 1
    69   65   66 1
@<TRIPOS>MOLECULE
ZINC03815483
   63    66     0     0     0
SMALL
USER_CHARGES

@<TRIPOS>ATOM
      1 C1          1.5894    9.2284    0.0640 C.3       1 <0>        -0.1634
      2 C2          1.8353    8.8707   -1.4032 C.3       1 <0>         0.0962
      3 N1          3.1219    8.1814   -1.5287 N.am      1 <0>        -0.5021
      4 C3          3.1731    6.8144   -1.4229 C.ar      1 <0>         0.4682
      5 C4          4.4048    6.1347   -1.5415 C.ar      1 <0>        -0.2648
      6 C5          5.5972    6.8583   -1.7706 C.2       1 <0>         0.0183
      7 C6          5.5363    8.2221   -1.8757 C.2       1 <0>        -0.1470
      8 C7          4.2425    8.8960   -1.7473 C.2       1 <0>         0.5544
      9 O1          4.1793   10.1091   -1.8391 O.2       1 <0>        -0.4910
     10 C8          6.7683    9.0090   -2.1161 C.ar      1 <0>        -0.0179
     11 C9          7.5174    9.4846   -1.0392 C.ar      1 <0>        -0.0056
     12 C10         8.6676   10.2135   -1.2702 C.ar      1 <0>        -0.1050
     13 C11         9.0720   10.4809   -2.5658 C.ar      1 <0>        -0.0839
     14 C12         8.3309   10.0172   -3.6378 C.ar      1 <0>        -0.1051
     15 C13         7.1816    9.2827   -3.4206 C.ar      1 <0>        -0.0057
     16 Cl1         6.2530    8.7016   -4.7673 Cl        1 <0>        -0.0513
     17 Cl2         7.0083    9.1552    0.5875 Cl        1 <0>        -0.0503
     18 C14         4.4133    4.7364   -1.4275 C.ar      1 <0>         0.2617
     19 N2          3.2698    4.1129   -1.2141 N.ar      1 <0>        -0.5769
     20 C15         2.1290    4.7856   -1.1078 C.ar      1 <0>         0.6012
     21 N3          2.0702    6.1045   -1.2132 N.ar      1 <0>        -0.5876
     22 N4          0.9607    4.0833   -0.8848 N.pl3     1 <0>        -0.6311
     23 C16         1.0056    2.7009   -0.6665 C.ar      1 <0>         0.1605
     24 C17         2.0864    2.1375   -0.0009 C.ar      1 <0>        -0.0663
     25 C18         2.1297    0.7741    0.2143 C.ar      1 <0>        -0.0998
     26 C19         1.0939   -0.0325   -0.2337 C.ar      1 <0>         0.0600
     27 C20         0.0140    0.5296   -0.8986 C.ar      1 <0>        -0.1968
     28 C21        -0.0307    1.8927   -1.1151 C.ar      1 <0>        -0.1028
     29 O2          1.1369   -1.3748   -0.0205 O.3       1 <0>        -0.2870
     30 C22         0.0366   -2.1448   -0.5087 C.3       1 <0>         0.1673
     31 C23         1.1265   -3.4902   -2.2012 C.3       1 <0>        -0.0066
     32 C24         2.5639   -3.0241   -1.9611 C.3       1 <0>        -0.1885
     33 C25        -1.0950   -2.6125   -2.5976 C.3       1 <0>        -0.0080
     34 C26        -0.9461   -2.4498   -4.1116 C.3       1 <0>        -0.1897
     35 H1          1.5735    8.3175    0.6623 H         1 <0>         0.0586
     36 H2          2.3874    9.8814    0.4174 H         1 <0>         0.0625
     37 H3          0.6321    9.7413    0.1574 H         1 <0>         0.0791
     38 H4          1.8512    9.7817   -2.0015 H         1 <0>         0.1003
     39 H5          1.0373    8.2178   -1.7566 H         1 <0>         0.1007
     40 H6          6.5420    6.3431   -1.8624 H         1 <0>         0.1524
     41 H7          9.2504   10.5787   -0.4376 H         1 <0>         0.1455
     42 H8          9.9701   11.0545   -2.7410 H         1 <0>         0.1474
     43 H9          8.6519   10.2297   -4.6469 H         1 <0>         0.1453
     44 H10         5.3361    4.1818   -1.5130 H         1 <0>         0.1896
     45 H11         0.1091    4.5477   -0.8794 H         1 <0>         0.4300
     46 H12         2.8906    2.7659    0.3522 H         1 <0>         0.1536
     47 H13         2.9701    0.3358    0.7320 H         1 <0>         0.1445
     48 H14        -0.7919   -0.0992   -1.2474 H         1 <0>         0.1226
     49 H15        -0.8714    2.3300   -1.6331 H         1 <0>         0.1385
     50 H16         0.0036   -3.1020    0.0117 H         1 <0>         0.1739
     51 H17        -0.8927   -1.6031   -0.3322 H         1 <0>         0.1326
     52 H18         0.8943   -4.3144   -1.5268 H         1 <0>         0.1330
     53 H19         1.0206   -3.8244   -3.2333 H         1 <0>         0.1290
     54 H20         3.2556   -3.8147   -2.2520 H         1 <0>         0.1033
     55 H21         2.7607   -2.1321   -2.5558 H         1 <0>         0.0753
     56 H22         2.6993   -2.7935   -0.9044 H         1 <0>         0.0904
     57 H23        -1.4349   -3.6234   -2.3725 H         1 <0>         0.1371
     58 H24        -1.8236   -1.8927   -2.2247 H         1 <0>         0.1280
     59 H25        -0.6306   -1.4314   -4.3383 H         1 <0>         0.0805
     60 H26        -0.1990   -3.1523   -4.4808 H         1 <0>         0.0821
     61 H27        -1.9027   -2.6498   -4.5943 H         1 <0>         0.1093
     62 N5          0.2136   -2.3528   -1.9614 N.4       1 <0>        -0.4258
     63 H28         0.6219   -1.5051   -2.3724 H         1 <0>         0.4270
@<TRIPOS>BOND
     1    1    2 1
     2    1   35 1
     3    1   36 1
     4    1   37 1
     5    2    3 1
     6    2   38 1
     7    2   39 1
     8    3    8 am
     9    3    4 1
    10    4   21 ar
    11    4    5 ar
    12    5    6 1
    13    5   18 ar
    14    6    7 2
    15    6   40 1
    16    7    8 1
    17    7   10 1
    18    8    9 2
    19   10   15 ar
    20   10   11 ar
    21   11   12 ar
    22   11   17 1
    23   12   13 ar
    24   12   41 1
    25   13   14 ar
    26   13   42 1
    27   14   15 ar
    28   14   43 1
    29   15   16 1
    30   18   19 ar
    31   18   44 1
    32   19   20 ar
    33   20   21 ar
    34   20   22 1
    35   22   23 1
    36   22   45 1
    37   23   28 ar
    38   23   24 ar
    39   24   25 ar
    40   24   46 1
    41   25   26 ar
    42   25   47 1
    43   26   27 ar
    44   26   29 1
    45   27   28 ar
    46   27   48 1
    47   28   49 1
    48   29   30 1
    49   30   50 1
    50   30   51 1
    51   30   62 1
    52   31   32 1
    53   31   52 1
    54   31   53 1
    55   31   62 1
    56   32   54 1
    57   32   55 1
    58   32   56 1
    59   33   34 1
    60   33   57 1
    61   33   58 1
    62   33   62 1
    63   34   59 1
    64   34   60 1
    65   34   61 1
    66   62   63 1
@<TRIPOS>MOLECULE
ZINC03815484
   34    36     0     0     0
SMALL
USER_CHARGES

@<TRIPOS>ATOM
      1 C1          3.0060    3.5075    0.1262 C.ar      1 <0>        -0.1377
      2 C2          3.3625    2.4024   -0.6291 C.ar      1 <0>        -0.0941
      3 C3          2.4033    1.6657   -1.2936 C.ar      1 <0>        -0.1374
      4 C4          1.0630    2.0269   -1.2085 C.ar      1 <0>         0.1323
      5 C5          0.7062    3.1454   -0.4430 C.ar      1 <0>        -0.0825
      6 C6          1.6812    3.8820    0.2222 C.ar      1 <0>        -0.0700
      7 C7         -0.7645    3.2703   -0.5479 C.2       1 <0>        -0.2293
      8 C8         -1.5708    4.2263    0.0398 C.2       1 <0>         0.1058
      9 C9         -2.9740    4.1098   -0.0381 C.2       1 <0>        -0.0301
     10 C10        -3.8807    5.1552   -0.1239 C.2       1 <0>        -0.0680
     11 C11        -5.1551    4.5880   -0.1809 C.2       1 <0>        -0.2147
     12 C12        -5.0156    3.2398   -0.1308 C.2       1 <0>         0.0332
     13 N1         -3.6959    2.9356   -0.0492 N.pl3     1 <0>        -0.5163
     14 H1         -3.3228    2.0413   -0.0041 H         1 <0>         0.4166
     15 C13        -3.5526    6.6258   -0.1508 C.3       1 <0>        -0.0397
     16 C14        -3.2354    7.0513   -1.5858 C.3       1 <0>        -0.1479
     17 C15        -2.9072    8.5219   -1.6128 C.2       1 <0>         0.4597
     18 O1         -2.9252    9.1638   -0.5893 O.co2     1 <0>        -0.6421
     19 C16        -1.1810    2.1617   -1.4163 C.2       1 <0>         0.5580
     20 O2         -2.3230    1.9105   -1.7583 O.2       1 <0>        -0.5171
     21 N2         -0.0823    1.4710   -1.7650 N.am      1 <0>        -0.6532
     22 H2          3.7659    4.0766    0.6410 H         1 <0>         0.1284
     23 H3          4.4012    2.1151   -0.6993 H         1 <0>         0.1278
     24 H4          2.6938    0.8061   -1.8794 H         1 <0>         0.1234
     25 H5          1.4024    4.7430    0.8114 H         1 <0>         0.1302
     26 H6         -1.1263    5.0626    0.5588 H         1 <0>         0.1536
     27 H7         -6.0878    5.1278   -0.2521 H         1 <0>         0.1403
     28 H8         -5.8240    2.5241   -0.1565 H         1 <0>         0.1649
     29 H9         -4.4062    7.1953    0.2168 H         1 <0>         0.0751
     30 H10        -2.6876    6.8167    0.4844 H         1 <0>         0.0689
     31 H11        -2.3818    6.4818   -1.9534 H         1 <0>         0.0604
     32 H12        -4.1003    6.8603   -2.2210 H         1 <0>         0.0644
     33 H13        -0.0876    0.6868   -2.3358 H         1 <0>         0.4135
     34 O3         -2.5949    9.1187   -2.7738 O.co2     1 <0>        -0.7766
@<TRIPOS>BOND
     1    1    6 ar
     2    1    2 ar
     3    1   22 1
     4    2    3 ar
     5    2   23 1
     6    3    4 ar
     7    3   24 1
     8    4   21 1
     9    4    5 ar
    10    5    6 ar
    11    5    7 1
    12    6   25 1
    13    7    8 2
    14    7   19 1
    15    8    9 1
    16    8   26 1
    17    9   13 1
    18    9   10 2
    19   10   11 1
    20   10   15 1
    21   11   12 2
    22   11   27 1
    23   12   13 1
    24   12   28 1
    25   13   14 1
    26   15   16 1
    27   15   29 1
    28   15   30 1
    29   16   17 1
    30   16   31 1
    31   16   32 1
    32   17   18 2
    33   17   34 1
    34   19   20 2
    35   19   21 am
    36   21   33 1
@<TRIPOS>MOLECULE
ZINC03815485
   37    39     0     0     0
SMALL
USER_CHARGES

@<TRIPOS>ATOM
      1 C1          6.4107    5.2592    0.3537 C.3       1 <0>        -0.0795
      2 C2          5.3007    4.2465    0.2384 C.2       1 <0>        -0.1824
      3 C3          5.4531    2.9006    0.1670 C.2       1 <0>         0.0341
      4 N1          4.2294    2.3226    0.0715 N.pl3     1 <0>        -0.5149
      5 H1          4.0567    1.3703    0.0065 H         1 <0>         0.4168
      6 C4          3.2725    3.3147    0.0816 C.2       1 <0>        -0.0293
      7 C5          3.9347    4.5288    0.1802 C.2       1 <0>        -0.0647
      8 C6          3.2997    5.8949    0.2206 C.3       1 <0>        -0.0405
      9 C7          3.0113    6.2804    1.6729 C.3       1 <0>        -0.1466
     10 C8          2.3763    7.6465    1.7134 C.2       1 <0>         0.4587
     11 O1          2.1750    8.2498    0.6860 O.co2     1 <0>        -0.6409
     12 C9          1.8769    3.1293    0.0005 C.2       1 <0>         0.1068
     13 C10         1.3602    2.0950   -0.7562 C.2       1 <0>        -0.2301
     14 C11        -0.0507    1.6563   -0.8367 C.ar      1 <0>        -0.0827
     15 C12        -1.2222    2.0949   -0.2277 C.ar      1 <0>        -0.0701
     16 C13        -2.4180    1.4683   -0.5138 C.ar      1 <0>        -0.1371
     17 C14        -2.4493    0.4013   -1.3965 C.ar      1 <0>        -0.0942
     18 C15        -1.2923   -0.0444   -2.0023 C.ar      1 <0>        -0.1378
     19 C16        -0.0783    0.5770   -1.7304 C.ar      1 <0>         0.1314
     20 N2          1.2094    0.3347   -2.1925 N.am      1 <0>        -0.6534
     21 C17         2.0923    1.1937   -1.6552 C.2       1 <0>         0.5578
     22 O2          3.2903    1.2198   -1.8751 O.2       1 <0>        -0.5177
     23 H2          6.7296    5.5639   -0.6430 H         1 <0>         0.0584
     24 H3          6.0524    6.1301    0.9026 H         1 <0>         0.0675
     25 H4          7.2530    4.8161    0.8851 H         1 <0>         0.0563
     26 H5          6.3961    2.3743    0.1835 H         1 <0>         0.1640
     27 H6          3.9786    6.6243   -0.2210 H         1 <0>         0.0750
     28 H7          2.3669    5.8788   -0.3431 H         1 <0>         0.0676
     29 H8          2.3324    5.5510    2.1146 H         1 <0>         0.0610
     30 H9          3.9441    6.2965    2.2366 H         1 <0>         0.0651
     31 H10         1.2120    3.7956    0.5299 H         1 <0>         0.1543
     32 H11        -1.1970    2.9269    0.4604 H         1 <0>         0.1314
     33 H12        -3.3302    1.8080   -0.0459 H         1 <0>         0.1288
     34 H13        -3.3882   -0.0868   -1.6125 H         1 <0>         0.1278
     35 H14        -1.3297   -0.8771   -2.6890 H         1 <0>         0.1231
     36 H15         1.4415   -0.3650   -2.8228 H         1 <0>         0.4132
     37 O3          2.0343    8.1931    2.8907 O.co2     1 <0>        -0.7772
@<TRIPOS>BOND
     1    1    2 1
     2    1   23 1
     3    1   24 1
     4    1   25 1
     5    2    7 1
     6    2    3 2
     7    3    4 1
     8    3   26 1
     9    4    5 1
    10    4    6 1
    11    6    7 2
    12    6   12 1
    13    7    8 1
    14    8    9 1
    15    8   27 1
    16    8   28 1
    17    9   10 1
    18    9   29 1
    19    9   30 1
    20   10   11 2
    21   10   37 1
    22   12   13 2
    23   12   31 1
    24   13   21 1
    25   13   14 1
    26   14   19 ar
    27   14   15 ar
    28   15   16 ar
    29   15   32 1
    30   16   17 ar
    31   16   33 1
    32   17   18 ar
    33   17   34 1
    34   18   19 ar
    35   18   35 1
    36   19   20 1
    37   20   21 am
    38   20   36 1
    39   21   22 2
@<TRIPOS>MOLECULE
ZINC03815486
   40    42     0     0     0
SMALL
USER_CHARGES

@<TRIPOS>ATOM
      1 C1          1.1689   -2.4139    0.6244 C.3       1 <0>        -0.1276
      2 C2          1.9771   -1.5446   -0.3041 C.ar      1 <0>        -0.0314
      3 C3          3.3537   -1.6450   -0.3249 C.ar      1 <0>        -0.1401
      4 C4          4.0954   -0.8462   -1.1789 C.ar      1 <0>        -0.0889
      5 C5          3.4720    0.0571   -2.0161 C.ar      1 <0>        -0.1445
      6 C6          2.0865    0.1725   -2.0100 C.ar      1 <0>         0.1362
      7 C7          1.3391   -0.6380   -1.1441 C.ar      1 <0>        -0.0864
      8 C8         -0.0811   -0.2877   -1.3674 C.2       1 <0>        -0.2254
      9 C9         -1.1882   -0.8254   -0.7391 C.2       1 <0>         0.0979
     10 C10        -2.4629   -0.2610   -0.9515 C.2       1 <0>        -0.0288
     11 C11        -3.6685   -0.9449   -0.9821 C.2       1 <0>        -0.0653
     12 C12        -4.6693   -0.0001   -1.2162 C.2       1 <0>        -0.1823
     13 C13        -4.0785    1.2153   -1.3315 C.2       1 <0>         0.0339
     14 N1         -2.7387    1.0713   -1.1729 N.pl3     1 <0>        -0.5151
     15 H1         -2.0843    1.7864   -1.2097 H         1 <0>         0.4168
     16 C14        -6.1456   -0.2819   -1.3267 C.3       1 <0>        -0.0794
     17 C15        -3.8623   -2.4276   -0.7944 C.3       1 <0>        -0.0405
     18 C16        -4.0770   -2.7300    0.6899 C.3       1 <0>        -0.1467
     19 C17        -4.2709   -4.2127    0.8776 C.2       1 <0>         0.4589
     20 O1         -4.2404   -4.9516   -0.0779 O.co2     1 <0>        -0.6407
     21 C18        -0.0593    0.7556   -2.4006 C.2       1 <0>         0.5577
     22 O2         -1.0329    1.3139   -2.8746 O.2       1 <0>        -0.5178
     23 N2          1.2221    0.9825   -2.7359 N.am      1 <0>        -0.6531
     24 H2          0.8245   -3.2975    0.0871 H         1 <0>         0.0821
     25 H3          1.7887   -2.7198    1.4672 H         1 <0>         0.0726
     26 H4          0.3089   -1.8531    0.9906 H         1 <0>         0.0720
     27 H5          3.8530   -2.3475    0.3260 H         1 <0>         0.1285
     28 H6          5.1721   -0.9303   -1.1897 H         1 <0>         0.1280
     29 H7          4.0614    0.6751   -2.6771 H         1 <0>         0.1228
     30 H8         -1.0772   -1.6779   -0.0854 H         1 <0>         0.1563
     31 H9         -4.5915    2.1470   -1.5192 H         1 <0>         0.1639
     32 H10        -6.3977   -0.4967   -2.3652 H         1 <0>         0.0583
     33 H11        -6.3989   -1.1414   -0.7061 H         1 <0>         0.0674
     34 H12        -6.7079    0.5886   -0.9889 H         1 <0>         0.0562
     35 H13        -4.7338   -2.7547   -1.3616 H         1 <0>         0.0751
     36 H14        -2.9782   -2.9573   -1.1490 H         1 <0>         0.0673
     37 H15        -3.2056   -2.4029    1.2571 H         1 <0>         0.0606
     38 H16        -4.9611   -2.2002    1.0445 H         1 <0>         0.0651
     39 H17         1.5071    1.6295   -3.4001 H         1 <0>         0.4133
     40 O3         -4.4773   -4.7123    2.1062 O.co2     1 <0>        -0.7770
@<TRIPOS>BOND
     1    1    2 1
     2    1   24 1
     3    1   25 1
     4    1   26 1
     5    2    7 ar
     6    2    3 ar
     7    3    4 ar
     8    3   27 1
     9    4    5 ar
    10    4   28 1
    11    5    6 ar
    12    5   29 1
    13    6   23 1
    14    6    7 ar
    15    7    8 1
    16    8    9 2
    17    8   21 1
    18    9   10 1
    19    9   30 1
    20   10   14 1
    21   10   11 2
    22   11   12 1
    23   11   17 1
    24   12   13 2
    25   12   16 1
    26   13   14 1
    27   13   31 1
    28   14   15 1
    29   16   32 1
    30   16   33 1
    31   16   34 1
    32   17   18 1
    33   17   35 1
    34   17   36 1
    35   18   19 1
    36   18   37 1
    37   18   38 1
    38   19   20 2
    39   19   40 1
    40   21   22 2
    41   21   23 am
    42   23   39 1
@<TRIPOS>MOLECULE
ZINC03815487
   78    81     0     0     0
SMALL
USER_CHARGES

@<TRIPOS>ATOM
      1 C1         -3.2811    3.7176    1.2871 C.3       1 <0>        -0.1657
      2 C2         -2.4898    4.1049    0.0362 C.3       1 <0>         0.1851
      3 C3         -2.2306    5.6128    0.0431 C.3       1 <0>        -0.1607
      4 C4         -3.2929    3.7312   -1.2113 C.3       1 <0>        -0.1656
      5 N1         -1.2113    3.3897    0.0262 N.am      1 <0>        -0.7239
      6 C5         -1.1930    2.0421    0.0188 C.2       1 <0>         0.6942
      7 O1         -2.2375    1.4200    0.0204 O.2       1 <0>        -0.5121
      8 N2         -0.0168    1.3842    0.0097 N.am      1 <0>        -0.6490
      9 C6          0.0021   -0.0041    0.0020 C.ar      1 <0>         0.5058
     10 C7          1.2425   -0.6779   -0.0193 C.ar      1 <0>        -0.1059
     11 C8          1.2686   -2.0625   -0.0215 C.ar      1 <0>         0.0266
     12 C9          0.0399   -2.7461   -0.0140 C.ar      1 <0>        -0.1991
     13 C10        -0.0254   -4.1469   -0.0209 C.ar      1 <0>         0.2596
     14 C11        -2.3427   -4.0871    0.0030 C.ar      1 <0>         0.4120
     15 C12        -2.3806   -2.7070    0.0103 C.ar      1 <0>        -0.1802
     16 C13        -1.1683   -1.9990    0.0021 C.ar      1 <0>         0.2874
     17 N3         -1.1371   -0.6637    0.0094 N.ar      1 <0>        -0.4871
     18 N4         -3.5369   -4.7985    0.0111 N.pl3     1 <0>        -0.7274
     19 C14        -4.8154   -4.0834    0.0277 C.3       1 <0>         0.1212
     20 C15        -5.9647   -5.0934    0.0337 C.3       1 <0>        -0.1664
     21 C16        -7.2999   -4.3465    0.0510 C.3       1 <0>        -0.0012
     22 C17        -8.4484   -6.0706   -1.2042 C.3       1 <0>        -0.0431
     23 C18        -9.5721   -7.1080   -1.1322 C.3       1 <0>         0.0340
     24 O2        -10.8084   -6.4456   -0.8530 O.3       1 <0>        -0.3533
     25 C19       -10.8000   -5.7017    0.3684 C.3       1 <0>         0.0333
     26 C20        -9.6888   -4.6501    0.3116 C.3       1 <0>        -0.0387
     27 C21         2.5096    0.0921   -0.0333 C.ar      1 <0>         0.0027
     28 C22         2.6929    1.1182   -0.9580 C.ar      1 <0>        -0.1978
     29 C23         3.8759    1.8392   -0.9650 C.ar      1 <0>         0.1856
     30 C24         4.8815    1.5336   -0.0596 C.ar      1 <0>        -0.2841
     31 C25         4.7046    0.5088    0.8586 C.ar      1 <0>         0.1843
     32 C26         3.5219   -0.2126    0.8744 C.ar      1 <0>        -0.1676
     33 O3          5.6922    0.2126    1.7439 O.3       1 <0>        -0.3074
     34 C27         6.8848    0.9965    1.6716 C.3       1 <0>         0.0214
     35 O4          4.0535    2.8435   -1.8631 O.3       1 <0>        -0.3080
     36 C28         5.2995    3.5416   -1.8178 C.3       1 <0>         0.0213
     37 H1         -2.7089    3.9839    2.1758 H         1 <0>         0.0562
     38 H2         -4.2323    4.2498    1.2945 H         1 <0>         0.0692
     39 H3         -3.4657    2.6434    1.2821 H         1 <0>         0.0766
     40 H4         -1.6669    5.8887   -0.8480 H         1 <0>         0.0664
     41 H5         -3.1819    6.1449    0.0505 H         1 <0>         0.0821
     42 H6         -1.6585    5.8790    0.9319 H         1 <0>         0.0660
     43 H7         -3.4775    2.6570   -1.2163 H         1 <0>         0.0766
     44 H8         -4.2442    4.2633   -1.2039 H         1 <0>         0.0692
     45 H9         -2.7292    4.0071   -2.1025 H         1 <0>         0.0566
     46 H10        -0.3779    3.8861    0.0250 H         1 <0>         0.4013
     47 H11         0.8166    1.8806    0.0044 H         1 <0>         0.4273
     48 H12         2.2046   -2.6010   -0.0341 H         1 <0>         0.1755
     49 H13         0.8845   -4.7285   -0.0331 H         1 <0>         0.2082
     50 H14        -3.3245   -2.1823    0.0222 H         1 <0>         0.1831
     51 H15        -3.5237   -5.7684    0.0057 H         1 <0>         0.4152
     52 H16        -4.8728   -3.4624    0.9216 H         1 <0>         0.0941
     53 H17        -4.8905   -3.4528   -0.8582 H         1 <0>         0.0939
     54 H18        -5.9073   -5.7144   -0.8603 H         1 <0>         0.0992
     55 H19        -5.8895   -5.7240    0.9196 H         1 <0>         0.0999
     56 H20        -7.3572   -3.7255    0.9450 H         1 <0>         0.1391
     57 H21        -7.3750   -3.7159   -0.8348 H         1 <0>         0.1398
     58 H22        -8.6374   -5.3861   -2.0312 H         1 <0>         0.1430
     59 H23        -7.4955   -6.5764   -1.3601 H         1 <0>         0.1379
     60 H24        -9.3558   -7.8243   -0.3396 H         1 <0>         0.0815
     61 H25        -9.6464   -7.6307   -2.0857 H         1 <0>         0.1432
     62 H26       -10.6195   -6.3771    1.2047 H         1 <0>         0.0825
     63 H27       -11.7626   -5.2074    0.5002 H         1 <0>         0.1454
     64 H28        -9.6414   -4.1189    1.2623 H         1 <0>         0.1438
     65 H29        -9.8977   -3.9429   -0.4911 H         1 <0>         0.1433
     66 H30         1.9120    1.3539   -1.6659 H         1 <0>         0.1362
     67 H31         5.8044    2.0944   -0.0698 H         1 <0>         0.1452
     68 H32         3.3849   -1.0105    1.5892 H         1 <0>         0.1402
     69 H33         6.6415    2.0449    1.8442 H         1 <0>         0.0613
     70 H34         7.5893    0.6572    2.4310 H         1 <0>         0.1112
     71 H35         7.3334    0.8854    0.6844 H         1 <0>         0.0615
     72 H36         5.4234    4.0006   -0.8369 H         1 <0>         0.0616
     73 H37         6.1152    2.8411   -1.9967 H         1 <0>         0.0617
     74 H38         5.3104    4.3157   -2.5851 H         1 <0>         0.1113
     75 N5         -1.1918   -4.8379   -0.0125 N.ar      1 <0>        -0.5383
     76 H39        -1.2140   -5.8644   -0.0175 H         1 <0>         0.4706
     77 N6         -8.4002   -5.3344    0.0768 N.4       1 <0>        -0.3962
     78 H40        -8.2322   -6.0012    0.8393 H         1 <0>         0.4275
@<TRIPOS>BOND
     1    1    2 1
     2    1   37 1
     3    1   38 1
     4    1   39 1
     5    2    3 1
     6    2    4 1
     7    2    5 1
     8    3   40 1
     9    3   41 1
    10    3   42 1
    11    4   43 1
    12    4   44 1
    13    4   45 1
    14    5    6 am
    15    5   46 1
    16    6    7 2
    17    6    8 am
    18    8    9 1
    19    8   47 1
    20    9   17 ar
    21    9   10 ar
    22   10   11 ar
    23   10   27 1
    24   11   12 ar
    25   11   48 1
    26   12   16 ar
    27   12   13 ar
    28   13   49 1
    29   13   75 ar
    30   14   15 ar
    31   14   18 1
    32   14   75 ar
    33   15   16 ar
    34   15   50 1
    35   16   17 ar
    36   18   19 1
    37   18   51 1
    38   19   20 1
    39   19   52 1
    40   19   53 1
    41   20   21 1
    42   20   54 1
    43   20   55 1
    44   21   56 1
    45   21   57 1
    46   21   77 1
    47   22   23 1
    48   22   58 1
    49   22   59 1
    50   22   77 1
    51   23   24 1
    52   23   60 1
    53   23   61 1
    54   24   25 1
    55   25   26 1
    56   25   62 1
    57   25   63 1
    58   26   64 1
    59   26   65 1
    60   26   77 1
    61   27   32 ar
    62   27   28 ar
    63   28   29 ar
    64   28   66 1
    65   29   30 ar
    66   29   35 1
    67   30   31 ar
    68   30   67 1
    69   31   32 ar
    70   31   33 1
    71   32   68 1
    72   33   34 1
    73   34   69 1
    74   34   70 1
    75   34   71 1
    76   35   36 1
    77   36   72 1
    78   36   73 1
    79   36   74 1
    80   75   76 1
    81   77   78 1
@<TRIPOS>MOLECULE
ZINC03815488
   63    66     0     0     0
SMALL
USER_CHARGES

@<TRIPOS>ATOM
      1 C1          1.4887    2.0457    2.9267 C.3       1 <0>        -0.1870
      2 C2          0.1005    1.4243    2.7597 C.3       1 <0>        -0.0158
      3 C3         -0.5898    3.1680    1.2281 C.3       1 <0>        -0.0116
      4 C4         -1.7843    3.6452    2.0567 C.3       1 <0>        -0.1882
      5 C5          0.4705    1.1628    0.3811 C.3       1 <0>        -0.0029
      6 C6          0.4361   -0.3651    0.4536 C.3       1 <0>         0.0270
      7 O1         -0.8750   -0.8282    0.1240 O.3       1 <0>        -0.3287
      8 C7         -1.0772   -2.1720    0.1412 C.ar      1 <0>         0.1339
      9 C8         -0.0325   -3.0273    0.4635 C.ar      1 <0>        -0.2170
     10 C9         -0.2376   -4.3936    0.4862 C.ar      1 <0>        -0.0567
     11 C10        -1.4800   -4.9135    0.1781 C.ar      1 <0>        -0.1296
     12 C11        -2.5279   -4.0626   -0.1503 C.ar      1 <0>         0.2084
     13 C12        -2.3249   -2.6893   -0.1684 C.ar      1 <0>        -0.1708
     14 N1         -3.7850   -4.5884   -0.4625 N.pl3     1 <0>        -0.6321
     15 C13        -3.8828   -5.7643   -1.1815 C.ar      1 <0>         0.6048
     16 N2         -2.7732   -6.3146   -1.6626 N.ar      1 <0>        -0.5701
     17 C14        -2.8115   -7.4398   -2.3509 C.ar      1 <0>         0.2634
     18 C15        -4.0566   -8.0459   -2.5785 C.ar      1 <0>        -0.2660
     19 C16        -4.1623   -9.2485   -3.3137 C.2       1 <0>         0.0217
     20 C17        -5.3999   -9.8006   -3.5087 C.2       1 <0>        -0.1505
     21 C18        -6.5800   -9.1343   -2.9535 C.2       1 <0>         0.5544
     22 O2         -7.6849   -9.6187   -3.1219 O.2       1 <0>        -0.4936
     23 N3         -6.4496   -7.9887   -2.2572 N.am      1 <0>        -0.5054
     24 C19        -5.2134   -7.4284   -2.0564 C.ar      1 <0>         0.4654
     25 N4         -5.0794   -6.2987   -1.3704 N.ar      1 <0>        -0.5912
     26 C20        -7.6400   -7.3344   -1.7083 C.3       1 <0>         0.0691
     27 C21        -5.5442  -11.0605   -4.2749 C.ar      1 <0>        -0.0166
     28 C22        -5.7399  -11.0222   -5.6560 C.ar      1 <0>        -0.0058
     29 C23        -5.8692  -12.2005   -6.3649 C.ar      1 <0>        -0.1053
     30 C24        -5.8148  -13.4163   -5.7074 C.ar      1 <0>        -0.0844
     31 C25        -5.6263  -13.4611   -4.3378 C.ar      1 <0>        -0.1051
     32 C26        -5.4907  -12.2903   -3.6177 C.ar      1 <0>        -0.0058
     33 Cl1        -5.2547  -12.3486   -1.8988 Cl        1 <0>        -0.0505
     34 Cl2        -5.8150   -9.4972   -6.4820 Cl        1 <0>        -0.0509
     35 H1          1.4066    3.1321    2.8955 H         1 <0>         0.0823
     36 H2          1.9105    1.7406    3.8843 H         1 <0>         0.1069
     37 H3          2.1379    1.7070    2.1193 H         1 <0>         0.0794
     38 H4         -0.5761    1.8407    3.5060 H         1 <0>         0.1316
     39 H5          0.1675    0.3445    2.8921 H         1 <0>         0.1265
     40 H6          0.3098    3.6906    1.5532 H         1 <0>         0.1330
     41 H7         -0.7715    3.3784    0.1742 H         1 <0>         0.1293
     42 H8         -2.6602    3.0449    1.8106 H         1 <0>         0.0798
     43 H9         -1.5568    3.5381    3.1173 H         1 <0>         0.0799
     44 H10        -1.9868    4.6925    1.8325 H         1 <0>         0.1065
     45 H11         1.4901    1.5114    0.5452 H         1 <0>         0.1520
     46 H12         0.1292    1.4877   -0.6017 H         1 <0>         0.1410
     47 H13         1.1558   -0.7787   -0.2528 H         1 <0>         0.1097
     48 H14         0.6918   -0.6868    1.4632 H         1 <0>         0.0870
     49 H15         0.9410   -2.6242    0.7008 H         1 <0>         0.1281
     50 H16         0.5760   -5.0566    0.7409 H         1 <0>         0.1355
     51 H17        -1.6367   -5.9819    0.1929 H         1 <0>         0.1385
     52 H18        -3.1377   -2.0256   -0.4237 H         1 <0>         0.1354
     53 H19        -4.5886   -4.1279   -0.1743 H         1 <0>         0.4285
     54 H20        -1.9043   -7.8827   -2.7346 H         1 <0>         0.1900
     55 H21        -3.2801   -9.7251   -3.7149 H         1 <0>         0.1528
     56 H22        -8.0388   -6.6323   -2.4404 H         1 <0>         0.0756
     57 H23        -8.3943   -8.0867   -1.4778 H         1 <0>         0.0942
     58 H24        -7.3724   -6.7976   -0.7982 H         1 <0>         0.0947
     59 H25        -6.0166  -12.1724   -7.4344 H         1 <0>         0.1451
     60 H26        -5.9203  -14.3347   -6.2659 H         1 <0>         0.1472
     61 H27        -5.5854  -14.4135   -3.8304 H         1 <0>         0.1452
     62 N5         -0.4363    1.7095    1.4124 N.4       1 <0>        -0.3971
     63 H28        -1.3561    1.2629    1.3184 H         1 <0>         0.4352
@<TRIPOS>BOND
     1    1    2 1
     2    1   35 1
     3    1   36 1
     4    1   37 1
     5    2   38 1
     6    2   39 1
     7    2   62 1
     8    3    4 1
     9    3   40 1
    10    3   41 1
    11    3   62 1
    12    4   42 1
    13    4   43 1
    14    4   44 1
    15    5    6 1
    16    5   45 1
    17    5   46 1
    18    5   62 1
    19    6    7 1
    20    6   47 1
    21    6   48 1
    22    7    8 1
    23    8   13 ar
    24    8    9 ar
    25    9   10 ar
    26    9   49 1
    27   10   11 ar
    28   10   50 1
    29   11   12 ar
    30   11   51 1
    31   12   13 ar
    32   12   14 1
    33   13   52 1
    34   14   15 1
    35   14   53 1
    36   15   25 ar
    37   15   16 ar
    38   16   17 ar
    39   17   18 ar
    40   17   54 1
    41   18   24 ar
    42   18   19 1
    43   19   20 2
    44   19   55 1
    45   20   21 1
    46   20   27 1
    47   21   22 2
    48   21   23 am
    49   23   24 1
    50   23   26 1
    51   24   25 ar
    52   26   56 1
    53   26   57 1
    54   26   58 1
    55   27   32 ar
    56   27   28 ar
    57   28   29 ar
    58   28   34 1
    59   29   30 ar
    60   29   59 1
    61   30   31 ar
    62   30   60 1
    63   31   32 ar
    64   31   61 1
    65   32   33 1
    66   62   63 1
@<TRIPOS>MOLECULE
ZINC03815489
   60    63     0     0     0
SMALL
USER_CHARGES

@<TRIPOS>ATOM
      1 C1          2.0709    8.2772    0.4276 C.3       1 <0>         0.0692
      2 N1          3.3654    7.5914    0.4148 N.am      1 <0>        -0.5057
      3 C2          3.4085    6.2243    0.3059 C.ar      1 <0>         0.4670
      4 C3          4.6476    5.5480    0.2920 C.ar      1 <0>        -0.2713
      5 C4          5.8559    6.2749    0.3904 C.2       1 <0>         0.0246
      6 C5          5.8030    7.6389    0.4978 C.2       1 <0>        -0.1551
      7 C6          4.5011    8.3093    0.5096 C.2       1 <0>         0.5550
      8 O1          4.4450    9.5224    0.6053 O.2       1 <0>        -0.4959
      9 C7          7.0517    8.4294    0.6022 C.ar      1 <0>        -0.0146
     10 C8          7.6001    8.7111    1.8540 C.ar      1 <0>        -0.0060
     11 C9          8.7666    9.4453    1.9441 C.ar      1 <0>        -0.1056
     12 C10         9.3860    9.9087    0.7974 C.ar      1 <0>        -0.0853
     13 C11         8.8450    9.6370   -0.4464 C.ar      1 <0>        -0.1056
     14 C12         7.6814    8.9002   -0.5507 C.ar      1 <0>        -0.0062
     15 Cl1         7.0034    8.5613   -2.1124 Cl        1 <0>        -0.0508
     16 Cl2         6.8210    8.1355    3.2946 Cl        1 <0>        -0.0506
     17 C13         4.6477    4.1496    0.1787 C.ar      1 <0>         0.2633
     18 N2          3.4895    3.5229    0.0897 N.ar      1 <0>        -0.5728
     19 C14         2.3421    4.1926    0.1060 C.ar      1 <0>         0.6056
     20 N3          2.2918    5.5122    0.2062 N.ar      1 <0>        -0.5938
     21 N4          1.1585    3.4870    0.0093 N.pl3     1 <0>        -0.6281
     22 C15         1.1757    2.0869    0.0133 C.ar      1 <0>         0.1358
     23 C16         2.1234    1.4060    0.7660 C.ar      1 <0>        -0.0680
     24 C17         2.1394    0.0252    0.7698 C.ar      1 <0>        -0.1233
     25 C18         1.2089   -0.6817    0.0223 C.ar      1 <0>         0.1056
     26 C19         0.2619   -0.0022   -0.7299 C.ar      1 <0>        -0.1849
     27 C20         0.2448    1.3786   -0.7351 C.ar      1 <0>        -0.1048
     28 O2          1.2247   -2.0414    0.0273 O.3       1 <0>        -0.3133
     29 C21         0.2377   -2.7046   -0.7652 C.3       1 <0>         0.0627
     30 C22         0.4120   -4.2190   -0.6345 C.3       1 <0>        -0.1525
     31 C23        -0.6448   -4.9291   -1.4829 C.3       1 <0>        -0.0025
     32 C24        -0.7695   -6.8306    0.0109 C.3       1 <0>        -0.0487
     33 C25        -1.3127   -7.0954   -2.3337 C.3       1 <0>        -0.0426
     34 H1          1.7162    8.3647    1.4546 H         1 <0>         0.0756
     35 H2          2.1823    9.2718   -0.0042 H         1 <0>         0.0935
     36 H3          1.3510    7.7055   -0.1580 H         1 <0>         0.0947
     37 H4          6.8065    5.7624    0.3799 H         1 <0>         0.1516
     38 H5          9.1939    9.6612    2.9121 H         1 <0>         0.1448
     39 H6         10.2958   10.4856    0.8735 H         1 <0>         0.1467
     40 H7          9.3333   10.0020   -1.3378 H         1 <0>         0.1447
     41 H8          5.5758    3.5975    0.1643 H         1 <0>         0.1888
     42 H9          0.3154    3.9615   -0.0615 H         1 <0>         0.4274
     43 H10         2.8449    1.9561    1.3519 H         1 <0>         0.1458
     44 H11         2.8763   -0.5046    1.3552 H         1 <0>         0.1365
     45 H12        -0.4620   -0.5533   -1.3119 H         1 <0>         0.1290
     46 H13        -0.4923    1.9074   -1.3211 H         1 <0>         0.1317
     47 H14        -0.7564   -2.4221   -0.4187 H         1 <0>         0.0716
     48 H15         0.3547   -2.4142   -1.8092 H         1 <0>         0.0719
     49 H16         1.4061   -4.5016   -0.9810 H         1 <0>         0.0990
     50 H17         0.2950   -4.5095    0.4096 H         1 <0>         0.0990
     51 H18        -1.6389   -4.6466   -1.1364 H         1 <0>         0.1348
     52 H19        -0.5278   -4.6387   -2.5270 H         1 <0>         0.1332
     53 H20        -1.7978   -6.5738    0.2655 H         1 <0>         0.1243
     54 H21        -0.6379   -7.9106    0.0759 H         1 <0>         0.1244
     55 H22        -0.0895   -6.3392    0.7068 H         1 <0>         0.1234
     56 H23        -1.0276   -6.7965   -3.3424 H         1 <0>         0.1224
     57 H24        -1.1696   -8.1698   -2.2190 H         1 <0>         0.1244
     58 H25        -2.3607   -6.8483   -2.1641 H         1 <0>         0.1238
     59 N5         -0.4500   -6.3894   -1.3631 N.4       1 <0>        -0.3970
     60 H26         0.5316   -6.6127   -1.5653 H         1 <0>         0.4329
@<TRIPOS>BOND
     1    1    2 1
     2    1   34 1
     3    1   35 1
     4    1   36 1
     5    2    7 am
     6    2    3 1
     7    3   20 ar
     8    3    4 ar
     9    4    5 1
    10    4   17 ar
    11    5    6 2
    12    5   37 1
    13    6    7 1
    14    6    9 1
    15    7    8 2
    16    9   14 ar
    17    9   10 ar
    18   10   11 ar
    19   10   16 1
    20   11   12 ar
    21   11   38 1
    22   12   13 ar
    23   12   39 1
    24   13   14 ar
    25   13   40 1
    26   14   15 1
    27   17   18 ar
    28   17   41 1
    29   18   19 ar
    30   19   20 ar
    31   19   21 1
    32   21   22 1
    33   21   42 1
    34   22   27 ar
    35   22   23 ar
    36   23   24 ar
    37   23   43 1
    38   24   25 ar
    39   24   44 1
    40   25   26 ar
    41   25   28 1
    42   26   27 ar
    43   26   45 1
    44   27   46 1
    45   28   29 1
    46   29   30 1
    47   29   47 1
    48   29   48 1
    49   30   31 1
    50   30   49 1
    51   30   50 1
    52   31   51 1
    53   31   52 1
    54   31   59 1
    55   32   53 1
    56   32   54 1
    57   32   55 1
    58   32   59 1
    59   33   56 1
    60   33   57 1
    61   33   58 1
    62   33   59 1
    63   59   60 1
@<TRIPOS>MOLECULE
ZINC03815490
   57    60     0     0     0
SMALL
USER_CHARGES

@<TRIPOS>ATOM
      1 C1          1.8775    8.5250   -0.0210 C.3       1 <0>         0.0688
      2 N1          3.2048    7.9124   -0.1158 N.am      1 <0>        -0.5054
      3 C2          3.3189    6.5470   -0.1881 C.ar      1 <0>         0.4669
      4 C3          4.5906    5.9406   -0.2799 C.ar      1 <0>        -0.2682
      5 C4          5.7585    6.7367   -0.2981 C.2       1 <0>         0.0221
      6 C5          5.6348    8.0984   -0.2265 C.2       1 <0>        -0.1514
      7 C6          4.3008    8.6952   -0.1317 C.2       1 <0>         0.5544
      8 O1          4.1817    9.9058   -0.0671 O.2       1 <0>        -0.4938
      9 C7          6.8397    8.9603   -0.2438 C.ar      1 <0>        -0.0163
     10 C8          7.4655    9.3139    0.9522 C.ar      1 <0>        -0.0057
     11 C9          8.5907   10.1146    0.9288 C.ar      1 <0>        -0.1054
     12 C10         9.0920   10.5732   -0.2761 C.ar      1 <0>        -0.0846
     13 C11         8.4736   10.2302   -1.4650 C.ar      1 <0>        -0.1052
     14 C12         7.3503    9.4267   -1.4559 C.ar      1 <0>        -0.0060
     15 Cl1         6.5749    8.9984   -2.9489 Cl        1 <0>        -0.0505
     16 Cl2         6.8345    8.7443    2.4658 Cl        1 <0>        -0.0510
     17 C13         4.6632    4.5414   -0.3522 C.ar      1 <0>         0.2629
     18 N2          3.5400    3.8486   -0.3315 N.ar      1 <0>        -0.5744
     19 C14         2.3604    4.4534   -0.2443 C.ar      1 <0>         0.6043
     20 N3          2.2412    5.7707   -0.1788 N.ar      1 <0>        -0.5920
     21 N4          1.2158    3.6801   -0.2270 N.pl3     1 <0>        -0.6297
     22 C15         1.3147    2.2837   -0.1981 C.ar      1 <0>         0.1462
     23 C16         2.3614    1.6753    0.4821 C.ar      1 <0>        -0.0702
     24 C17         2.4580    0.2981    0.5105 C.ar      1 <0>        -0.1186
     25 C18         1.5096   -0.4776   -0.1399 C.ar      1 <0>         0.0951
     26 C19         0.4637    0.1293   -0.8196 C.ar      1 <0>        -0.1790
     27 C20         0.3659    1.5064   -0.8493 C.ar      1 <0>        -0.1058
     28 O2          1.6049   -1.8338   -0.1107 O.3       1 <0>        -0.3298
     29 C21         0.5938   -2.5702   -0.8017 C.3       1 <0>         0.0242
     30 C22         0.8665   -4.0689   -0.6582 C.3       1 <0>         0.0028
     31 C23        -0.6587   -4.5218    1.1670 C.3       1 <0>        -0.0473
     32 C24         1.4343   -5.7290    1.0105 C.3       1 <0>        -0.0427
     33 H1          1.5984    8.6269    1.0277 H         1 <0>         0.0759
     34 H2          1.8973    9.5093   -0.4890 H         1 <0>         0.0941
     35 H3          1.1491    7.8948   -0.5312 H         1 <0>         0.0949
     36 H4          6.7336    6.2778   -0.3686 H         1 <0>         0.1522
     37 H5          9.0780   10.3862    1.8535 H         1 <0>         0.1450
     38 H6          9.9699   11.2021   -0.2887 H         1 <0>         0.1471
     39 H7          8.8697   10.5919   -2.4024 H         1 <0>         0.1451
     40 H8          5.6181    4.0418   -0.4237 H         1 <0>         0.1894
     41 H9          0.3436    4.1045   -0.2349 H         1 <0>         0.4285
     42 H10         3.0972    2.2790    0.9925 H         1 <0>         0.1487
     43 H11         3.2720   -0.1752    1.0394 H         1 <0>         0.1369
     44 H12        -0.2741   -0.4753   -1.3260 H         1 <0>         0.1311
     45 H13        -0.4482    1.9788   -1.3789 H         1 <0>         0.1344
     46 H14        -0.3816   -2.3360   -0.3755 H         1 <0>         0.0853
     47 H15         0.6039   -2.2986   -1.8573 H         1 <0>         0.1085
     48 H16         0.1411   -4.6284   -1.2489 H         1 <0>         0.1500
     49 H17         1.8729   -4.2908   -1.0133 H         1 <0>         0.1412
     50 H18        -1.1808   -5.2602    0.5586 H         1 <0>         0.1252
     51 H19        -0.7164   -4.8095    2.2168 H         1 <0>         0.1247
     52 H20        -1.1237   -3.5452    1.0318 H         1 <0>         0.1190
     53 H21         2.5045   -5.6063    0.8433 H         1 <0>         0.1229
     54 H22         1.2604   -6.0340    2.0423 H         1 <0>         0.1236
     55 H23         1.0463   -6.4920    0.3357 H         1 <0>         0.1238
     56 N5          0.7624   -4.4346    0.7702 N.4       1 <0>        -0.4004
     57 H24         1.2224   -3.7103    1.3342 H         1 <0>         0.4384
@<TRIPOS>BOND
     1    1    2 1
     2    1   33 1
     3    1   34 1
     4    1   35 1
     5    2    7 am
     6    2    3 1
     7    3   20 ar
     8    3    4 ar
     9    4    5 1
    10    4   17 ar
    11    5    6 2
    12    5   36 1
    13    6    7 1
    14    6    9 1
    15    7    8 2
    16    9   14 ar
    17    9   10 ar
    18   10   11 ar
    19   10   16 1
    20   11   12 ar
    21   11   37 1
    22   12   13 ar
    23   12   38 1
    24   13   14 ar
    25   13   39 1
    26   14   15 1
    27   17   18 ar
    28   17   40 1
    29   18   19 ar
    30   19   20 ar
    31   19   21 1
    32   21   22 1
    33   21   41 1
    34   22   27 ar
    35   22   23 ar
    36   23   24 ar
    37   23   42 1
    38   24   25 ar
    39   24   43 1
    40   25   26 ar
    41   25   28 1
    42   26   27 ar
    43   26   44 1
    44   27   45 1
    45   28   29 1
    46   29   30 1
    47   29   46 1
    48   29   47 1
    49   30   48 1
    50   30   49 1
    51   30   56 1
    52   31   50 1
    53   31   51 1
    54   31   52 1
    55   31   56 1
    56   32   53 1
    57   32   54 1
    58   32   55 1
    59   32   56 1
    60   56   57 1
@<TRIPOS>MOLECULE
ZINC03815491
   64    68     0     0     0
SMALL
USER_CHARGES

@<TRIPOS>ATOM
      1 C1         -2.4742    7.3448   -1.1073 C.3       1 <0>         0.0688
      2 N1         -3.3853    6.4502   -0.3891 N.am      1 <0>        -0.5055
      3 C2         -3.0179    5.1483   -0.1596 C.ar      1 <0>         0.4669
      4 C3         -3.8841    4.2730    0.5308 C.ar      1 <0>        -0.2682
      5 C4         -5.1391    4.7317    0.9920 C.2       1 <0>         0.0221
      6 C5         -5.4970    6.0325    0.7588 C.2       1 <0>        -0.1515
      7 C6         -4.5749    6.9141    0.0395 C.2       1 <0>         0.5544
      8 O1         -4.8853    8.0729   -0.1719 O.2       1 <0>        -0.4938
      9 C7         -6.8053    6.5438    1.2299 C.ar      1 <0>        -0.0162
     10 C8         -7.9273    6.4643    0.4039 C.ar      1 <0>        -0.0057
     11 C9         -9.1450    6.9383    0.8510 C.ar      1 <0>        -0.1054
     12 C10        -9.2518    7.5000    2.1106 C.ar      1 <0>        -0.0846
     13 C11        -8.1424    7.5866    2.9323 C.ar      1 <0>        -0.1052
     14 C12        -6.9198    7.1119    2.4992 C.ar      1 <0>        -0.0060
     15 Cl1        -5.5284    7.2225    3.5315 Cl        1 <0>        -0.0505
     16 Cl2        -7.7940    5.7657   -1.1797 Cl        1 <0>        -0.0510
     17 C13        -3.4701    2.9498    0.7451 C.ar      1 <0>         0.2626
     18 N2         -2.2877    2.5766    0.2926 N.ar      1 <0>        -0.5742
     19 C14        -1.4985    3.4281   -0.3533 C.ar      1 <0>         0.6042
     20 N3         -1.8435    4.6873   -0.5750 N.ar      1 <0>        -0.5920
     21 N4         -0.2706    2.9852   -0.8054 N.pl3     1 <0>        -0.6292
     22 C15         0.0770    1.6348   -0.6776 C.ar      1 <0>         0.1460
     23 C16        -0.9027    0.6543   -0.7620 C.ar      1 <0>        -0.0713
     24 C17        -0.5590   -0.6773   -0.6363 C.ar      1 <0>        -0.1186
     25 C18         0.7645   -1.0355   -0.4262 C.ar      1 <0>         0.0953
     26 C19         1.7438   -0.0566   -0.3418 C.ar      1 <0>        -0.1789
     27 C20         1.4017    1.2754   -0.4668 C.ar      1 <0>        -0.1064
     28 O2          1.1022   -2.3469   -0.3025 O.3       1 <0>        -0.3288
     29 C21         2.4834   -2.6438   -0.0877 C.3       1 <0>         0.0251
     30 C22         2.6679   -4.1583    0.0257 C.3       1 <0>         0.0030
     31 C23         2.0411   -6.2182   -1.0810 C.3       1 <0>        -0.0015
     32 C24         1.5568   -6.8091   -2.4069 C.3       1 <0>        -0.1481
     33 C25         2.6408   -6.6183   -3.4714 C.3       1 <0>        -0.1389
     34 C26         2.9605   -5.1265   -3.6014 C.3       1 <0>        -0.1474
     35 C27         3.4041   -4.5844   -2.2408 C.3       1 <0>        -0.0059
     36 H1         -2.6775    7.2884   -2.1766 H         1 <0>         0.0759
     37 H2         -2.6231    8.3681   -0.7626 H         1 <0>         0.0941
     38 H3         -1.4441    7.0436   -0.9169 H         1 <0>         0.0949
     39 H4         -5.8053    4.0663    1.5210 H         1 <0>         0.1522
     40 H5        -10.0150    6.8741    0.2142 H         1 <0>         0.1450
     41 H6        -10.2055    7.8730    2.4539 H         1 <0>         0.1471
     42 H7         -8.2323    8.0266    3.9145 H         1 <0>         0.1451
     43 H8         -4.1054    2.2513    1.2695 H         1 <0>         0.1894
     44 H9          0.3508    3.6096   -1.2113 H         1 <0>         0.4284
     45 H10        -1.9325    0.9327   -0.9303 H         1 <0>         0.1497
     46 H11        -1.3208   -1.4400   -0.7019 H         1 <0>         0.1366
     47 H12         2.7740   -0.3363   -0.1779 H         1 <0>         0.1309
     48 H13         2.1641    2.0374   -0.4007 H         1 <0>         0.1342
     49 H14         3.0704   -2.2680   -0.9258 H         1 <0>         0.0845
     50 H15         2.8185   -2.1669    0.8333 H         1 <0>         0.1086
     51 H16         3.7043   -4.3801    0.2802 H         1 <0>         0.1495
     52 H17         2.0115   -4.5470    0.8042 H         1 <0>         0.1412
     53 H18         2.9450   -6.7366   -0.7609 H         1 <0>         0.1303
     54 H19         1.2658   -6.3397   -0.3245 H         1 <0>         0.1291
     55 H20         0.6452   -6.3004   -2.7206 H         1 <0>         0.0878
     56 H21         1.3547   -7.8727   -2.2799 H         1 <0>         0.1125
     57 H22         2.2829   -6.9989   -4.4280 H         1 <0>         0.0941
     58 H23         3.5403   -7.1594   -3.1776 H         1 <0>         0.0818
     59 H24         2.0710   -4.5914   -3.9339 H         1 <0>         0.0875
     60 H25         3.7618   -4.9880   -4.3272 H         1 <0>         0.1118
     61 H26         3.6188   -3.5192   -2.3267 H         1 <0>         0.1249
     62 H27         4.3015   -5.1106   -1.9154 H         1 <0>         0.1315
     63 N5          2.3081   -4.7760   -1.2674 N.4       1 <0>        -0.3960
     64 H28         1.4597   -4.3241   -1.6281 H         1 <0>         0.4337
@<TRIPOS>BOND
     1    1    2 1
     2    1   36 1
     3    1   37 1
     4    1   38 1
     5    2    7 am
     6    2    3 1
     7    3   20 ar
     8    3    4 ar
     9    4    5 1
    10    4   17 ar
    11    5    6 2
    12    5   39 1
    13    6    7 1
    14    6    9 1
    15    7    8 2
    16    9   14 ar
    17    9   10 ar
    18   10   11 ar
    19   10   16 1
    20   11   12 ar
    21   11   40 1
    22   12   13 ar
    23   12   41 1
    24   13   14 ar
    25   13   42 1
    26   14   15 1
    27   17   18 ar
    28   17   43 1
    29   18   19 ar
    30   19   20 ar
    31   19   21 1
    32   21   22 1
    33   21   44 1
    34   22   27 ar
    35   22   23 ar
    36   23   24 ar
    37   23   45 1
    38   24   25 ar
    39   24   46 1
    40   25   26 ar
    41   25   28 1
    42   26   27 ar
    43   26   47 1
    44   27   48 1
    45   28   29 1
    46   29   30 1
    47   29   49 1
    48   29   50 1
    49   30   51 1
    50   30   52 1
    51   30   63 1
    52   31   32 1
    53   31   53 1
    54   31   54 1
    55   31   63 1
    56   32   33 1
    57   32   55 1
    58   32   56 1
    59   33   34 1
    60   33   57 1
    61   33   58 1
    62   34   35 1
    63   34   59 1
    64   34   60 1
    65   35   61 1
    66   35   62 1
    67   35   63 1
    68   63   64 1
@<TRIPOS>MOLECULE
ZINC03815492
   66    69     0     0     0
SMALL
USER_CHARGES

@<TRIPOS>ATOM
      1 C1         -0.8153   -7.4496   -0.3659 C.3       1 <0>        -0.1897
      2 C2          0.3035   -7.0440   -1.3276 C.3       1 <0>        -0.0154
      3 N1          0.6749   -5.6437   -1.0839 N.4       1 <0>        -0.2672
      4 C3          1.7490   -5.2543   -2.0072 C.3       1 <0>        -0.0563
      5 C4         -0.4946   -4.7819   -1.3018 C.3       1 <0>        -0.0169
      6 C5         -1.0802   -5.0578   -2.6882 C.3       1 <0>        -0.1895
      7 C6          1.1416   -5.4948    0.3010 C.3       1 <0>        -0.0062
      8 C7          1.4765   -4.0266    0.5713 C.3       1 <0>         0.0280
      9 O1          0.2727   -3.2565    0.5757 O.3       1 <0>        -0.3206
     10 C8          0.3948   -1.9214    0.8033 C.ar      1 <0>         0.0909
     11 C9         -0.7339   -1.1152    0.8211 C.ar      1 <0>        -0.1190
     12 C10        -0.6107    0.2408    1.0512 C.ar      1 <0>        -0.0698
     13 C11         0.6435    0.7973    1.2653 C.ar      1 <0>         0.1460
     14 C12         1.7729   -0.0106    1.2478 C.ar      1 <0>        -0.1053
     15 C13         1.6480   -1.3664    1.0171 C.ar      1 <0>        -0.1789
     16 N2          0.7694    2.1722    1.4983 N.pl3     1 <0>        -0.6300
     17 C14        -0.2152    2.8480    2.1926 C.ar      1 <0>         0.6043
     18 N3         -1.2126    2.1526    2.7287 N.ar      1 <0>        -0.5738
     19 C15        -2.1778    2.7502    3.4014 C.ar      1 <0>         0.2630
     20 C16        -2.1334    4.1457    3.5430 C.ar      1 <0>        -0.2684
     21 C17        -3.1380    4.8421    4.2528 C.2       1 <0>         0.0222
     22 C18        -3.0496    6.2040    4.3635 C.2       1 <0>        -0.1516
     23 C19        -1.9208    6.9037    3.7462 C.2       1 <0>         0.5544
     24 O2         -1.8342    8.1151    3.8401 O.2       1 <0>        -0.4939
     25 N4         -0.9778    6.2144    3.0756 N.am      1 <0>        -0.5054
     26 C20        -1.0582    4.8496    2.9596 C.ar      1 <0>         0.4666
     27 N5         -0.1276    4.1645    2.3041 N.ar      1 <0>        -0.5921
     28 C21         0.1454    6.9291    2.4642 C.3       1 <0>         0.0688
     29 C22        -4.0867    6.9629    5.1006 C.ar      1 <0>        -0.0161
     30 C23        -5.2084    7.4504    4.4288 C.ar      1 <0>        -0.0058
     31 C24        -6.1738    8.1534    5.1227 C.ar      1 <0>        -0.1054
     32 C25        -6.0257    8.3829    6.4788 C.ar      1 <0>        -0.0846
     33 C26        -4.9136    7.9069    7.1496 C.ar      1 <0>        -0.1053
     34 C27        -3.9433    7.1983    6.4685 C.ar      1 <0>        -0.0060
     35 Cl1        -2.5481    6.6023    7.3122 Cl        1 <0>        -0.0505
     36 Cl2        -5.3928    7.1692    2.7257 Cl        1 <0>        -0.0511
     37 H1         -0.4690   -7.3391    0.6617 H         1 <0>         0.0801
     38 H2         -1.6830   -6.8102   -0.5277 H         1 <0>         0.0822
     39 H3         -1.0908   -8.4886   -0.5467 H         1 <0>         0.1046
     40 H4         -0.0428   -7.1545   -2.3552 H         1 <0>         0.1322
     41 H5          1.1713   -7.6835   -1.1658 H         1 <0>         0.1271
     42 H6          2.5994   -5.9239   -1.8785 H         1 <0>         0.1230
     43 H7          1.3874   -5.3193   -3.0334 H         1 <0>         0.1255
     44 H8          2.0573   -4.2306   -1.7947 H         1 <0>         0.1208
     45 H9         -1.2470   -4.9912   -0.5414 H         1 <0>         0.1297
     46 H10        -0.1929   -3.7366   -1.2363 H         1 <0>         0.1429
     47 H11        -0.3278   -4.8485   -3.4486 H         1 <0>         0.0775
     48 H12        -1.3819   -6.1031   -2.7537 H         1 <0>         0.0794
     49 H13        -1.9479   -4.4183   -2.8499 H         1 <0>         0.1035
     50 H14         2.0326   -6.1044    0.4517 H         1 <0>         0.1469
     51 H15         0.3584   -5.8208    0.9854 H         1 <0>         0.1424
     52 H16         2.1419   -3.6562   -0.2086 H         1 <0>         0.0857
     53 H17         1.9678   -3.9384    1.5402 H         1 <0>         0.1083
     54 H18        -1.7092   -1.5481    0.6546 H         1 <0>         0.1362
     55 H19        -1.4890    0.8692    1.0603 H         1 <0>         0.1466
     56 H20         2.7486    0.4213    1.4146 H         1 <0>         0.1338
     57 H21         2.5262   -1.9948    1.0034 H         1 <0>         0.1306
     58 H22         1.5479    2.6501    1.1721 H         1 <0>         0.4283
     59 H23        -2.9846    2.1774    3.8343 H         1 <0>         0.1892
     60 H24        -3.9630    4.3082    4.7008 H         1 <0>         0.1521
     61 H25        -0.1158    7.2120    1.4444 H         1 <0>         0.0759
     62 H26         0.3652    7.8251    3.0447 H         1 <0>         0.0941
     63 H27         1.0225    6.2821    2.4485 H         1 <0>         0.0949
     64 H28        -7.0444    8.5277    4.6048 H         1 <0>         0.1450
     65 H29        -6.7816    8.9364    7.0160 H         1 <0>         0.1471
     66 H30        -4.8036    8.0901    8.2083 H         1 <0>         0.1451
@<TRIPOS>BOND
     1    1    2 1
     2    1   37 1
     3    1   38 1
     4    1   39 1
     5    2    3 1
     6    2   40 1
     7    2   41 1
     8    3    4 1
     9    3    5 1
    10    3    7 1
    11    4   42 1
    12    4   43 1
    13    4   44 1
    14    5    6 1
    15    5   45 1
    16    5   46 1
    17    6   47 1
    18    6   48 1
    19    6   49 1
    20    7    8 1
    21    7   50 1
    22    7   51 1
    23    8    9 1
    24    8   52 1
    25    8   53 1
    26    9   10 1
    27   10   15 ar
    28   10   11 ar
    29   11   12 ar
    30   11   54 1
    31   12   13 ar
    32   12   55 1
    33   13   14 ar
    34   13   16 1
    35   14   15 ar
    36   14   56 1
    37   15   57 1
    38   16   17 1
    39   16   58 1
    40   17   27 ar
    41   17   18 ar
    42   18   19 ar
    43   19   20 ar
    44   19   59 1
    45   20   26 ar
    46   20   21 1
    47   21   22 2
    48   21   60 1
    49   22   23 1
    50   22   29 1
    51   23   24 2
    52   23   25 am
    53   25   26 1
    54   25   28 1
    55   26   27 ar
    56   28   61 1
    57   28   62 1
    58   28   63 1
    59   29   34 ar
    60   29   30 ar
    61   30   31 ar
    62   30   36 1
    63   31   32 ar
    64   31   64 1
    65   32   33 ar
    66   32   65 1
    67   33   34 ar
    68   33   66 1
    69   34   35 1
@<TRIPOS>MOLECULE
ZINC03815493
   60    64     0     0     0
SMALL
USER_CHARGES

@<TRIPOS>ATOM
      1 C1         -3.1412    0.0541   -6.3155 C.3       1 <0>         0.0649
      2 N1         -3.6737    0.6221   -7.5565 N.am      1 <0>        -0.5205
      3 C2         -3.8041    1.9861   -7.6820 C.ar      1 <0>         0.2672
      4 C3         -3.4382    2.8395   -6.6479 C.ar      1 <0>        -0.2914
      5 C4         -3.5893    4.2079   -6.8228 C.ar      1 <0>         0.4335
      6 N2         -4.0793    4.7094   -7.9519 N.ar      1 <0>        -0.5467
      7 C5         -4.4348    3.9457   -8.9616 C.ar      1 <0>         0.2329
      8 C6         -4.3157    2.5532   -8.8698 C.ar      1 <0>        -0.2231
      9 C7         -4.6986    1.7157   -9.9440 C.2       1 <0>         0.0213
     10 C8         -4.5658    0.3602   -9.8115 C.2       1 <0>        -0.1570
     11 C9         -4.0322   -0.1955   -8.5658 C.2       1 <0>         0.5516
     12 O1         -3.9117   -1.4014   -8.4420 O.2       1 <0>        -0.5070
     13 C10        -4.9597   -0.5394  -10.9207 C.ar      1 <0>        -0.0142
     14 C11        -6.2623   -1.0347  -10.9924 C.ar      1 <0>        -0.0065
     15 C12        -6.6243   -1.8691  -12.0318 C.ar      1 <0>        -0.1060
     16 C13        -5.6960   -2.2225  -12.9945 C.ar      1 <0>        -0.0858
     17 C14        -4.4017   -1.7392  -12.9264 C.ar      1 <0>        -0.1056
     18 C15        -4.0281   -0.8998  -11.8952 C.ar      1 <0>        -0.0068
     19 Cl1        -2.4031   -0.2948  -11.8113 Cl        1 <0>        -0.0506
     20 Cl2        -7.4270   -0.5978   -9.7815 Cl        1 <0>        -0.0524
     21 N3         -3.2271    5.0690   -5.7968 N.pl3     1 <0>        -0.6589
     22 C16        -2.8766    4.5551   -4.5423 C.ar      1 <0>         0.1605
     23 C17        -1.7840    5.0740   -3.8599 C.ar      1 <0>        -0.1152
     24 C18        -1.4387    4.5675   -2.6227 C.ar      1 <0>        -0.0991
     25 C19        -2.1839    3.5392   -2.0607 C.ar      1 <0>         0.0697
     26 C20        -3.2730    3.0164   -2.7456 C.ar      1 <0>        -0.1361
     27 C21        -3.6218    3.5267   -3.9803 C.ar      1 <0>        -0.1216
     28 N4         -1.8338    3.0258   -0.8067 N.pl3     1 <0>        -0.4847
     29 C22        -2.7503    1.9501   -0.4035 C.3       1 <0>         0.0183
     30 C23        -2.2877    1.3633    0.9322 C.3       1 <0>         0.0019
     31 C24        -1.3344    3.5029    1.5420 C.3       1 <0>         0.0015
     32 C25        -1.7970    4.0898    0.2063 C.3       1 <0>         0.0240
     33 C26        -1.8828    1.8878    3.2615 C.3       1 <0>        -0.0410
     34 H1         -3.9612   -0.1426   -5.6248 H         1 <0>         0.0735
     35 H2         -2.6208   -0.8778   -6.5364 H         1 <0>         0.0964
     36 H3         -2.4455    0.7601   -5.8620 H         1 <0>         0.0829
     37 H4         -3.0425    2.4444   -5.7238 H         1 <0>         0.1497
     38 H5         -4.8244    4.3937   -9.8638 H         1 <0>         0.1793
     39 H6         -5.0908    2.1406  -10.8562 H         1 <0>         0.1490
     40 H7         -7.6334   -2.2496  -12.0909 H         1 <0>         0.1444
     41 H8         -5.9830   -2.8789  -13.8027 H         1 <0>         0.1467
     42 H9         -3.6818   -2.0186  -13.6814 H         1 <0>         0.1447
     43 H10        -3.2167    6.0270   -5.9486 H         1 <0>         0.4220
     44 H11        -1.2047    5.8739   -4.2967 H         1 <0>         0.1380
     45 H12        -0.5892    4.9713   -2.0919 H         1 <0>         0.1341
     46 H13        -3.8497    2.2135   -2.3107 H         1 <0>         0.1320
     47 H14        -4.4717    3.1234   -4.5108 H         1 <0>         0.1358
     48 H15        -2.7506    1.1687   -1.1634 H         1 <0>         0.1295
     49 H16        -3.7576    2.3523   -0.2946 H         1 <0>         0.0714
     50 H17        -2.9824    0.5848    1.2475 H         1 <0>         0.1380
     51 H18        -1.2914    0.9365    0.8163 H         1 <0>         0.1407
     52 H19        -0.3272    3.1008    1.4331 H         1 <0>         0.1407
     53 H20        -1.3338    4.2845    2.3018 H         1 <0>         0.1380
     54 H21        -1.1023    4.8683   -0.1090 H         1 <0>         0.1281
     55 H22        -2.7934    4.5165    0.3219 H         1 <0>         0.0696
     56 H23        -0.8969    1.4266    3.2026 H         1 <0>         0.1247
     57 H24        -1.8627    2.6960    3.9926 H         1 <0>         0.1234
     58 H25        -2.6158    1.1407    3.5658 H         1 <0>         0.1232
     59 N5         -2.2763    2.4379    1.9467 N.4       1 <0>        -0.4000
     60 H26        -3.2195    2.8369    2.0209 H         1 <0>         0.4275
@<TRIPOS>BOND
     1    1    2 1
     2    1   34 1
     3    1   35 1
     4    1   36 1
     5    2   11 am
     6    2    3 1
     7    3    8 ar
     8    3    4 ar
     9    4    5 ar
    10    4   37 1
    11    5    6 ar
    12    5   21 1
    13    6    7 ar
    14    7    8 ar
    15    7   38 1
    16    8    9 1
    17    9   10 2
    18    9   39 1
    19   10   11 1
    20   10   13 1
    21   11   12 2
    22   13   18 ar
    23   13   14 ar
    24   14   15 ar
    25   14   20 1
    26   15   16 ar
    27   15   40 1
    28   16   17 ar
    29   16   41 1
    30   17   18 ar
    31   17   42 1
    32   18   19 1
    33   21   22 1
    34   21   43 1
    35   22   27 ar
    36   22   23 ar
    37   23   24 ar
    38   23   44 1
    39   24   25 ar
    40   24   45 1
    41   25   26 ar
    42   25   28 1
    43   26   27 ar
    44   26   46 1
    45   27   47 1
    46   28   32 1
    47   28   29 1
    48   29   30 1
    49   29   48 1
    50   29   49 1
    51   30   50 1
    52   30   51 1
    53   30   59 1
    54   31   32 1
    55   31   52 1
    56   31   53 1
    57   31   59 1
    58   32   54 1
    59   32   55 1
    60   33   56 1
    61   33   57 1
    62   33   58 1
    63   33   59 1
    64   59   60 1
@<TRIPOS>MOLECULE
ZINC03815494
   55    57     0     0     0
SMALL
USER_CHARGES

@<TRIPOS>ATOM
      1 C1         -0.4995    9.4869   -1.1891 C.3       1 <0>        -0.1666
      2 C2         -1.2999    9.8375    0.0667 C.3       1 <0>         0.1855
      3 C3         -1.6000   11.3378    0.0779 C.3       1 <0>        -0.1587
      4 C4         -0.4859    9.4709    1.3093 C.3       1 <0>        -0.1665
      5 N1         -2.5585    9.0878    0.0688 N.am      1 <0>        -0.7260
      6 C5         -2.5402    7.7401    0.0601 C.2       1 <0>         0.6918
      7 O1         -1.4791    7.1467    0.0506 O.2       1 <0>        -0.5068
      8 N2         -3.6980    7.0504    0.0620 N.am      1 <0>        -0.6517
      9 C6         -3.6791    5.6621    0.0530 C.ar      1 <0>         0.5006
     10 C7         -4.9008    4.9546    0.0552 C.ar      1 <0>        -0.1136
     11 C8         -4.8892    3.5700    0.0467 C.ar      1 <0>         0.0279
     12 C9         -3.6423    2.9201    0.0362 C.ar      1 <0>        -0.2013
     13 C10        -3.5390    1.5217    0.0276 C.ar      1 <0>         0.2519
     14 C11        -1.2242    1.6444    0.0168 C.ar      1 <0>         0.4250
     15 C12        -1.2237    3.0251    0.0300 C.ar      1 <0>        -0.1810
     16 C13        -2.4549    3.6999    0.0348 C.ar      1 <0>         0.2856
     17 N3         -2.5223    5.0338    0.0432 N.ar      1 <0>        -0.4856
     18 N4         -0.0111    0.9658    0.0074 N.pl3     1 <0>        -0.8366
     19 C14        -6.1885    5.6897    0.0659 C.ar      1 <0>         0.0098
     20 C15        -6.4083    6.6995    1.0005 C.ar      1 <0>        -0.1968
     21 C16        -7.6104    7.3883    1.0041 C.ar      1 <0>         0.1837
     22 C17        -8.5991    7.0659    0.0859 C.ar      1 <0>        -0.2863
     23 C18        -8.3857    6.0572   -0.8422 C.ar      1 <0>         0.1822
     24 C19        -7.1837    5.3684   -0.8550 C.ar      1 <0>        -0.1680
     25 O2         -9.3566    5.7447   -1.7403 O.3       1 <0>        -0.3080
     26 C20       -10.5708    6.4950   -1.6704 C.3       1 <0>         0.0224
     27 O3         -7.8235    8.3772    1.9117 O.3       1 <0>        -0.3083
     28 C21        -9.0876    9.0416    1.8625 C.3       1 <0>         0.0222
     29 H1         -1.0794    9.7480   -2.0743 H         1 <0>         0.0550
     30 H2          0.4370   10.0447   -1.1907 H         1 <0>         0.0689
     31 H3         -0.2857    8.4181   -1.1971 H         1 <0>         0.0788
     32 H4         -2.1703   11.5876    0.9726 H         1 <0>         0.0649
     33 H5         -0.6636   11.8956    0.0764 H         1 <0>         0.0810
     34 H6         -2.1799   11.5989   -0.8073 H         1 <0>         0.0645
     35 H7         -0.2721    8.4021    1.3013 H         1 <0>         0.0788
     36 H8          0.4505   10.0288    1.3077 H         1 <0>         0.0688
     37 H9         -1.0562    9.7208    2.2040 H         1 <0>         0.0554
     38 H10        -3.4051    9.5612    0.0764 H         1 <0>         0.3991
     39 H11        -4.5446    7.5238    0.0696 H         1 <0>         0.4247
     40 H12        -5.8102    3.0060    0.0485 H         1 <0>         0.1728
     41 H13        -4.4329    0.9155    0.0289 H         1 <0>         0.2055
     42 H14        -0.2943    3.5752    0.0330 H         1 <0>         0.1871
     43 H15         0.0021   -0.0041    0.0020 H         1 <0>         0.4168
     44 H16         0.8223    1.4622    0.0021 H         1 <0>         0.4360
     45 H17        -5.6407    6.9481    1.7185 H         1 <0>         0.1370
     46 H18        -9.5371    7.6011    0.0940 H         1 <0>         0.1435
     47 H19        -7.0183    4.5830   -1.5776 H         1 <0>         0.1404
     48 H20       -10.3546    7.5516   -1.8286 H         1 <0>         0.0602
     49 H21       -11.2586    6.1457   -2.4404 H         1 <0>         0.1095
     50 H22       -11.0253    6.3602   -0.6889 H         1 <0>         0.0604
     51 H23        -9.8855    8.3172    2.0259 H         1 <0>         0.0605
     52 H24        -9.1266    9.8063    2.6383 H         1 <0>         0.1096
     53 H25        -9.2150    9.5083    0.8857 H         1 <0>         0.0605
     54 N5         -2.3543    0.8627    0.0179 N.ar      1 <0>        -0.5378
     55 H26        -2.3043   -0.1629    0.0117 H         1 <0>         0.4711
@<TRIPOS>BOND
     1    1    2 1
     2    1   29 1
     3    1   30 1
     4    1   31 1
     5    2    3 1
     6    2    4 1
     7    2    5 1
     8    3   32 1
     9    3   33 1
    10    3   34 1
    11    4   35 1
    12    4   36 1
    13    4   37 1
    14    5    6 am
    15    5   38 1
    16    6    7 2
    17    6    8 am
    18    8    9 1
    19    8   39 1
    20    9   17 ar
    21    9   10 ar
    22   10   11 ar
    23   10   19 1
    24   11   12 ar
    25   11   40 1
    26   12   16 ar
    27   12   13 ar
    28   13   41 1
    29   13   54 ar
    30   14   15 ar
    31   14   18 1
    32   14   54 ar
    33   15   16 ar
    34   15   42 1
    35   16   17 ar
    36   18   43 1
    37   18   44 1
    38   19   24 ar
    39   19   20 ar
    40   20   21 ar
    41   20   45 1
    42   21   22 ar
    43   21   27 1
    44   22   23 ar
    45   22   46 1
    46   23   24 ar
    47   23   25 1
    48   24   47 1
    49   25   26 1
    50   26   48 1
    51   26   49 1
    52   26   50 1
    53   27   28 1
    54   28   51 1
    55   28   52 1
    56   28   53 1
    57   54   55 1
@<TRIPOS>MOLECULE
ZINC03815495
   60    63     0     0     0
SMALL
USER_CHARGES

@<TRIPOS>ATOM
      1 C1         -3.5289   -2.5681    0.7066 C.3       1 <0>        -0.1896
      2 C2         -2.4570   -2.8447   -0.3495 C.3       1 <0>        -0.0080
      3 C3         -0.7459   -3.6183    1.1790 C.3       1 <0>        -0.0062
      4 C4          0.3538   -3.0847    2.0992 C.3       1 <0>        -0.1926
      5 C5         -0.1211   -2.4397   -0.8417 C.3       1 <0>         0.1679
      6 O1          0.9654   -1.6424   -0.3665 O.3       1 <0>        -0.2871
      7 C6          0.7677   -0.2981   -0.3134 C.ar      1 <0>         0.0584
      8 C7          1.7489    0.5265    0.2173 C.ar      1 <0>        -0.1002
      9 C8          1.5485    1.8917    0.2724 C.ar      1 <0>        -0.0670
     10 C9          0.3646    2.4391   -0.2041 C.ar      1 <0>         0.1593
     11 C10        -0.6170    1.6130   -0.7356 C.ar      1 <0>        -0.1025
     12 C11        -0.4152    0.2480   -0.7896 C.ar      1 <0>        -0.1974
     13 N1          0.1605    3.8232   -0.1481 N.pl3     1 <0>        -0.6311
     14 C12         1.2285    4.6857   -0.3022 C.ar      1 <0>         0.6019
     15 N2          2.4290    4.1780   -0.5610 N.ar      1 <0>        -0.5762
     16 C13         3.4815    4.9585   -0.7169 C.ar      1 <0>         0.2634
     17 C14         3.3109    6.3468   -0.6039 C.ar      1 <0>        -0.2638
     18 C15         4.4002    7.2338   -0.7611 C.2       1 <0>         0.0193
     19 C16         4.1823    8.5803   -0.6418 C.2       1 <0>        -0.1471
     20 C17         2.8312    9.0674   -0.3554 C.2       1 <0>         0.5538
     21 O2          2.6284   10.2637   -0.2481 O.2       1 <0>        -0.4913
     22 N3          1.8117    8.1992   -0.2105 N.am      1 <0>        -0.5052
     23 C18         2.0207    6.8483   -0.3282 C.ar      1 <0>         0.4665
     24 N4          1.0175    5.9881   -0.1919 N.ar      1 <0>        -0.5897
     25 C19         0.4659    8.7025    0.0754 C.3       1 <0>         0.0685
     26 C20         5.3033    9.5358   -0.8007 C.ar      1 <0>        -0.0183
     27 C21         6.0560    9.9236    0.3085 C.ar      1 <0>        -0.0054
     28 C22         7.1025   10.8115    0.1528 C.ar      1 <0>        -0.1050
     29 C23         7.3990   11.3234   -1.0975 C.ar      1 <0>        -0.0837
     30 C24         6.6535   10.9471   -2.2003 C.ar      1 <0>        -0.1050
     31 C25         5.6074   10.0564   -2.0592 C.ar      1 <0>        -0.0057
     32 Cl1         4.6726    9.5859   -3.4442 Cl        1 <0>        -0.0506
     33 Cl2         5.6813    9.2874    1.8797 Cl        1 <0>        -0.0508
     34 H1         -3.3479   -3.1938    1.5806 H         1 <0>         0.0819
     35 H2         -3.4903   -1.5182    0.9972 H         1 <0>         0.0806
     36 H3         -4.5121   -2.7951    0.2945 H         1 <0>         0.1094
     37 H4         -2.6214   -2.1986   -1.2119 H         1 <0>         0.1282
     38 H5         -2.5143   -3.8877   -0.6607 H         1 <0>         0.1371
     39 H6         -1.6138   -3.8997    1.7753 H         1 <0>         0.1290
     40 H7         -0.3770   -4.4909    0.6400 H         1 <0>         0.1328
     41 H8          0.6689   -3.8725    2.7835 H         1 <0>         0.1040
     42 H9          1.2050   -2.7626    1.4994 H         1 <0>         0.0922
     43 H10        -0.0290   -2.2390    2.6704 H         1 <0>         0.0759
     44 H11        -0.5705   -1.9601   -1.7113 H         1 <0>         0.1324
     45 H12         0.2474   -3.4267   -1.1210 H         1 <0>         0.1745
     46 H13         2.6696    0.1006    0.5878 H         1 <0>         0.1446
     47 H14         2.3106    2.5330    0.6900 H         1 <0>         0.1564
     48 H15        -1.5379    2.0380   -1.1067 H         1 <0>         0.1387
     49 H16        -1.1785   -0.3946   -1.2030 H         1 <0>         0.1238
     50 H17        -0.7309    4.1764   -0.0012 H         1 <0>         0.4296
     51 H18         4.4536    4.5377   -0.9274 H         1 <0>         0.1909
     52 H19         5.3895    6.8551   -0.9717 H         1 <0>         0.1534
     53 H20         0.3244    8.7692    1.1541 H         1 <0>         0.0765
     54 H21         0.3456    9.6907   -0.3686 H         1 <0>         0.0948
     55 H22        -0.2737    8.0221   -0.3467 H         1 <0>         0.0947
     56 H23         7.6885   11.1093    1.0098 H         1 <0>         0.1455
     57 H24         8.2160   12.0203   -1.2133 H         1 <0>         0.1475
     58 H25         6.8896   11.3510   -3.1737 H         1 <0>         0.1455
     59 N5         -1.1305   -2.5503    0.2323 N.4       1 <0>        -0.4263
     60 H26        -1.1787   -1.6579    0.7379 H         1 <0>         0.4270
@<TRIPOS>BOND
     1    1    2 1
     2    1   34 1
     3    1   35 1
     4    1   36 1
     5    2   37 1
     6    2   38 1
     7    2   59 1
     8    3    4 1
     9    3   39 1
    10    3   40 1
    11    3   59 1
    12    4   41 1
    13    4   42 1
    14    4   43 1
    15    5    6 1
    16    5   44 1
    17    5   45 1
    18    5   59 1
    19    6    7 1
    20    7   12 ar
    21    7    8 ar
    22    8    9 ar
    23    8   46 1
    24    9   10 ar
    25    9   47 1
    26   10   11 ar
    27   10   13 1
    28   11   12 ar
    29   11   48 1
    30   12   49 1
    31   13   14 1
    32   13   50 1
    33   14   24 ar
    34   14   15 ar
    35   15   16 ar
    36   16   17 ar
    37   16   51 1
    38   17   23 ar
    39   17   18 1
    40   18   19 2
    41   18   52 1
    42   19   20 1
    43   19   26 1
    44   20   21 2
    45   20   22 am
    46   22   23 1
    47   22   25 1
    48   23   24 ar
    49   25   53 1
    50   25   54 1
    51   25   55 1
    52   26   31 ar
    53   26   27 ar
    54   27   28 ar
    55   27   33 1
    56   28   29 ar
    57   28   56 1
    58   29   30 ar
    59   29   57 1
    60   30   31 ar
    61   30   58 1
    62   31   32 1
    63   59   60 1
@<TRIPOS>MOLECULE
ZINC03815496
   63    66     0     0     0
SMALL
USER_CHARGES

@<TRIPOS>ATOM
      1 C1          3.3701   -6.4009   -1.6428 C.3       1 <0>        -0.1652
      2 C2          2.0772   -5.6702   -2.0107 C.3       1 <0>         0.0095
      3 N1          2.2699   -4.2228   -1.8496 N.4       1 <0>        -0.1157
      4 C3          1.0167   -3.5240   -2.1643 C.3       1 <0>         0.0131
      5 C4          0.5330   -3.9449   -3.5534 C.3       1 <0>        -0.1657
      6 C5          2.6579   -3.9319   -0.4629 C.3       1 <0>         0.0190
      7 C6          2.8370   -2.4224   -0.2895 C.3       1 <0>         0.0481
      8 O1          1.5656   -1.7774   -0.3882 O.3       1 <0>        -0.3174
      9 C7          1.5479   -0.4242   -0.2556 C.ar      1 <0>         0.1181
     10 C8          0.3470    0.2650   -0.3408 C.ar      1 <0>        -0.1309
     11 C9          0.3283    1.6393   -0.2072 C.ar      1 <0>        -0.0677
     12 C10         1.5119    2.3313    0.0132 C.ar      1 <0>         0.1202
     13 C11         2.7135    1.6406    0.0988 C.ar      1 <0>        -0.0999
     14 C12         2.7306    0.2663   -0.0355 C.ar      1 <0>        -0.1828
     15 N2          1.4938    3.7249    0.1484 N.pl3     1 <0>        -0.6236
     16 C13         0.4203    4.3459    0.7568 C.ar      1 <0>         0.6092
     17 N3         -0.5250    3.5935    1.3101 N.ar      1 <0>        -0.5689
     18 C14        -1.5707    4.1372    1.9036 C.ar      1 <0>         0.2651
     19 C15        -1.6691    5.5366    1.9415 C.ar      1 <0>        -0.2787
     20 C16        -2.7651    6.1772    2.5632 C.2       1 <0>         0.0314
     21 C17        -2.8152    7.5454    2.5742 C.2       1 <0>        -0.1651
     22 C18        -1.7364    8.3095    1.9441 C.2       1 <0>         0.5570
     23 O2         -1.7728    9.5270    1.9497 O.2       1 <0>        -0.5018
     24 N4         -0.7039    7.6726    1.3589 N.am      1 <0>        -0.5060
     25 C19        -0.6453    6.3019    1.3430 C.ar      1 <0>         0.4674
     26 N5          0.3738    5.6690    0.7721 N.ar      1 <0>        -0.5973
     27 C20         0.3677    8.4514    0.7333 C.3       1 <0>         0.0699
     28 C21        -3.9509    8.2466    3.2174 C.ar      1 <0>        -0.0098
     29 C22        -5.0868    8.5694    2.4739 C.ar      1 <0>        -0.0064
     30 C23        -6.1437    9.2193    3.0806 C.ar      1 <0>        -0.1065
     31 C24        -6.0741    9.5587    4.4198 C.ar      1 <0>        -0.0875
     32 C25        -4.9488    9.2463    5.1612 C.ar      1 <0>        -0.1065
     33 C26        -3.8869    8.5922    4.5678 C.ar      1 <0>        -0.0066
     34 Cl1        -2.4753    8.2016    5.4998 Cl        1 <0>        -0.0504
     35 Cl2        -5.1734    8.1503    0.7915 Cl        1 <0>        -0.0502
     36 O3          3.3235   -3.7672   -2.7566 O.3       1 <0>        -0.6431
     37 H1          4.1948   -5.9989   -2.2313 H         1 <0>         0.0858
     38 H2          3.5780   -6.2598   -0.5822 H         1 <0>         0.0590
     39 H3          3.2586   -7.4647   -1.8527 H         1 <0>         0.0743
     40 H4          1.2721   -6.0046   -1.3565 H         1 <0>         0.0846
     41 H5          1.8183   -5.8892   -3.0467 H         1 <0>         0.1080
     42 H6          0.2607   -3.7819   -1.4227 H         1 <0>         0.0837
     43 H7          1.1875   -2.4475   -2.1498 H         1 <0>         0.1216
     44 H8         -0.3969   -3.4264   -3.7869 H         1 <0>         0.0734
     45 H9          1.2890   -3.6869   -4.2950 H         1 <0>         0.0799
     46 H10         0.3622   -5.0214   -3.5679 H         1 <0>         0.0596
     47 H11         3.5961   -4.4377   -0.2344 H         1 <0>         0.1245
     48 H12         1.8802   -4.2857    0.2138 H         1 <0>         0.0969
     49 H13         3.4983   -2.0430   -1.0685 H         1 <0>         0.0971
     50 H14         3.2730   -2.2182    0.6884 H         1 <0>         0.0808
     51 H15        -0.5734   -0.2734   -0.5122 H         1 <0>         0.1345
     52 H16        -0.6061    2.1762   -0.2784 H         1 <0>         0.1406
     53 H17         3.6344    2.1780    0.2705 H         1 <0>         0.1294
     54 H18         3.6651   -0.2710    0.0311 H         1 <0>         0.1334
     55 H19         2.2350    4.2542   -0.1852 H         1 <0>         0.4263
     56 H20        -2.3343    3.5184    2.3511 H         1 <0>         0.1878
     57 H21        -3.5513    5.5961    3.0222 H         1 <0>         0.1502
     58 H22         0.1217    8.6330   -0.3129 H         1 <0>         0.0746
     59 H23         0.4749    9.4041    1.2520 H         1 <0>         0.0920
     60 H24         1.3039    7.8966    0.7954 H         1 <0>         0.0950
     61 H25        -7.0251    9.4661    2.5074 H         1 <0>         0.1437
     62 H26        -6.9018   10.0702    4.8885 H         1 <0>         0.1453
     63 H27        -4.9004    9.5146    6.2062 H         1 <0>         0.1437
@<TRIPOS>BOND
     1    1    2 1
     2    1   37 1
     3    1   38 1
     4    1   39 1
     5    2    3 1
     6    2   40 1
     7    2   41 1
     8    3    4 1
     9    3    6 1
    10    3   36 1
    11    4    5 1
    12    4   42 1
    13    4   43 1
    14    5   44 1
    15    5   45 1
    16    5   46 1
    17    6    7 1
    18    6   47 1
    19    6   48 1
    20    7    8 1
    21    7   49 1
    22    7   50 1
    23    8    9 1
    24    9   14 ar
    25    9   10 ar
    26   10   11 ar
    27   10   51 1
    28   11   12 ar
    29   11   52 1
    30   12   13 ar
    31   12   15 1
    32   13   14 ar
    33   13   53 1
    34   14   54 1
    35   15   16 1
    36   15   55 1
    37   16   26 ar
    38   16   17 ar
    39   17   18 ar
    40   18   19 ar
    41   18   56 1
    42   19   25 ar
    43   19   20 1
    44   20   21 2
    45   20   57 1
    46   21   22 1
    47   21   28 1
    48   22   23 2
    49   22   24 am
    50   24   25 1
    51   24   27 1
    52   25   26 ar
    53   27   58 1
    54   27   59 1
    55   27   60 1
    56   28   33 ar
    57   28   29 ar
    58   29   30 ar
    59   29   35 1
    60   30   31 ar
    61   30   61 1
    62   31   32 ar
    63   31   62 1
    64   32   33 ar
    65   32   63 1
    66   33   34 1
@<TRIPOS>MOLECULE
ZINC03815497
   63    67     0     0     0
SMALL
USER_CHARGES

@<TRIPOS>ATOM
      1 C1         -4.6629    5.0294   10.9842 C.3       1 <0>         0.0670
      2 N1         -4.8082    3.5759   10.8730 N.am      1 <0>        -0.5043
      3 C2         -4.2124    2.9117    9.8308 C.ar      1 <0>         0.4647
      4 C3         -4.3425    1.5112    9.7090 C.ar      1 <0>        -0.2504
      5 C4         -5.0891    0.7807   10.6615 C.2       1 <0>         0.0083
      6 C5         -5.6797    1.4520   11.6984 C.2       1 <0>        -0.1314
      7 C6         -5.5250    2.9051   11.7952 C.2       1 <0>         0.5506
      8 O1         -6.0468    3.5102   12.7148 O.2       1 <0>        -0.4823
      9 C7         -6.4687    0.7151   12.7130 C.ar      1 <0>        -0.0254
     10 C8         -7.8386    0.5220   12.5306 C.ar      1 <0>        -0.0046
     11 C9         -8.5676   -0.1692   13.4784 C.ar      1 <0>        -0.1040
     12 C10        -7.9444   -0.6616   14.6109 C.ar      1 <0>        -0.0804
     13 C11        -6.5877   -0.4695   14.8001 C.ar      1 <0>        -0.1034
     14 C12        -5.8463    0.2162   13.8579 C.ar      1 <0>        -0.0050
     15 Cl1        -4.1439    0.4573   14.0977 Cl        1 <0>        -0.0501
     16 Cl2        -8.6238    1.1444   11.1129 Cl        1 <0>        -0.0524
     17 C13        -3.7173    0.8705    8.6288 C.ar      1 <0>         0.2590
     18 N2         -3.0327    1.6029    7.7702 N.ar      1 <0>        -0.5772
     19 C14        -2.9316    2.9194    7.9165 C.ar      1 <0>         0.5925
     20 N3         -3.4996    3.5676    8.9219 N.ar      1 <0>        -0.5824
     21 N4         -2.2022    3.6381    6.9887 N.pl3     1 <0>        -0.6349
     22 C15        -1.6845    2.9979    5.8588 C.ar      1 <0>         0.2264
     23 C16        -2.3855    1.9546    5.2675 C.ar      1 <0>        -0.1136
     24 C17        -1.8711    1.3241    4.1517 C.ar      1 <0>        -0.0637
     25 C18        -0.6595    1.7303    3.6230 C.ar      1 <0>        -0.2089
     26 C19         0.0434    2.7652    4.2124 C.ar      1 <0>        -0.0704
     27 C20        -0.4679    3.4035    5.3253 C.ar      1 <0>        -0.1499
     28 C21        -0.1010    1.0397    2.4056 C.3       1 <0>         0.0553
     29 C22         0.1264    1.2293    0.0020 C.3       1 <0>        -0.0263
     30 C23        -0.4534    1.9029   -1.2440 C.3       1 <0>        -0.0266
     31 C24        -1.0230    3.8513    0.0743 C.3       1 <0>        -0.0255
     32 C25        -0.4432    3.1777    1.3204 C.3       1 <0>        -0.0338
     33 C26        -0.7947    4.0408   -2.3292 C.3       1 <0>        -0.0460
     34 H1         -5.4748    5.5180   10.4454 H         1 <0>         0.0779
     35 H2         -4.6980    5.3188   12.0345 H         1 <0>         0.0973
     36 H3         -3.7079    5.3330   10.5554 H         1 <0>         0.0949
     37 H4         -5.1920   -0.2907   10.5727 H         1 <0>         0.1556
     38 H5         -9.6273   -0.3227   13.3367 H         1 <0>         0.1469
     39 H6         -8.5197   -1.1982   15.3509 H         1 <0>         0.1495
     40 H7         -6.1072   -0.8561   15.6867 H         1 <0>         0.1472
     41 H8         -3.7941   -0.1993    8.5026 H         1 <0>         0.1922
     42 H9         -2.0493    4.5867    7.1214 H         1 <0>         0.4329
     43 H10        -3.3316    1.6367    5.6801 H         1 <0>         0.1511
     44 H11        -2.4157    0.5131    3.6912 H         1 <0>         0.1351
     45 H12         0.9915    3.0771    3.7997 H         1 <0>         0.1332
     46 H13         0.0795    4.2146    5.7824 H         1 <0>         0.1417
     47 H14        -0.4316    0.0011    2.3934 H         1 <0>         0.1456
     48 H15         0.9880    1.0740    2.4360 H         1 <0>         0.1429
     49 H16         0.0004    0.1494   -0.0764 H         1 <0>         0.1748
     50 H17         1.1871    1.4667    0.0835 H         1 <0>         0.1554
     51 H18         0.0878    1.5622   -2.1267 H         1 <0>         0.1743
     52 H19        -1.5075    1.6427   -1.3409 H         1 <0>         0.1550
     53 H20        -0.8970    4.9311    0.1528 H         1 <0>         0.1730
     54 H21        -2.0837    3.6139   -0.0075 H         1 <0>         0.1544
     55 H22         0.6109    3.4376    1.4170 H         1 <0>         0.1544
     56 H23        -0.9842    3.5187    2.2031 H         1 <0>         0.1764
     57 H24        -1.8455    3.8005   -2.4906 H         1 <0>         0.1321
     58 H25        -0.6827    5.1184   -2.2089 H         1 <0>         0.1352
     59 H26        -0.2100    3.7082   -3.1869 H         1 <0>         0.1355
     60 N5         -0.6060    1.7142    1.1906 N.4       1 <0>        -0.4048
     61 H27        -1.6035    1.4979    1.0792 H         1 <0>         0.4356
     62 N6         -0.2903    3.3663   -1.1141 N.4       1 <0>        -0.4063
     63 H28         0.7073    3.5823   -1.0023 H         1 <0>         0.4399
@<TRIPOS>BOND
     1    1    2 1
     2    1   34 1
     3    1   35 1
     4    1   36 1
     5    2    7 am
     6    2    3 1
     7    3   20 ar
     8    3    4 ar
     9    4    5 1
    10    4   17 ar
    11    5    6 2
    12    5   37 1
    13    6    7 1
    14    6    9 1
    15    7    8 2
    16    9   14 ar
    17    9   10 ar
    18   10   11 ar
    19   10   16 1
    20   11   12 ar
    21   11   38 1
    22   12   13 ar
    23   12   39 1
    24   13   14 ar
    25   13   40 1
    26   14   15 1
    27   17   18 ar
    28   17   41 1
    29   18   19 ar
    30   19   20 ar
    31   19   21 1
    32   21   22 1
    33   21   42 1
    34   22   27 ar
    35   22   23 ar
    36   23   24 ar
    37   23   43 1
    38   24   25 ar
    39   24   44 1
    40   25   26 ar
    41   25   28 1
    42   26   27 ar
    43   26   45 1
    44   27   46 1
    45   28   47 1
    46   28   48 1
    47   28   60 1
    48   29   30 1
    49   29   49 1
    50   29   50 1
    51   29   60 1
    52   30   51 1
    53   30   52 1
    54   30   62 1
    55   31   32 1
    56   31   53 1
    57   31   54 1
    58   31   62 1
    59   32   55 1
    60   32   56 1
    61   32   60 1
    62   33   57 1
    63   33   58 1
    64   33   59 1
    65   33   62 1
    66   60   61 1
    67   62   63 1
@<TRIPOS>MOLECULE
ZINC03815498
   62    66     0     0     0
SMALL
USER_CHARGES

@<TRIPOS>ATOM
      1 C1         -1.5916    1.6564    3.1282 C.3       1 <0>        -0.0409
      2 C2         -1.8362    1.2038    0.7617 C.3       1 <0>         0.0019
      3 C3         -2.3581    1.7772   -0.5578 C.3       1 <0>         0.0194
      4 N1         -1.6329    3.0162   -0.8714 N.pl3     1 <0>        -0.4845
      5 C4         -1.8095    4.0109    0.1958 C.3       1 <0>         0.0241
      6 C5         -1.2876    3.4375    1.5154 C.3       1 <0>         0.0016
      7 C6         -2.0333    3.5322   -2.1091 C.ar      1 <0>         0.0666
      8 C7         -2.9958    2.8691   -2.8592 C.ar      1 <0>        -0.1391
      9 C8         -3.3950    3.3813   -4.0777 C.ar      1 <0>        -0.0851
     10 C9         -2.8256    4.5530   -4.5586 C.ar      1 <0>         0.1623
     11 C10        -1.8594    5.2132   -3.8109 C.ar      1 <0>        -0.1206
     12 C11        -1.4642    4.7042   -2.5898 C.ar      1 <0>        -0.1038
     13 N2         -3.2261    5.0692   -5.7976 N.pl3     1 <0>        -0.6322
     14 C12        -3.5863    4.2120   -6.8190 C.ar      1 <0>         0.6014
     15 N3         -3.4318    2.9043   -6.6404 N.ar      1 <0>        -0.5752
     16 C13        -3.7649    2.0413   -7.5830 C.ar      1 <0>         0.2558
     17 C14        -4.2781    2.5355   -8.7879 C.ar      1 <0>        -0.2788
     18 C15        -4.6668    1.6523   -9.8830 C.2       1 <0>         0.0032
     19 C16        -5.1565    2.2130  -11.0198 C.2       1 <0>        -0.2214
     20 C17        -5.2806    3.6133  -11.1228 C.2       1 <0>         0.5408
     21 O1         -5.7223    4.0950  -12.1515 O.2       1 <0>        -0.5065
     22 N4         -4.9246    4.4324  -10.1173 N.am      1 <0>        -0.5020
     23 C18        -4.4232    3.9314   -8.9438 C.ar      1 <0>         0.4640
     24 N5         -4.0675    4.7251   -7.9415 N.ar      1 <0>        -0.5908
     25 C19        -5.0753    5.8807  -10.2781 C.3       1 <0>         0.1339
     26 C20        -6.5463    6.2152  -10.5336 C.3       1 <0>        -0.1343
     27 C21        -6.7037    7.7278  -10.7015 C.3       1 <0>        -0.1120
     28 C22        -5.8600    8.1997  -11.8874 C.3       1 <0>        -0.1235
     29 C23        -4.3890    7.8653  -11.6319 C.3       1 <0>        -0.1121
     30 C24        -4.2316    6.3527  -11.4640 C.3       1 <0>        -0.1347
     31 H1         -0.5392    1.3765    3.0815 H         1 <0>         0.1244
     32 H2         -1.7325    2.4128    3.9003 H         1 <0>         0.1229
     33 H3         -2.1910    0.7777    3.3667 H         1 <0>         0.1229
     34 H4         -2.3926    0.3002    1.0110 H         1 <0>         0.1374
     35 H5         -0.7780    0.9628    0.6602 H         1 <0>         0.1401
     36 H6         -2.2016    1.0521   -1.3566 H         1 <0>         0.1298
     37 H7         -3.4226    1.9924   -0.4650 H         1 <0>         0.0705
     38 H8         -1.2531    4.9144   -0.0534 H         1 <0>         0.1274
     39 H9         -2.8677    4.2518    0.2969 H         1 <0>         0.0685
     40 H10        -0.2231    3.2223    1.4226 H         1 <0>         0.1402
     41 H11        -1.4437    4.1627    2.3140 H         1 <0>         0.1371
     42 H12        -3.4349    1.9551   -2.4876 H         1 <0>         0.1293
     43 H13        -4.1470    2.8682   -4.6589 H         1 <0>         0.1415
     44 H14        -1.4168    6.1247   -4.1848 H         1 <0>         0.1343
     45 H15        -0.7127    5.2177   -2.0084 H         1 <0>         0.1316
     46 H16        -3.2505    6.0286   -5.9383 H         1 <0>         0.4280
     47 H17        -3.6401    0.9795   -7.4295 H         1 <0>         0.1868
     48 H18        -4.5678    0.5807   -9.7922 H         1 <0>         0.1537
     49 H19        -5.4519    1.5840  -11.8465 H         1 <0>         0.1620
     50 H20        -4.7406    6.3838   -9.3709 H         1 <0>         0.1112
     51 H21        -6.8811    5.7121  -11.4407 H         1 <0>         0.0902
     52 H22        -7.1474    5.8789   -9.6887 H         1 <0>         0.0592
     53 H23        -6.3689    8.2308   -9.7944 H         1 <0>         0.0618
     54 H24        -7.7516    7.9660  -10.8835 H         1 <0>         0.0692
     55 H25        -5.9721    9.2773  -12.0071 H         1 <0>         0.0662
     56 H26        -6.1947    7.6967  -12.7946 H         1 <0>         0.0675
     57 H27        -4.0542    8.3684  -10.7248 H         1 <0>         0.0619
     58 H28        -3.7879    8.2015  -12.4768 H         1 <0>         0.0694
     59 H29        -3.1836    6.1144  -11.2820 H         1 <0>         0.0598
     60 H30        -4.5664    5.8496  -12.3711 H         1 <0>         0.0903
     61 N6         -2.0397    2.2044    1.8301 N.4       1 <0>        -0.3999
     62 H31        -3.0397    2.4296    1.8905 H         1 <0>         0.4273
@<TRIPOS>BOND
     1    1   31 1
     2    1   32 1
     3    1   33 1
     4    1   61 1
     5    2    3 1
     6    2   34 1
     7    2   35 1
     8    2   61 1
     9    3    4 1
    10    3   36 1
    11    3   37 1
    12    4    5 1
    13    4    7 1
    14    5    6 1
    15    5   38 1
    16    5   39 1
    17    6   40 1
    18    6   41 1
    19    6   61 1
    20    7   12 ar
    21    7    8 ar
    22    8    9 ar
    23    8   42 1
    24    9   10 ar
    25    9   43 1
    26   10   11 ar
    27   10   13 1
    28   11   12 ar
    29   11   44 1
    30   12   45 1
    31   13   14 1
    32   13   46 1
    33   14   24 ar
    34   14   15 ar
    35   15   16 ar
    36   16   17 ar
    37   16   47 1
    38   17   23 ar
    39   17   18 1
    40   18   19 2
    41   18   48 1
    42   19   20 1
    43   19   49 1
    44   20   21 2
    45   20   22 am
    46   22   23 1
    47   22   25 1
    48   23   24 ar
    49   25   30 1
    50   25   26 1
    51   25   50 1
    52   26   27 1
    53   26   51 1
    54   26   52 1
    55   27   28 1
    56   27   53 1
    57   27   54 1
    58   28   29 1
    59   28   55 1
    60   28   56 1
    61   29   30 1
    62   29   57 1
    63   29   58 1
    64   30   59 1
    65   30   60 1
    66   61   62 1
@<TRIPOS>MOLECULE
ZINC03815499
   51    54     0     0     0
SMALL
USER_CHARGES

@<TRIPOS>ATOM
      1 C1          2.0709    8.2772    0.4276 C.3       1 <0>         0.0687
      2 N1          3.3654    7.5914    0.4148 N.am      1 <0>        -0.5055
      3 C2          3.4085    6.2243    0.3059 C.ar      1 <0>         0.4668
      4 C3          4.6476    5.5480    0.2920 C.ar      1 <0>        -0.2679
      5 C4          5.8559    6.2749    0.3904 C.2       1 <0>         0.0218
      6 C5          5.8030    7.6389    0.4978 C.2       1 <0>        -0.1511
      7 C6          4.5011    8.3093    0.5096 C.2       1 <0>         0.5543
      8 O1          4.4450    9.5224    0.6053 O.2       1 <0>        -0.4936
      9 C7          7.0517    8.4294    0.6022 C.ar      1 <0>        -0.0164
     10 C8          7.6001    8.7111    1.8540 C.ar      1 <0>        -0.0057
     11 C9          8.7666    9.4453    1.9441 C.ar      1 <0>        -0.1053
     12 C10         9.3860    9.9087    0.7974 C.ar      1 <0>        -0.0845
     13 C11         8.8450    9.6370   -0.4464 C.ar      1 <0>        -0.1052
     14 C12         7.6814    8.9002   -0.5507 C.ar      1 <0>        -0.0060
     15 Cl1         7.0034    8.5613   -2.1124 Cl        1 <0>        -0.0505
     16 Cl2         6.8210    8.1355    3.2946 Cl        1 <0>        -0.0510
     17 C13         4.6477    4.1496    0.1787 C.ar      1 <0>         0.2628
     18 N2          3.4895    3.5229    0.0897 N.ar      1 <0>        -0.5744
     19 C14         2.3421    4.1926    0.1060 C.ar      1 <0>         0.6040
     20 N3          2.2918    5.5122    0.2062 N.ar      1 <0>        -0.5918
     21 N4          1.1585    3.4870    0.0093 N.pl3     1 <0>        -0.6301
     22 C15         1.1757    2.0869    0.0133 C.ar      1 <0>         0.1475
     23 C16         2.1234    1.4060    0.7660 C.ar      1 <0>        -0.0704
     24 C17         2.1394    0.0252    0.7698 C.ar      1 <0>        -0.1181
     25 C18         1.2089   -0.6817    0.0223 C.ar      1 <0>         0.0940
     26 C19         0.2619   -0.0022   -0.7299 C.ar      1 <0>        -0.1787
     27 C20         0.2448    1.3786   -0.7351 C.ar      1 <0>        -0.1061
     28 O2          1.2247   -2.0414    0.0273 O.3       1 <0>        -0.3303
     29 C21         0.2377   -2.7046   -0.7652 C.3       1 <0>         0.0208
     30 C22         0.4120   -4.2190   -0.6345 C.3       1 <0>         0.0068
     31 H1          1.7162    8.3647    1.4546 H         1 <0>         0.0760
     32 H2          2.1823    9.2718   -0.0042 H         1 <0>         0.0942
     33 H3          1.3510    7.7055   -0.1580 H         1 <0>         0.0949
     34 H4          6.8065    5.7624    0.3799 H         1 <0>         0.1523
     35 H5          9.1939    9.6612    2.9121 H         1 <0>         0.1451
     36 H6         10.2958   10.4856    0.8735 H         1 <0>         0.1471
     37 H7          9.3333   10.0020   -1.3378 H         1 <0>         0.1451
     38 H8          5.5758    3.5975    0.1643 H         1 <0>         0.1894
     39 H9          0.3154    3.9615   -0.0615 H         1 <0>         0.4286
     40 H10         2.8449    1.9561    1.3519 H         1 <0>         0.1479
     41 H11         2.8763   -0.5046    1.3552 H         1 <0>         0.1369
     42 H12        -0.4620   -0.5533   -1.3119 H         1 <0>         0.1313
     43 H13        -0.4923    1.9074   -1.3211 H         1 <0>         0.1346
     44 H14        -0.7564   -2.4221   -0.4187 H         1 <0>         0.0872
     45 H15         0.3547   -2.4142   -1.8092 H         1 <0>         0.1089
     46 H16        -0.2820   -4.7240   -1.3065 H         1 <0>         0.1538
     47 H17         1.4344   -4.4911   -0.8966 H         1 <0>         0.1432
     48 H18        -0.7831   -4.3276    1.0384 H         1 <0>         0.4369
     49 H19         0.2451   -5.6228    0.8621 H         1 <0>         0.4420
     50 N5          0.1548   -4.6131    0.7619 N.4       1 <0>        -0.6472
     51 H20         0.8391   -4.1532    1.3739 H         1 <0>         0.4465
@<TRIPOS>BOND
     1    1    2 1
     2    1   31 1
     3    1   32 1
     4    1   33 1
     5    2    7 am
     6    2    3 1
     7    3   20 ar
     8    3    4 ar
     9    4    5 1
    10    4   17 ar
    11    5    6 2
    12    5   34 1
    13    6    7 1
    14    6    9 1
    15    7    8 2
    16    9   14 ar
    17    9   10 ar
    18   10   11 ar
    19   10   16 1
    20   11   12 ar
    21   11   35 1
    22   12   13 ar
    23   12   36 1
    24   13   14 ar
    25   13   37 1
    26   14   15 1
    27   17   18 ar
    28   17   38 1
    29   18   19 ar
    30   19   20 ar
    31   19   21 1
    32   21   22 1
    33   21   39 1
    34   22   27 ar
    35   22   23 ar
    36   23   24 ar
    37   23   40 1
    38   24   25 ar
    39   24   41 1
    40   25   26 ar
    41   25   28 1
    42   26   27 ar
    43   26   42 1
    44   27   43 1
    45   28   29 1
    46   29   30 1
    47   29   44 1
    48   29   45 1
    49   30   46 1
    50   30   47 1
    51   30   50 1
    52   48   50 1
    53   49   50 1
    54   50   51 1
@<TRIPOS>MOLECULE
ZINC03815500
   44    46     0     0     0
SMALL
USER_CHARGES

@<TRIPOS>ATOM
      1 C1          9.3251    0.8414   -1.8570 C.3       1 <0>         0.0214
      2 O1          8.0562    1.4973   -1.9001 O.3       1 <0>        -0.3086
      3 C2          7.1261    1.1019   -0.9916 C.ar      1 <0>         0.1862
      4 C3          5.8749    1.6968   -0.9786 C.ar      1 <0>        -0.2018
      5 C4          4.9216    1.2905   -0.0470 C.ar      1 <0>         0.0106
      6 C5          5.2323    0.2903    0.8722 C.ar      1 <0>        -0.1659
      7 C6          6.4836   -0.3041    0.8502 C.ar      1 <0>         0.1866
      8 C7          7.4303    0.1028   -0.0786 C.ar      1 <0>        -0.2838
      9 O2          6.7857   -1.2832    1.7430 O.3       1 <0>        -0.3057
     10 C8          8.0960   -1.8484    1.6673 C.3       1 <0>         0.0214
     11 C9          3.5818    1.9253   -0.0297 C.ar      1 <0>        -0.1413
     12 C10         2.4401    1.1422   -0.0219 C.ar      1 <0>         0.1099
     13 C11         1.1933    1.7922   -0.0051 C.ar      1 <0>        -0.2023
     14 C12        -0.0123    1.0761    0.0042 C.ar      1 <0>         0.2569
     15 N1         -1.1591    1.7154    0.0149 N.ar      1 <0>        -0.4828
     16 C13        -1.2372    3.0438    0.0284 C.ar      1 <0>         0.4374
     17 C14        -0.1068    3.8347    0.0203 C.ar      1 <0>        -0.2434
     18 C15         1.1522    3.2121    0.0031 C.ar      1 <0>         0.2382
     19 C16         3.4622    3.3327   -0.0207 C.ar      1 <0>         0.5378
     20 N2          4.6070    4.1097   -0.0286 N.pl3     1 <0>        -0.7962
     21 N3         -2.4919    3.6511    0.0454 N.am      1 <0>        -0.6402
     22 C17        -3.6060    2.8987   -0.0497 C.2       1 <0>         0.4783
     23 O3         -3.5220    1.6889   -0.0572 O.2       1 <0>        -0.3816
     24 C18        -4.9563    3.5608   -0.1468 C.3       1 <0>         0.4598
     25 F1         -5.9509    2.5809   -0.2353 F         1 <0>        -0.1401
     26 F2         -5.1741    4.3449    0.9911 F         1 <0>        -0.1599
     27 F3         -4.9974    4.3712   -1.2864 F         1 <0>        -0.1596
     28 H1          9.1878   -0.2269   -2.0243 H         1 <0>         0.0623
     29 H2          9.9721    1.2505   -2.6329 H         1 <0>         0.1112
     30 H3          9.7832    1.0003   -0.8808 H         1 <0>         0.0615
     31 H4          5.6388    2.4748   -1.6894 H         1 <0>         0.1368
     32 H5          4.4973   -0.0238    1.5984 H         1 <0>         0.1438
     33 H6          8.4065   -0.3590   -0.0906 H         1 <0>         0.1454
     34 H7          8.2054   -2.6159    2.4335 H         1 <0>         0.1117
     35 H8          8.2434   -2.2935    0.6833 H         1 <0>         0.0619
     36 H9          8.8386   -1.0667    1.8274 H         1 <0>         0.0609
     37 H10         2.5052    0.0642   -0.0289 H         1 <0>         0.1870
     38 H11         0.0025   -0.0038   -0.0018 H         1 <0>         0.2026
     39 H12        -0.1883    4.9116    0.0266 H         1 <0>         0.1684
     40 H13         5.4800    3.6870   -0.0402 H         1 <0>         0.4433
     41 H14         4.5366    5.0771   -0.0225 H         1 <0>         0.4255
     42 H15        -2.5630    4.6151    0.1258 H         1 <0>         0.4366
     43 N4          2.2802    3.9988   -0.0041 N.ar      1 <0>        -0.5591
     44 H16         2.2311    5.0243    0.0027 H         1 <0>         0.4688
@<TRIPOS>BOND
     1    1    2 1
     2    1   28 1
     3    1   29 1
     4    1   30 1
     5    2    3 1
     6    3    8 ar
     7    3    4 ar
     8    4    5 ar
     9    4   31 1
    10    5    6 ar
    11    5   11 1
    12    6    7 ar
    13    6   32 1
    14    7    8 ar
    15    7    9 1
    16    8   33 1
    17    9   10 1
    18   10   34 1
    19   10   35 1
    20   10   36 1
    21   11   19 ar
    22   11   12 ar
    23   12   13 ar
    24   12   37 1
    25   13   18 ar
    26   13   14 ar
    27   14   15 ar
    28   14   38 1
    29   15   16 ar
    30   16   17 ar
    31   16   21 1
    32   17   18 ar
    33   17   39 1
    34   18   43 ar
    35   19   20 1
    36   19   43 ar
    37   20   40 1
    38   20   41 1
    39   21   22 am
    40   21   42 1
    41   22   23 2
    42   22   24 1
    43   24   25 1
    44   24   26 1
    45   24   27 1
    46   43   44 1
@<TRIPOS>MOLECULE
ZINC03815501
   57    60     0     0     0
SMALL
USER_CHARGES

@<TRIPOS>ATOM
      1 C1          0.0001   -6.4621    2.3646 C.3       1 <0>        -0.1911
      2 C2          0.2945   -6.0773    0.9133 C.3       1 <0>        -0.0060
      3 C3          0.4120   -4.2190   -0.6345 C.3       1 <0>         0.0046
      4 C4          0.2377   -2.7046   -0.7652 C.3       1 <0>         0.0244
      5 O1          1.2247   -2.0414    0.0273 O.3       1 <0>        -0.3293
      6 C5          1.2089   -0.6817    0.0223 C.ar      1 <0>         0.0952
      7 C6          2.1394    0.0252    0.7698 C.ar      1 <0>        -0.1186
      8 C7          2.1234    1.4060    0.7661 C.ar      1 <0>        -0.0702
      9 C8          1.1757    2.0869    0.0133 C.ar      1 <0>         0.1464
     10 C9          0.2449    1.3786   -0.7351 C.ar      1 <0>        -0.1058
     11 C10         0.2619   -0.0022   -0.7299 C.ar      1 <0>        -0.1791
     12 N1          1.1585    3.4870    0.0093 N.pl3     1 <0>        -0.6299
     13 C11         2.3421    4.1926    0.1060 C.ar      1 <0>         0.6043
     14 N2          3.4897    3.5228    0.0897 N.ar      1 <0>        -0.5742
     15 C12         4.6477    4.1493    0.1791 C.ar      1 <0>         0.2630
     16 C13         4.6476    5.5480    0.2929 C.ar      1 <0>        -0.2683
     17 C14         5.8558    6.2749    0.3918 C.2       1 <0>         0.0221
     18 C15         5.8029    7.6388    0.5005 C.2       1 <0>        -0.1516
     19 C16         4.5009    8.3092    0.5118 C.2       1 <0>         0.5544
     20 O2          4.4447    9.5222    0.6078 O.2       1 <0>        -0.4938
     21 N3          3.3654    7.5912    0.4161 N.am      1 <0>        -0.5055
     22 C17         3.4087    6.2242    0.3068 C.ar      1 <0>         0.4667
     23 N4          2.2918    5.5119    0.2063 N.ar      1 <0>        -0.5920
     24 C18         2.0708    8.2769    0.4284 C.3       1 <0>         0.0688
     25 C19         7.0516    8.4292    0.6063 C.ar      1 <0>        -0.0161
     26 C20         7.5990    8.7101    1.8588 C.ar      1 <0>        -0.0058
     27 C21         8.7657    9.4437    1.9502 C.ar      1 <0>        -0.1054
     28 C22         9.3860    9.9080    0.8043 C.ar      1 <0>        -0.0846
     29 C23         8.8456    9.6374   -0.4400 C.ar      1 <0>        -0.1053
     30 C24         7.6821    8.9008   -0.5457 C.ar      1 <0>        -0.0060
     31 Cl1         7.0052    8.5629   -2.1082 Cl        1 <0>        -0.0505
     32 Cl2         6.8185    8.1341    3.2984 Cl        1 <0>        -0.0509
     33 H1          0.1173   -7.5390    2.4858 H         1 <0>         0.1073
     34 H2          0.6949   -5.9443    3.0258 H         1 <0>         0.0813
     35 H3         -1.0215   -6.1772    2.6159 H         1 <0>         0.0805
     36 H4         -0.4002   -6.5951    0.2520 H         1 <0>         0.1306
     37 H5          1.3161   -6.3622    0.6619 H         1 <0>         0.1311
     38 H6         -0.2819   -4.7240   -1.3065 H         1 <0>         0.1498
     39 H7          1.4345   -4.4911   -0.8966 H         1 <0>         0.1422
     40 H8         -0.7564   -2.4221   -0.4187 H         1 <0>         0.0864
     41 H9          0.3548   -2.4142   -1.8092 H         1 <0>         0.1092
     42 H10         2.8763   -0.5046    1.3552 H         1 <0>         0.1367
     43 H11         2.8448    1.9561    1.3519 H         1 <0>         0.1477
     44 H12        -0.4922    1.9074   -1.3211 H         1 <0>         0.1343
     45 H13        -0.4619   -0.5533   -1.3119 H         1 <0>         0.1313
     46 H14         0.3154    3.9615   -0.0615 H         1 <0>         0.4285
     47 H15         5.5758    3.5973    0.1647 H         1 <0>         0.1893
     48 H16         6.8063    5.7623    0.3820 H         1 <0>         0.1522
     49 H17         1.7155    8.3640    1.4552 H         1 <0>         0.0760
     50 H18         2.1824    9.2716   -0.0031 H         1 <0>         0.0941
     51 H19         1.3513    7.7052   -0.1578 H         1 <0>         0.0949
     52 H20         9.1927    9.6584    2.9187 H         1 <0>         0.1450
     53 H21        10.2960   10.4844    0.8814 H         1 <0>         0.1471
     54 H22         9.3344   10.0034   -1.3309 H         1 <0>         0.1451
     55 N5          0.1338   -4.6193    0.7578 N.4       1 <0>        -0.5214
     56 H23         0.7879   -4.1376    1.3858 H         1 <0>         0.4393
     57 H24        -0.8290   -4.3569    0.9997 H         1 <0>         0.4313
@<TRIPOS>BOND
     1    1    2 1
     2    1   33 1
     3    1   34 1
     4    1   35 1
     5    2   36 1
     6    2   37 1
     7    2   55 1
     8    3    4 1
     9    3   38 1
    10    3   39 1
    11    3   55 1
    12    4    5 1
    13    4   40 1
    14    4   41 1
    15    5    6 1
    16    6   11 ar
    17    6    7 ar
    18    7    8 ar
    19    7   42 1
    20    8    9 ar
    21    8   43 1
    22    9   10 ar
    23    9   12 1
    24   10   11 ar
    25   10   44 1
    26   11   45 1
    27   12   13 1
    28   12   46 1
    29   13   23 ar
    30   13   14 ar
    31   14   15 ar
    32   15   16 ar
    33   15   47 1
    34   16   22 ar
    35   16   17 1
    36   17   18 2
    37   17   48 1
    38   18   19 1
    39   18   25 1
    40   19   20 2
    41   19   21 am
    42   21   22 1
    43   21   24 1
    44   22   23 ar
    45   24   49 1
    46   24   50 1
    47   24   51 1
    48   25   30 ar
    49   25   26 ar
    50   26   27 ar
    51   26   32 1
    52   27   28 ar
    53   27   52 1
    54   28   29 ar
    55   28   53 1
    56   29   30 ar
    57   29   54 1
    58   30   31 1
    59   55   56 1
    60   55   57 1
@<TRIPOS>MOLECULE
ZINC03815502
   55    58     0     0     0
SMALL
USER_CHARGES

@<TRIPOS>ATOM
      1 C1         -6.3845    8.5249   -9.3821 C.3       1 <0>        -0.1692
      2 C2         -5.0386    7.8013   -9.4587 C.3       1 <0>         0.1247
      3 C3         -4.6437    7.6128  -10.9248 C.3       1 <0>        -0.1694
      4 N1         -4.0162    8.5982   -8.7762 N.am      1 <0>        -0.5017
      5 C4         -3.7476    9.8429   -9.2090 C.2       1 <0>         0.5416
      6 O1         -4.3630   10.2839  -10.1641 O.2       1 <0>        -0.5080
      7 C5         -2.7736   10.6513   -8.5888 C.2       1 <0>        -0.2215
      8 C6         -2.0741   10.1819   -7.5226 C.2       1 <0>         0.0036
      9 C7         -2.3603    8.8317   -7.0474 C.ar      1 <0>        -0.2785
     10 C8         -3.3465    8.0642   -7.7056 C.ar      1 <0>         0.4638
     11 N2         -3.5954    6.8365   -7.2687 N.ar      1 <0>        -0.5919
     12 C9         -2.9361    6.3492   -6.2278 C.ar      1 <0>         0.6012
     13 N3         -2.0027    7.0432   -5.5857 N.ar      1 <0>        -0.5749
     14 C10        -1.6870    8.2712   -5.9562 C.ar      1 <0>         0.2567
     15 N4         -3.2261    5.0692   -5.7976 N.pl3     1 <0>        -0.6326
     16 C11        -2.6263    4.5683   -4.6351 C.ar      1 <0>         0.1625
     17 C12        -2.3510    5.4201   -3.5735 C.ar      1 <0>        -0.0855
     18 C13        -1.7593    4.9265   -2.4278 C.ar      1 <0>        -0.1053
     19 C14        -1.4399    3.5780   -2.3369 C.ar      1 <0>         0.0669
     20 C15        -1.7104    2.7272   -3.4007 C.ar      1 <0>        -0.1383
     21 C16        -2.3073    3.2198   -4.5441 C.ar      1 <0>        -0.1202
     22 N5         -0.8402    3.0777   -1.1757 N.pl3     1 <0>        -0.4842
     23 C17        -0.5896    1.6344   -1.2924 C.3       1 <0>         0.0191
     24 C18         0.1368    1.1425   -0.0383 C.3       1 <0>         0.0020
     25 C19        -0.9319    2.8813    1.2629 C.3       1 <0>         0.0016
     26 C20        -1.6584    3.3732    0.0088 C.3       1 <0>         0.0241
     27 C21        -0.0509    0.9129    2.3653 C.3       1 <0>        -0.0408
     28 H1         -6.3013    9.4990   -9.8641 H         1 <0>         0.0832
     29 H2         -7.1452    7.9320   -9.8899 H         1 <0>         0.0756
     30 H3         -6.6658    8.6592   -8.3376 H         1 <0>         0.0540
     31 H4         -5.1218    6.8272   -8.9767 H         1 <0>         0.1114
     32 H5         -3.6848    7.0973  -10.9794 H         1 <0>         0.0543
     33 H6         -5.4044    7.0199  -11.4327 H         1 <0>         0.0756
     34 H7         -4.5605    8.5869  -11.4068 H         1 <0>         0.0831
     35 H8         -2.5826   11.6465   -8.9622 H         1 <0>         0.1622
     36 H9         -1.3252   10.7919   -7.0395 H         1 <0>         0.1541
     37 H10        -0.9274    8.8295   -5.4292 H         1 <0>         0.1875
     38 H11        -3.8452    4.5171   -6.3004 H         1 <0>         0.4277
     39 H12        -2.5994    6.4688   -3.6441 H         1 <0>         0.1433
     40 H13        -1.5453    5.5890   -1.6021 H         1 <0>         0.1308
     41 H14        -1.4579    1.6794   -3.3318 H         1 <0>         0.1303
     42 H15        -2.5217    2.5573   -5.3697 H         1 <0>         0.1323
     43 H16         0.0284    1.4423   -2.1695 H         1 <0>         0.1293
     44 H17        -1.5385    1.1075   -1.3932 H         1 <0>         0.0705
     45 H18         0.2980    0.0668   -0.1098 H         1 <0>         0.1372
     46 H19         1.0980    1.6493    0.0476 H         1 <0>         0.1403
     47 H20         0.0169    3.4082    1.3637 H         1 <0>         0.1404
     48 H21        -1.5498    3.0737    2.1400 H         1 <0>         0.1372
     49 H22        -1.8196    4.4488    0.0803 H         1 <0>         0.1278
     50 H23        -2.6195    2.8664   -0.0775 H         1 <0>         0.0685
     51 H24         0.9295    1.3714    2.4940 H         1 <0>         0.1245
     52 H25        -0.6768    1.1454    3.2269 H         1 <0>         0.1230
     53 H26         0.0619   -0.1678    2.2792 H         1 <0>         0.1228
     54 N6         -0.7056    1.4254    1.1426 N.4       1 <0>        -0.3999
     55 H27        -1.6111    0.9553    1.0271 H         1 <0>         0.4272
@<TRIPOS>BOND
     1    1    2 1
     2    1   28 1
     3    1   29 1
     4    1   30 1
     5    2    3 1
     6    2    4 1
     7    2   31 1
     8    3   32 1
     9    3   33 1
    10    3   34 1
    11    4   10 1
    12    4    5 am
    13    5    6 2
    14    5    7 1
    15    7    8 2
    16    7   35 1
    17    8    9 1
    18    8   36 1
    19    9   14 ar
    20    9   10 ar
    21   10   11 ar
    22   11   12 ar
    23   12   13 ar
    24   12   15 1
    25   13   14 ar
    26   14   37 1
    27   15   16 1
    28   15   38 1
    29   16   21 ar
    30   16   17 ar
    31   17   18 ar
    32   17   39 1
    33   18   19 ar
    34   18   40 1
    35   19   20 ar
    36   19   22 1
    37   20   21 ar
    38   20   41 1
    39   21   42 1
    40   22   26 1
    41   22   23 1
    42   23   24 1
    43   23   43 1
    44   23   44 1
    45   24   45 1
    46   24   46 1
    47   24   54 1
    48   25   26 1
    49   25   47 1
    50   25   48 1
    51   25   54 1
    52   26   49 1
    53   26   50 1
    54   27   51 1
    55   27   52 1
    56   27   53 1
    57   27   54 1
    58   54   55 1
@<TRIPOS>MOLECULE
ZINC03815503
   58    61     0     0     0
SMALL
USER_CHARGES

@<TRIPOS>ATOM
      1 C1          1.4247   14.1846   -0.8768 C.3       1 <0>        -0.0476
      2 C2          2.4374   12.3642    0.3583 C.3       1 <0>        -0.0277
      3 C3          2.8449   10.8914    0.2743 C.3       1 <0>        -0.0261
      4 C4          0.9774   10.4590   -1.2036 C.3       1 <0>        -0.0327
      5 C5          0.5699   11.9318   -1.1196 C.3       1 <0>        -0.0269
      6 C6          1.9901    8.6386    0.0315 C.3       1 <0>        -0.0027
      7 C7          0.7049    7.8085    0.0393 C.3       1 <0>        -0.1700
      8 C8          1.0590    6.3201    0.0273 C.3       1 <0>         0.1160
      9 N1         -0.1716    5.5252    0.0348 N.pl3     1 <0>        -0.7188
     10 C9         -0.1026    4.1398    0.0262 C.ar      1 <0>         0.4661
     11 C10         1.1396    3.5205    0.0106 C.ar      1 <0>        -0.2547
     12 C11         1.1973    2.1322    0.0021 C.ar      1 <0>         0.3347
     13 C12        -0.0171    1.4109    0.0098 C.ar      1 <0>        -0.1435
     14 C13         0.0021   -0.0041    0.0020 C.2       1 <0>        -0.0304
     15 C14         1.2063   -0.6534   -0.0130 C.2       1 <0>        -0.0732
     16 C15         2.4472    0.1248   -0.0206 C.2       1 <0>         0.5390
     17 O1          3.5223   -0.4478   -0.0344 O.2       1 <0>        -0.4373
     18 N2          2.4041    1.4716   -0.0130 N.am      1 <0>        -0.6171
     19 H1          3.2561    1.9951   -0.0184 H         1 <0>         0.4407
     20 C16         1.2549   -2.1342   -0.0219 C.ar      1 <0>        -0.0559
     21 C17         1.2949   -2.8412    1.1805 C.ar      1 <0>        -0.0012
     22 C18         1.3342   -4.2217    1.1653 C.ar      1 <0>        -0.0995
     23 C19         1.3456   -4.9031   -0.0385 C.ar      1 <0>        -0.0673
     24 C20         1.3118   -4.2080   -1.2340 C.ar      1 <0>        -0.0996
     25 C21         1.2665   -2.8276   -1.2327 C.ar      1 <0>        -0.0012
     26 Cl1         1.2248   -1.9572   -2.7342 Cl        1 <0>        -0.0498
     27 Cl2         1.2886   -1.9877    2.6922 Cl        1 <0>        -0.0493
     28 C22        -1.2262    2.1162    0.0310 C.ar      1 <0>         0.2331
     29 H2          2.3355   14.7740   -0.7713 H         1 <0>         0.1390
     30 H3          0.9280   14.4475   -1.8108 H         1 <0>         0.1381
     31 H4          0.7582   14.3928   -0.0397 H         1 <0>         0.1342
     32 H5          1.7575   12.5061    1.1984 H         1 <0>         0.1572
     33 H6          3.3255   12.9797    0.5013 H         1 <0>         0.1791
     34 H7          3.3182   10.5911    1.2091 H         1 <0>         0.1775
     35 H8          3.5460   10.7545   -0.5490 H         1 <0>         0.1594
     36 H9          1.6573   10.3171   -2.0437 H         1 <0>         0.1595
     37 H10         0.0892    9.8434   -1.3462 H         1 <0>         0.1714
     38 H11        -0.1312   12.0687   -0.2962 H         1 <0>         0.1564
     39 H12         0.0966   12.2321   -2.0544 H         1 <0>         0.1773
     40 H13         2.5827    8.3990    0.9144 H         1 <0>         0.1504
     41 H14         2.5654    8.4091   -0.8654 H         1 <0>         0.1484
     42 H15         0.1123    8.0481   -0.8436 H         1 <0>         0.1018
     43 H16         0.1296    8.0379    0.9363 H         1 <0>         0.1062
     44 H17         1.6516    6.0805    0.9102 H         1 <0>         0.0990
     45 H18         1.6343    6.0906   -0.8696 H         1 <0>         0.0980
     46 H19        -1.0347    5.9678    0.0458 H         1 <0>         0.4205
     47 H20         2.0459    4.1078    0.0047 H         1 <0>         0.1831
     48 H21        -0.9215   -0.5639    0.0075 H         1 <0>         0.1728
     49 H22         1.3608   -4.7703    2.0952 H         1 <0>         0.1528
     50 H23         1.3813   -5.9825   -0.0450 H         1 <0>         0.1557
     51 H24         1.3205   -4.7460   -2.1705 H         1 <0>         0.1527
     52 H25        -2.1626    1.5781    0.0412 H         1 <0>         0.2161
     53 N3          1.7826   12.7504   -0.9091 N.4       1 <0>        -0.4066
     54 H26         2.4347   12.5867   -1.6851 H         1 <0>         0.4415
     55 N4          1.6325   10.0728    0.0640 N.4       1 <0>        -0.4067
     56 H27         0.9805   10.2365    0.8401 H         1 <0>         0.4393
     57 N5         -1.2993    3.4714    0.0342 N.ar      1 <0>        -0.5455
     58 H28        -2.1984    3.9671    0.0423 H         1 <0>         0.4744
@<TRIPOS>BOND
     1    1   29 1
     2    1   30 1
     3    1   31 1
     4    1   53 1
     5    2    3 1
     6    2   32 1
     7    2   33 1
     8    2   53 1
     9    3   34 1
    10    3   35 1
    11    3   55 1
    12    4    5 1
    13    4   36 1
    14    4   37 1
    15    4   55 1
    16    5   38 1
    17    5   39 1
    18    5   53 1
    19    6    7 1
    20    6   40 1
    21    6   41 1
    22    6   55 1
    23    7    8 1
    24    7   42 1
    25    7   43 1
    26    8    9 1
    27    8   44 1
    28    8   45 1
    29    9   10 1
    30    9   46 1
    31   10   11 ar
    32   10   57 ar
    33   11   12 ar
    34   11   47 1
    35   12   18 1
    36   12   13 ar
    37   13   14 1
    38   13   28 ar
    39   14   15 2
    40   14   48 1
    41   15   16 1
    42   15   20 1
    43   16   17 2
    44   16   18 am
    45   18   19 1
    46   20   25 ar
    47   20   21 ar
    48   21   22 ar
    49   21   27 1
    50   22   23 ar
    51   22   49 1
    52   23   24 ar
    53   23   50 1
    54   24   25 ar
    55   24   51 1
    56   25   26 1
    57   28   52 1
    58   28   57 ar
    59   53   54 1
    60   55   56 1
    61   57   58 1
@<TRIPOS>MOLECULE
ZINC03815504
   37    39     0     0     0
SMALL
USER_CHARGES

@<TRIPOS>ATOM
      1 C1          4.7161    2.6672   -0.5613 C.3       1 <0>        -0.0792
      2 C2          3.2116    2.6200   -0.4896 C.2       1 <0>        -0.1831
      3 C3          2.3698    3.6620   -0.7028 C.2       1 <0>         0.0389
      4 N1          1.0910    3.2334   -0.5547 N.pl3     1 <0>        -0.5148
      5 H1          0.2957    3.7793   -0.6566 H         1 <0>         0.4174
      6 C4          1.1110    1.8936   -0.2316 C.2       1 <0>        -0.0334
      7 C5          2.4387    1.4963   -0.1913 C.2       1 <0>        -0.0596
      8 C6          2.9509    0.1127    0.1160 C.3       1 <0>        -0.0417
      9 C7          3.0672   -0.6881   -1.1825 C.3       1 <0>        -0.1463
     10 C8          3.5794   -2.0717   -0.8752 C.2       1 <0>         0.4588
     11 O1          3.8260   -2.3852    0.2653 O.co2     1 <0>        -0.6408
     12 C9         -0.0126    1.0758    0.0080 C.2       1 <0>         0.1164
     13 C10        -1.1420    1.6094    0.5988 C.2       1 <0>        -0.2363
     14 C11        -2.4575    0.9561    0.7788 C.ar      1 <0>        -0.0748
     15 C12        -2.9479   -0.3054    0.4566 C.ar      1 <0>        -0.0419
     16 C13        -4.2527   -0.6326    0.7685 C.ar      1 <0>        -0.1094
     17 C14        -5.0670    0.2904    1.4055 C.ar      1 <0>        -0.0645
     18 C15        -4.5873    1.5416    1.7351 C.ar      1 <0>        -0.1313
     19 C16        -3.2761    1.8894    1.4291 C.ar      1 <0>         0.1489
     20 N2         -2.5543    3.0573    1.6443 N.am      1 <0>        -0.6514
     21 C17        -1.2985    2.9496    1.1781 C.2       1 <0>         0.5598
     22 O2         -0.4403    3.8130    1.2269 O.2       1 <0>        -0.5135
     23 Br1        -4.9294   -2.3419    0.3254 Br        1 <0>        -0.0456
     24 H2          5.0387    2.4409   -1.5776 H         1 <0>         0.0617
     25 H3          5.0621    3.6628   -0.2835 H         1 <0>         0.0553
     26 H4          5.1358    1.9319    0.1252 H         1 <0>         0.0659
     27 H5          2.6690    4.6689   -0.9538 H         1 <0>         0.1651
     28 H6          3.9309    0.1844    0.5876 H         1 <0>         0.0759
     29 H7          2.2584   -0.3894    0.7916 H         1 <0>         0.0681
     30 H8          2.0872   -0.7599   -1.6542 H         1 <0>         0.0610
     31 H9          3.7597   -0.1861   -1.8582 H         1 <0>         0.0653
     32 H10         0.0080    0.0336   -0.2744 H         1 <0>         0.1557
     33 H11        -2.3124   -1.0239   -0.0397 H         1 <0>         0.1415
     34 H12        -6.0865    0.0278    1.6464 H         1 <0>         0.1387
     35 H13        -5.2316    2.2522    2.2313 H         1 <0>         0.1339
     36 H14        -2.9115    3.8494    2.0755 H         1 <0>         0.4157
     37 O3          3.7615   -2.9559   -1.8686 O.co2     1 <0>        -0.7765
@<TRIPOS>BOND
     1    1    2 1
     2    1   24 1
     3    1   25 1
     4    1   26 1
     5    2    7 1
     6    2    3 2
     7    3    4 1
     8    3   27 1
     9    4    5 1
    10    4    6 1
    11    6    7 2
    12    6   12 1
    13    7    8 1
    14    8    9 1
    15    8   28 1
    16    8   29 1
    17    9   10 1
    18    9   30 1
    19    9   31 1
    20   10   11 2
    21   10   37 1
    22   12   13 2
    23   12   32 1
    24   13   21 1
    25   13   14 1
    26   14   19 ar
    27   14   15 ar
    28   15   16 ar
    29   15   33 1
    30   16   17 ar
    31   16   23 1
    32   17   18 ar
    33   17   34 1
    34   18   19 ar
    35   18   35 1
    36   19   20 1
    37   20   21 am
    38   20   36 1
    39   21   22 2
@<TRIPOS>MOLECULE
ZINC03815505
   63    65     0     0     0
SMALL
USER_CHARGES

@<TRIPOS>ATOM
      1 C1        -11.3762   -4.6258   -0.8142 C.3       1 <0>        -0.1917
      2 C2         -9.8919   -4.3554   -1.0687 C.3       1 <0>        -0.0085
      3 C3         -9.1704   -5.9302    0.6231 C.3       1 <0>        -0.0137
      4 C4         -8.8283   -6.0031    2.1125 C.3       1 <0>        -0.1885
      5 C5         -7.7593   -4.0519    0.0370 C.3       1 <0>        -0.0091
      6 C6         -7.7427   -2.5223    0.0651 C.3       1 <0>        -0.1495
      7 C7         -6.2951   -2.0275    0.0432 C.3       1 <0>        -0.1153
      8 C8         -6.2785   -0.4978    0.0713 C.3       1 <0>        -0.1364
      9 C9         -4.8309   -0.0031    0.0494 C.3       1 <0>         0.1069
     10 N1         -4.8150    1.4616    0.0763 N.pl3     1 <0>        -0.7058
     11 C10        -3.6064    2.1425    0.0630 C.ar      1 <0>         0.4707
     12 C11        -2.4202    1.4227    0.0246 C.ar      1 <0>        -0.2570
     13 C12        -1.2155    2.1148    0.0068 C.ar      1 <0>         0.3267
     14 C13        -1.2529    3.5264    0.0386 C.ar      1 <0>        -0.1546
     15 C14        -0.0460    4.2651    0.0264 C.2       1 <0>        -0.0202
     16 C15         1.1454    3.5933   -0.0116 C.2       1 <0>        -0.0888
     17 C16         1.1489    2.1289   -0.0389 C.2       1 <0>         0.5414
     18 O1          2.2064    1.5252   -0.0728 O.2       1 <0>        -0.4495
     19 N2         -0.0131    1.4467   -0.0261 N.am      1 <0>        -0.5107
     20 C17         0.0038   -0.0179   -0.0537 C.3       1 <0>         0.0437
     21 C18         2.4235    4.3423   -0.0257 C.ar      1 <0>        -0.0463
     22 C19         3.0046    4.7140   -1.2387 C.ar      1 <0>        -0.0021
     23 C20         4.1936    5.4168   -1.2447 C.ar      1 <0>        -0.1011
     24 C21         4.8137    5.7430   -0.0520 C.ar      1 <0>        -0.0716
     25 C22         4.2458    5.3726    1.1538 C.ar      1 <0>        -0.1011
     26 C23         3.0545    4.6742    1.1739 C.ar      1 <0>        -0.0022
     27 Cl1         2.3438    4.2098    2.6881 Cl        1 <0>        -0.0489
     28 Cl2         2.2317    4.2992   -2.7368 Cl        1 <0>        -0.0489
     29 C24        -2.4943    4.1724    0.0773 C.ar      1 <0>         0.2318
     30 H1        -11.5029   -5.6465   -0.4533 H         1 <0>         0.0822
     31 H2        -11.7497   -3.9268   -0.0659 H         1 <0>         0.0801
     32 H3        -11.9333   -4.4967   -1.7421 H         1 <0>         0.1080
     33 H4         -9.7652   -3.3348   -1.4296 H         1 <0>         0.1263
     34 H5         -9.5184   -5.0544   -1.8170 H         1 <0>         0.1315
     35 H6        -10.1661   -6.3422    0.4584 H         1 <0>         0.1332
     36 H7         -8.4404   -6.5058    0.0540 H         1 <0>         0.1320
     37 H8         -7.7996   -5.6768    2.2654 H         1 <0>         0.0780
     38 H9         -9.5022   -5.3546    2.6723 H         1 <0>         0.0795
     39 H10        -8.9393   -7.0299    2.4610 H         1 <0>         0.1086
     40 H11        -7.3513   -4.4024   -0.9110 H         1 <0>         0.1325
     41 H12        -7.1540   -4.4370    0.8576 H         1 <0>         0.1305
     42 H13        -8.2334   -2.1702    0.9725 H         1 <0>         0.0880
     43 H14        -8.2716   -2.1371   -0.8067 H         1 <0>         0.0893
     44 H15        -5.8045   -2.3796   -0.8642 H         1 <0>         0.0827
     45 H16        -5.7663   -2.4127    0.9151 H         1 <0>         0.0822
     46 H17        -6.7691   -0.1458    0.9787 H         1 <0>         0.0820
     47 H18        -6.8073   -0.1127   -0.8005 H         1 <0>         0.0820
     48 H19        -4.3402   -0.3551   -0.8580 H         1 <0>         0.0897
     49 H20        -4.3020   -0.3882    0.9212 H         1 <0>         0.0896
     50 H21        -5.6495    1.9553    0.1034 H         1 <0>         0.4201
     51 H22        -2.4335    0.3429    0.0048 H         1 <0>         0.1840
     52 H23        -0.0650    5.3448    0.0465 H         1 <0>         0.1693
     53 H24         1.0354   -0.3689   -0.0828 H         1 <0>         0.1193
     54 H25        -0.4862   -0.4038    0.8402 H         1 <0>         0.0916
     55 H26        -0.5251   -0.3708   -0.9390 H         1 <0>         0.0914
     56 H27         4.6423    5.7086   -2.1827 H         1 <0>         0.1508
     57 H28         5.7454    6.2891   -0.0622 H         1 <0>         0.1534
     58 H29         4.7350    5.6304    2.0815 H         1 <0>         0.1508
     59 H30        -2.5387    5.2513    0.0983 H         1 <0>         0.2121
     60 N3         -9.1538   -4.5135    0.2021 N.4       1 <0>        -0.3979
     61 H31        -9.6097   -3.9452    0.9255 H         1 <0>         0.4248
     62 N4         -3.6794    3.5110    0.0900 N.ar      1 <0>        -0.5502
     63 H32        -4.5781    4.0067    0.1181 H         1 <0>         0.4731
@<TRIPOS>BOND
     1    1    2 1
     2    1   30 1
     3    1   31 1
     4    1   32 1
     5    2   33 1
     6    2   34 1
     7    2   60 1
     8    3    4 1
     9    3   35 1
    10    3   36 1
    11    3   60 1
    12    4   37 1
    13    4   38 1
    14    4   39 1
    15    5    6 1
    16    5   40 1
    17    5   41 1
    18    5   60 1
    19    6    7 1
    20    6   42 1
    21    6   43 1
    22    7    8 1
    23    7   44 1
    24    7   45 1
    25    8    9 1
    26    8   46 1
    27    8   47 1
    28    9   10 1
    29    9   48 1
    30    9   49 1
    31   10   11 1
    32   10   50 1
    33   11   12 ar
    34   11   62 ar
    35   12   13 ar
    36   12   51 1
    37   13   19 1
    38   13   14 ar
    39   14   15 1
    40   14   29 ar
    41   15   16 2
    42   15   52 1
    43   16   17 1
    44   16   21 1
    45   17   18 2
    46   17   19 am
    47   19   20 1
    48   20   53 1
    49   20   54 1
    50   20   55 1
    51   21   26 ar
    52   21   22 ar
    53   22   23 ar
    54   22   28 1
    55   23   24 ar
    56   23   56 1
    57   24   25 ar
    58   24   57 1
    59   25   26 ar
    60   25   58 1
    61   26   27 1
    62   29   59 1
    63   29   62 ar
    64   60   61 1
    65   62   63 1
@<TRIPOS>MOLECULE
ZINC03815507
   60    62     0     0     0
SMALL
USER_CHARGES

@<TRIPOS>ATOM
      1 C1         -7.1378   -6.1375    0.9277 C.3       1 <0>        -0.1922
      2 C2         -7.3510   -4.6436    1.1801 C.3       1 <0>        -0.0089
      3 C3         -9.0751   -4.4606   -0.5100 C.3       1 <0>        -0.0138
      4 C4         -9.2543   -4.1614   -1.9998 C.3       1 <0>        -0.1887
      5 C5         -7.7396   -2.5264    0.0715 C.3       1 <0>        -0.0081
      6 C6         -6.2940   -2.0264    0.0410 C.3       1 <0>        -0.1471
      7 C7         -6.2830   -0.4965    0.0604 C.3       1 <0>        -0.1337
      8 C8         -4.8374    0.0035    0.0300 C.3       1 <0>         0.1087
      9 N1         -4.8268    1.4684    0.0486 N.pl3     1 <0>        -0.7081
     10 C9         -3.6209    2.1537    0.0266 C.ar      1 <0>         0.4706
     11 C10        -2.4322    1.4381   -0.0125 C.ar      1 <0>        -0.2570
     12 C11        -1.2302    2.1346   -0.0391 C.ar      1 <0>         0.3272
     13 C12        -1.2728    3.5462   -0.0150 C.ar      1 <0>        -0.1530
     14 C13        -0.0687    4.2894   -0.0362 C.2       1 <0>        -0.0215
     15 C14         1.1250    3.6218   -0.0753 C.2       1 <0>        -0.0867
     16 C15         1.1339    2.1573   -0.0944 C.2       1 <0>         0.5409
     17 O1          2.1936    1.5574   -0.1292 O.2       1 <0>        -0.4480
     18 N2         -0.0254    1.4708   -0.0732 N.am      1 <0>        -0.5104
     19 C16        -0.0031    0.0061   -0.0926 C.3       1 <0>         0.0438
     20 C17         2.4003    4.3755   -0.0987 C.ar      1 <0>        -0.0476
     21 C18         2.9751    4.7426   -1.3161 C.ar      1 <0>        -0.0020
     22 C19         4.1614    5.4497   -1.3308 C.ar      1 <0>        -0.1009
     23 C20         4.7850    5.7850   -0.1424 C.ar      1 <0>        -0.0710
     24 C21         4.2235    5.4192    1.0676 C.ar      1 <0>        -0.1009
     25 C22         3.0348    4.7164    1.0965 C.ar      1 <0>        -0.0021
     26 Cl1         2.3320    4.2578    2.6161 Cl        1 <0>        -0.0489
     27 Cl2         2.1978    4.3165   -2.8087 Cl        1 <0>        -0.0490
     28 C23        -2.5164    4.1878    0.0251 C.ar      1 <0>         0.2324
     29 H1         -6.8379   -6.6237    1.8560 H         1 <0>         0.1087
     30 H2         -8.0662   -6.5815    0.5685 H         1 <0>         0.0826
     31 H3         -6.3573   -6.2717    0.1787 H         1 <0>         0.0806
     32 H4         -6.4226   -4.1997    1.5393 H         1 <0>         0.1266
     33 H5         -8.1315   -4.5095    1.9291 H         1 <0>         0.1320
     34 H6         -9.1504   -5.5352   -0.3436 H         1 <0>         0.1343
     35 H7         -9.8516   -3.9495    0.0591 H         1 <0>         0.1324
     36 H8         -9.2706   -3.0826   -2.1543 H         1 <0>         0.0774
     37 H9         -8.4264   -4.5962   -2.5598 H         1 <0>         0.0801
     38 H10       -10.1935   -4.5924   -2.3465 H         1 <0>         0.1093
     39 H11        -8.2002   -2.2489    1.0196 H         1 <0>         0.1338
     40 H12        -8.2975   -2.0754   -0.7492 H         1 <0>         0.1316
     41 H13        -5.8057   -2.3817   -0.8664 H         1 <0>         0.0935
     42 H14        -5.7602   -2.4047    0.9128 H         1 <0>         0.0947
     43 H15        -6.7713   -0.1412    0.9679 H         1 <0>         0.0900
     44 H16        -6.8168   -0.1182   -0.8114 H         1 <0>         0.0896
     45 H17        -4.3490   -0.3518   -0.8775 H         1 <0>         0.0907
     46 H18        -4.3036   -0.3748    0.9018 H         1 <0>         0.0908
     47 H19        -5.6631    1.9591    0.0763 H         1 <0>         0.4211
     48 H20        -2.4415    0.3582   -0.0262 H         1 <0>         0.1833
     49 H21        -0.0917    5.3690   -0.0220 H         1 <0>         0.1698
     50 H22         1.0296   -0.3411   -0.1239 H         1 <0>         0.1197
     51 H23        -0.4881   -0.3766    0.8054 H         1 <0>         0.0913
     52 H24        -0.5343   -0.3537   -0.9738 H         1 <0>         0.0911
     53 H25         4.6053    5.7380   -2.2722 H         1 <0>         0.1511
     54 H26         5.7147    6.3344   -0.1595 H         1 <0>         0.1537
     55 H27         4.7154    5.6840    1.9919 H         1 <0>         0.1511
     56 H28        -2.5648    5.2666    0.0402 H         1 <0>         0.2129
     57 N3         -7.7361   -3.9955   -0.0912 N.4       1 <0>        -0.3977
     58 H29        -7.0535   -4.2492   -0.8151 H         1 <0>         0.4254
     59 N4         -3.6989    3.5220    0.0462 N.ar      1 <0>        -0.5492
     60 H30        -4.5993    4.0146    0.0753 H         1 <0>         0.4737
@<TRIPOS>BOND
     1    1    2 1
     2    1   29 1
     3    1   30 1
     4    1   31 1
     5    2   32 1
     6    2   33 1
     7    2   57 1
     8    3    4 1
     9    3   34 1
    10    3   35 1
    11    3   57 1
    12    4   36 1
    13    4   37 1
    14    4   38 1
    15    5    6 1
    16    5   39 1
    17    5   40 1
    18    5   57 1
    19    6    7 1
    20    6   41 1
    21    6   42 1
    22    7    8 1
    23    7   43 1
    24    7   44 1
    25    8    9 1
    26    8   45 1
    27    8   46 1
    28    9   10 1
    29    9   47 1
    30   10   11 ar
    31   10   59 ar
    32   11   12 ar
    33   11   48 1
    34   12   18 1
    35   12   13 ar
    36   13   14 1
    37   13   28 ar
    38   14   15 2
    39   14   49 1
    40   15   16 1
    41   15   20 1
    42   16   17 2
    43   16   18 am
    44   18   19 1
    45   19   50 1
    46   19   51 1
    47   19   52 1
    48   20   25 ar
    49   20   21 ar
    50   21   22 ar
    51   21   27 1
    52   22   23 ar
    53   22   53 1
    54   23   24 ar
    55   23   54 1
    56   24   25 ar
    57   24   55 1
    58   25   26 1
    59   28   56 1
    60   28   59 ar
    61   57   58 1
    62   59   60 1
@<TRIPOS>MOLECULE
ZINC03815508
   69    71     0     0     0
SMALL
USER_CHARGES

@<TRIPOS>ATOM
      1 C1         -6.4337    5.8814    0.9585 C.3       1 <0>        -0.1901
      2 C2         -4.9390    5.6534    1.1926 C.3       1 <0>        -0.0100
      3 C3         -4.2857    7.2477   -0.5086 C.3       1 <0>        -0.0121
      4 C4         -3.9661    7.3299   -2.0026 C.3       1 <0>        -0.1894
      5 C5         -2.8140    5.4103    0.0578 C.3       1 <0>        -0.0022
      6 C6         -2.7543    3.8817    0.0292 C.3       1 <0>        -0.1658
      7 C7         -1.2931    3.4283    0.0313 C.3       1 <0>         0.1446
      8 N1         -1.2360    1.9646    0.0039 N.pl3     1 <0>        -0.7011
      9 C8         -0.0131    1.3208    0.0006 C.ar      1 <0>         0.5901
     10 N2          1.0959    2.0571    0.0171 N.ar      1 <0>        -0.5747
     11 C9          2.2900    1.4999    0.0094 C.ar      1 <0>         0.2674
     12 C10         2.3750    0.0973   -0.0169 C.ar      1 <0>        -0.2888
     13 C11         3.6103   -0.5712   -0.0271 C.ar      1 <0>         0.0467
     14 C12         3.5989   -1.9566   -0.0538 C.ar      1 <0>        -0.1579
     15 C13         2.3644   -2.6402   -0.0696 C.ar      1 <0>         0.4886
     16 N3          1.2184   -1.9905   -0.0595 N.ar      1 <0>        -0.4745
     17 C14         1.1727   -0.6572   -0.0340 C.ar      1 <0>         0.4306
     18 N4          0.0072    0.0017   -0.0243 N.ar      1 <0>        -0.5572
     19 N5          2.3574   -4.0273   -0.0958 N.am      1 <0>        -0.6588
     20 C15         1.1868   -4.6952   -0.1111 C.2       1 <0>         0.6933
     21 O1          0.1371   -4.0821   -0.1019 O.2       1 <0>        -0.5052
     22 N6          1.1801   -6.0427   -0.1365 N.am      1 <0>        -0.7335
     23 C16        -0.0923   -6.7686   -0.1532 C.3       1 <0>         0.1878
     24 C17        -0.8898   -6.3714   -1.3970 C.3       1 <0>        -0.1657
     25 C18         0.1797   -8.2740   -0.1810 C.3       1 <0>        -0.1566
     26 C19        -0.8956   -6.4186    1.1010 C.3       1 <0>        -0.1657
     27 C20         4.8732   -2.7145   -0.0661 C.ar      1 <0>        -0.0455
     28 C21         5.4742   -3.0543   -1.2781 C.ar      1 <0>        -0.0130
     29 C22         6.6641   -3.7558   -1.2828 C.ar      1 <0>        -0.1033
     30 C23         7.2541   -4.1305   -0.0892 C.ar      1 <0>        -0.0808
     31 C24         6.6601   -3.8016    1.1159 C.ar      1 <0>        -0.1033
     32 C25         5.4730   -3.0957    1.1341 C.ar      1 <0>        -0.0129
     33 Cl1         4.7287   -2.6843    2.6476 Cl        1 <0>        -0.0433
     34 Cl2         4.7316   -2.5912   -2.7774 Cl        1 <0>        -0.0434
     35 H1         -6.7974    5.1720    0.2152 H         1 <0>         0.0802
     36 H2         -6.9742    5.7368    1.8939 H         1 <0>         0.1064
     37 H3         -6.5943    6.8980    0.5995 H         1 <0>         0.0803
     38 H4         -4.7784    4.6368    1.5516 H         1 <0>         0.1286
     39 H5         -4.5753    6.3629    1.9359 H         1 <0>         0.1315
     40 H6         -5.2903    7.6312   -0.3303 H         1 <0>         0.1313
     41 H7         -3.5646    7.8439    0.0506 H         1 <0>         0.1319
     42 H8         -4.6290    6.6623   -2.5532 H         1 <0>         0.0794
     43 H9         -4.1110    8.3531   -2.3493 H         1 <0>         0.1064
     44 H10        -2.9308    7.0328   -2.1695 H         1 <0>         0.0803
     45 H11        -2.4032    5.7724    1.0002 H         1 <0>         0.1364
     46 H12        -2.2311    5.8122   -0.7709 H         1 <0>         0.1343
     47 H13        -3.2471    3.5157   -0.8714 H         1 <0>         0.0940
     48 H14        -3.2601    3.4819    0.9082 H         1 <0>         0.0950
     49 H15        -0.8003    3.7943    0.9319 H         1 <0>         0.0783
     50 H16        -0.7874    3.8281   -0.8477 H         1 <0>         0.0780
     51 H17        -2.0565    1.4475   -0.0118 H         1 <0>         0.4176
     52 H18         3.1829    2.1072    0.0233 H         1 <0>         0.1819
     53 H19         4.5404   -0.0224   -0.0142 H         1 <0>         0.1535
     54 H20         3.1950   -4.5165   -0.1031 H         1 <0>         0.4134
     55 H21         2.0177   -6.5318   -0.1438 H         1 <0>         0.3952
     56 H22        -0.3175   -6.6208   -2.2905 H         1 <0>         0.0534
     57 H23        -1.8365   -6.9115   -1.4094 H         1 <0>         0.0648
     58 H24        -1.0836   -5.2990   -1.3772 H         1 <0>         0.0799
     59 H25         0.7479   -8.5570    0.7051 H         1 <0>         0.0632
     60 H26        -0.7670   -8.8141   -0.1934 H         1 <0>         0.0777
     61 H27         0.7520   -8.5234   -1.0745 H         1 <0>         0.0632
     62 H28        -1.0894   -5.3461    1.1208 H         1 <0>         0.0800
     63 H29        -1.8423   -6.9587    1.0886 H         1 <0>         0.0648
     64 H30        -0.3275   -6.7016    1.9871 H         1 <0>         0.0534
     65 H31         7.1328   -4.0156   -2.2204 H         1 <0>         0.1469
     66 H32         8.1823   -4.6825   -0.0982 H         1 <0>         0.1488
     67 H33         7.1257   -4.0970    2.0445 H         1 <0>         0.1469
     68 N7         -4.2231    5.8320   -0.0881 N.4       1 <0>        -0.3971
     69 H34        -4.6726    5.2509   -0.8053 H         1 <0>         0.4257
@<TRIPOS>BOND
     1    1    2 1
     2    1   35 1
     3    1   36 1
     4    1   37 1
     5    2   38 1
     6    2   39 1
     7    2   68 1
     8    3    4 1
     9    3   40 1
    10    3   41 1
    11    3   68 1
    12    4   42 1
    13    4   43 1
    14    4   44 1
    15    5    6 1
    16    5   45 1
    17    5   46 1
    18    5   68 1
    19    6    7 1
    20    6   47 1
    21    6   48 1
    22    7    8 1
    23    7   49 1
    24    7   50 1
    25    8    9 1
    26    8   51 1
    27    9   18 ar
    28    9   10 ar
    29   10   11 ar
    30   11   12 ar
    31   11   52 1
    32   12   17 ar
    33   12   13 ar
    34   13   14 ar
    35   13   53 1
    36   14   15 ar
    37   14   27 1
    38   15   16 ar
    39   15   19 1
    40   16   17 ar
    41   17   18 ar
    42   19   20 am
    43   19   54 1
    44   20   21 2
    45   20   22 am
    46   22   23 1
    47   22   55 1
    48   23   24 1
    49   23   25 1
    50   23   26 1
    51   24   56 1
    52   24   57 1
    53   24   58 1
    54   25   59 1
    55   25   60 1
    56   25   61 1
    57   26   62 1
    58   26   63 1
    59   26   64 1
    60   27   32 ar
    61   27   28 ar
    62   28   29 ar
    63   28   34 1
    64   29   30 ar
    65   29   65 1
    66   30   31 ar
    67   30   66 1
    68   31   32 ar
    69   31   67 1
    70   32   33 1
    71   68   69 1
@<TRIPOS>MOLECULE
ZINC03815509
   63    66     0     0     0
SMALL
USER_CHARGES

@<TRIPOS>ATOM
      1 C1         -0.2742    8.9607   -1.2397 C.3       1 <0>        -0.1632
      2 C2          0.4657    8.7038    0.0746 C.3       1 <0>         0.0962
      3 N1          1.8111    8.2001   -0.2128 N.am      1 <0>        -0.5037
      4 C3          2.0195    6.8491   -0.3307 C.ar      1 <0>         0.4630
      5 C4          3.3100    6.3473   -0.6065 C.ar      1 <0>        -0.2622
      6 C5          4.3993    7.2340   -0.7641 C.2       1 <0>        -0.0004
      7 C6          4.1816    8.5806   -0.6451 C.2       1 <0>        -0.1363
      8 C7          2.8308    9.0679   -0.3585 C.2       1 <0>         0.5461
      9 O1          2.6283   10.2643   -0.2511 O.2       1 <0>        -0.4933
     10 C8          5.3027    9.5361   -0.8052 C.ar      1 <0>        -0.0396
     11 C9          5.7149   10.3187    0.2728 C.ar      1 <0>        -0.0878
     12 C10         6.7630   11.2030    0.1190 C.ar      1 <0>        -0.1182
     13 C11         7.3969   11.3223   -1.1049 C.ar      1 <0>        -0.1100
     14 C12         6.9891   10.5524   -2.1794 C.ar      1 <0>        -0.1196
     15 C13         5.9460    9.6605   -2.0363 C.ar      1 <0>        -0.1012
     16 C14         3.4806    4.9592   -0.7193 C.ar      1 <0>         0.2587
     17 N2          2.4279    4.1787   -0.5631 N.ar      1 <0>        -0.5765
     18 C15         1.2277    4.6864   -0.3043 C.ar      1 <0>         0.5987
     19 N3          1.0166    5.9891   -0.1941 N.ar      1 <0>        -0.5877
     20 N4          0.1598    3.8240   -0.1499 N.pl3     1 <0>        -0.6317
     21 C16         0.3639    2.4399   -0.2056 C.ar      1 <0>         0.1600
     22 C17         1.5479    1.8925    0.2709 C.ar      1 <0>        -0.0673
     23 C18         1.7482    0.5273    0.2160 C.ar      1 <0>        -0.1002
     24 C19         0.7672   -0.2973   -0.3150 C.ar      1 <0>         0.0580
     25 C20        -0.4159    0.2487   -0.7907 C.ar      1 <0>        -0.1972
     26 C21        -0.6177    1.6137   -0.7370 C.ar      1 <0>        -0.1031
     27 O2          0.9653   -1.6415   -0.3687 O.3       1 <0>        -0.2871
     28 C22        -0.1211   -2.4389   -0.8441 C.3       1 <0>         0.1679
     29 C23        -2.4568   -2.8449   -0.3516 C.3       1 <0>        -0.0080
     30 C24        -3.5286   -2.5692    0.7048 C.3       1 <0>        -0.1896
     31 C25        -0.7451   -3.6186    1.1762 C.3       1 <0>        -0.0062
     32 C26         0.3546   -3.0851    2.0965 C.3       1 <0>        -0.1925
     33 H1         -1.2752    9.3354   -1.0258 H         1 <0>         0.0786
     34 H2          0.2726    9.6990   -1.8261 H         1 <0>         0.0621
     35 H3         -0.3472    8.0306   -1.8033 H         1 <0>         0.0582
     36 H4         -0.0811    7.9654    0.6611 H         1 <0>         0.1001
     37 H5          0.5387    9.6338    0.6383 H         1 <0>         0.0999
     38 H6          5.3885    6.8552   -0.9748 H         1 <0>         0.1532
     39 H7          5.2176   10.2299    1.2274 H         1 <0>         0.1204
     40 H8          7.0863   11.8062    0.9544 H         1 <0>         0.1264
     41 H9          8.2138   12.0190   -1.2217 H         1 <0>         0.1253
     42 H10         7.4878   10.6499   -3.1324 H         1 <0>         0.1266
     43 H11         5.6286    9.0597   -2.8758 H         1 <0>         0.1229
     44 H12         4.4527    4.5384   -0.9299 H         1 <0>         0.1900
     45 H13        -0.7315    4.1773   -0.0029 H         1 <0>         0.4292
     46 H14         2.3099    2.5339    0.6884 H         1 <0>         0.1562
     47 H15         2.6688    0.1014    0.5868 H         1 <0>         0.1445
     48 H16        -1.1794   -0.3940   -1.2036 H         1 <0>         0.1237
     49 H17        -1.5389    2.0386   -1.1074 H         1 <0>         0.1385
     50 H18        -0.5708   -1.9590   -1.7134 H         1 <0>         0.1324
     51 H19         0.2476   -3.4256   -1.1239 H         1 <0>         0.1744
     52 H20        -2.6215   -2.1985   -1.2137 H         1 <0>         0.1282
     53 H21        -2.5137   -3.8878   -0.6634 H         1 <0>         0.1371
     54 H22        -4.5118   -2.7963    0.2928 H         1 <0>         0.1094
     55 H23        -3.3472   -3.1953    1.5784 H         1 <0>         0.0819
     56 H24        -3.4903   -1.5194    0.9959 H         1 <0>         0.0806
     57 H25        -1.6129   -3.9006    1.7725 H         1 <0>         0.1290
     58 H26        -0.3760   -4.4909    0.6367 H         1 <0>         0.1328
     59 H27         1.2055   -2.7625    1.4966 H         1 <0>         0.0922
     60 H28        -0.0284   -2.2398    2.6681 H         1 <0>         0.0759
     61 H29         0.6700   -3.8731    2.7803 H         1 <0>         0.1040
     62 N5         -1.1303   -2.5503    0.2301 N.4       1 <0>        -0.4262
     63 H30        -1.1787   -1.6582    0.7361 H         1 <0>         0.4270
@<TRIPOS>BOND
     1    1    2 1
     2    1   33 1
     3    1   34 1
     4    1   35 1
     5    2    3 1
     6    2   36 1
     7    2   37 1
     8    3    8 am
     9    3    4 1
    10    4   19 ar
    11    4    5 ar
    12    5    6 1
    13    5   16 ar
    14    6    7 2
    15    6   38 1
    16    7    8 1
    17    7   10 1
    18    8    9 2
    19   10   15 ar
    20   10   11 ar
    21   11   12 ar
    22   11   39 1
    23   12   13 ar
    24   12   40 1
    25   13   14 ar
    26   13   41 1
    27   14   15 ar
    28   14   42 1
    29   15   43 1
    30   16   17 ar
    31   16   44 1
    32   17   18 ar
    33   18   19 ar
    34   18   20 1
    35   20   21 1
    36   20   45 1
    37   21   26 ar
    38   21   22 ar
    39   22   23 ar
    40   22   46 1
    41   23   24 ar
    42   23   47 1
    43   24   25 ar
    44   24   27 1
    45   25   26 ar
    46   25   48 1
    47   26   49 1
    48   27   28 1
    49   28   50 1
    50   28   51 1
    51   28   62 1
    52   29   30 1
    53   29   52 1
    54   29   53 1
    55   29   62 1
    56   30   54 1
    57   30   55 1
    58   30   56 1
    59   31   32 1
    60   31   57 1
    61   31   58 1
    62   31   62 1
    63   32   59 1
    64   32   60 1
    65   32   61 1
    66   62   63 1
@<TRIPOS>MOLECULE
ZINC03815510
   46    48     0     0     0
SMALL
USER_CHARGES

@<TRIPOS>ATOM
      1 C1         -2.4898    4.1049    0.0362 C.3       1 <0>         0.1015
      2 N1         -1.2113    3.3897    0.0262 N.am      1 <0>        -0.7361
      3 C2         -1.1930    2.0421    0.0188 C.2       1 <0>         0.6882
      4 O1         -2.2375    1.4200    0.0204 O.2       1 <0>        -0.5110
      5 N2         -0.0168    1.3842    0.0097 N.am      1 <0>        -0.6512
      6 C3          0.0021   -0.0041    0.0020 C.ar      1 <0>         0.5002
      7 C4          1.2425   -0.6779   -0.0192 C.ar      1 <0>        -0.1131
      8 C5          1.2686   -2.0625   -0.0211 C.ar      1 <0>         0.0286
      9 C6          0.0399   -2.7461   -0.0131 C.ar      1 <0>        -0.2009
     10 C7         -0.0254   -4.1469   -0.0195 C.ar      1 <0>         0.2525
     11 C8         -2.3427   -4.0872    0.0034 C.ar      1 <0>         0.4253
     12 C9         -2.3806   -2.7070    0.0108 C.ar      1 <0>        -0.1808
     13 C10        -1.1682   -1.9990    0.0025 C.ar      1 <0>         0.2853
     14 N3         -1.1371   -0.6637    0.0094 N.ar      1 <0>        -0.4871
     15 N4         -3.5369   -4.7985    0.0115 N.pl3     1 <0>        -0.8363
     16 C11         2.5096    0.0921   -0.0332 C.ar      1 <0>         0.0096
     17 C12         2.6929    1.1182   -0.9579 C.ar      1 <0>        -0.1970
     18 C13         3.8760    1.8392   -0.9648 C.ar      1 <0>         0.1837
     19 C14         4.8816    1.5336   -0.0594 C.ar      1 <0>        -0.2862
     20 C15         4.7045    0.5089    0.8588 C.ar      1 <0>         0.1823
     21 C16         3.5219   -0.2126    0.8746 C.ar      1 <0>        -0.1679
     22 O2          5.6921    0.2126    1.7441 O.3       1 <0>        -0.3079
     23 C17         6.8847    0.9965    1.6719 C.3       1 <0>         0.0223
     24 O3          4.0536    2.8435   -1.8630 O.3       1 <0>        -0.3084
     25 C18         5.2996    3.5416   -1.8176 C.3       1 <0>         0.0222
     26 H1         -2.3052    5.1792    0.0411 H         1 <0>         0.0854
     27 H2         -3.0619    3.8387   -0.8526 H         1 <0>         0.0660
     28 H3         -3.0535    3.8290    0.9273 H         1 <0>         0.0658
     29 H4         -0.3779    3.8861    0.0250 H         1 <0>         0.4029
     30 H5          0.8166    1.8806    0.0044 H         1 <0>         0.4259
     31 H6          2.2046   -2.6010   -0.0330 H         1 <0>         0.1734
     32 H7          0.8845   -4.7285   -0.0310 H         1 <0>         0.2059
     33 H8         -3.3245   -2.1823    0.0230 H         1 <0>         0.1874
     34 H9         -3.5237   -5.7684    0.0065 H         1 <0>         0.4170
     35 H10        -4.3834   -4.3250    0.0222 H         1 <0>         0.4362
     36 H11         1.9120    1.3539   -1.6658 H         1 <0>         0.1372
     37 H12         5.8044    2.0944   -0.0695 H         1 <0>         0.1436
     38 H13         3.3848   -1.0105    1.5894 H         1 <0>         0.1406
     39 H14         6.6415    2.0449    1.8445 H         1 <0>         0.0603
     40 H15         7.5891    0.6572    2.4314 H         1 <0>         0.1096
     41 H16         7.3333    0.8854    0.6847 H         1 <0>         0.0604
     42 H17         5.4234    4.0006   -0.8367 H         1 <0>         0.0606
     43 H18         6.1153    2.8411   -1.9965 H         1 <0>         0.0605
     44 H19         5.3106    4.3157   -2.5849 H         1 <0>         0.1097
     45 N5         -1.1918   -4.8379   -0.0116 N.ar      1 <0>        -0.5375
     46 H20        -1.2140   -5.8644   -0.0166 H         1 <0>         0.4712
@<TRIPOS>BOND
     1    1    2 1
     2    1   26 1
     3    1   27 1
     4    1   28 1
     5    2    3 am
     6    2   29 1
     7    3    4 2
     8    3    5 am
     9    5    6 1
    10    5   30 1
    11    6   14 ar
    12    6    7 ar
    13    7    8 ar
    14    7   16 1
    15    8    9 ar
    16    8   31 1
    17    9   13 ar
    18    9   10 ar
    19   10   32 1
    20   10   45 ar
    21   11   12 ar
    22   11   15 1
    23   11   45 ar
    24   12   13 ar
    25   12   33 1
    26   13   14 ar
    27   15   34 1
    28   15   35 1
    29   16   21 ar
    30   16   17 ar
    31   17   18 ar
    32   17   36 1
    33   18   19 ar
    34   18   24 1
    35   19   20 ar
    36   19   37 1
    37   20   21 ar
    38   20   22 1
    39   21   38 1
    40   22   23 1
    41   23   39 1
    42   23   40 1
    43   23   41 1
    44   24   25 1
    45   25   42 1
    46   25   43 1
    47   25   44 1
    48   45   46 1
@<TRIPOS>MOLECULE
ZINC03815511
   45    47     0     0     0
SMALL
USER_CHARGES

@<TRIPOS>ATOM
      1 C1         -4.5439    1.5768   -6.0800 C.3       1 <0>        -0.1663
      2 C2         -3.1515    0.9473   -6.0019 C.3       1 <0>         0.1876
      3 C3         -2.2928    1.4637   -7.1581 C.3       1 <0>        -0.1551
      4 C4         -3.2738   -0.5748   -6.0977 C.3       1 <0>        -0.1664
      5 N1         -2.5235    1.3075   -4.7283 N.am      1 <0>        -0.7351
      6 C5         -3.1063    0.9539   -3.5657 C.2       1 <0>         0.6913
      7 O1         -4.1532    0.3359   -3.5739 O.2       1 <0>        -0.5024
      8 N2         -2.5285    1.2852   -2.3940 N.am      1 <0>        -0.6612
      9 C6         -3.1286    0.9211   -1.1971 C.ar      1 <0>         0.4794
     10 C7         -2.5101    1.2762    0.0208 C.ar      1 <0>        -0.1711
     11 C8         -3.1031    0.9095    1.2182 C.ar      1 <0>         0.0515
     12 C9         -4.3146    0.2006    1.1631 C.ar      1 <0>        -0.2970
     13 C10        -4.9896   -0.2075    2.3263 C.ar      1 <0>         0.2678
     14 N3         -6.1193   -0.8733    2.1965 N.ar      1 <0>        -0.5708
     15 C11        -6.6216   -1.1599    0.9973 C.ar      1 <0>         0.5971
     16 N4         -6.0310   -0.8020   -0.1270 N.ar      1 <0>        -0.5643
     17 C12        -4.8781   -0.1217   -0.0992 C.ar      1 <0>         0.4322
     18 N5         -4.2627    0.2514   -1.2228 N.ar      1 <0>        -0.4749
     19 N6         -7.8102   -1.8615    0.9273 N.pl3     1 <0>        -0.8098
     20 C13        -1.2334    2.0298    0.0189 C.ar      1 <0>        -0.1272
     21 C14        -1.2431    3.4254    0.0314 C.ar      1 <0>         0.1469
     22 C15        -0.0489    4.1218    0.0232 C.ar      1 <0>        -0.1637
     23 C16         1.1536    3.4387    0.0090 C.ar      1 <0>        -0.0499
     24 C17         1.1705    2.0558    0.0019 C.ar      1 <0>        -0.1637
     25 C18        -0.0162    1.3468    0.0094 C.ar      1 <0>         0.1467
     26 F1          0.0021   -0.0041    0.0020 F         1 <0>        -0.1211
     27 F2         -2.4169    4.0942    0.0456 F         1 <0>        -0.1210
     28 H1         -4.4567    2.6611   -6.0117 H         1 <0>         0.0529
     29 H2         -5.0111    1.3087   -7.0275 H         1 <0>         0.0644
     30 H3         -5.1556    1.2088   -5.2563 H         1 <0>         0.0814
     31 H4         -1.3009    1.0153   -7.1025 H         1 <0>         0.0623
     32 H5         -2.7601    1.1957   -8.1057 H         1 <0>         0.0769
     33 H6         -2.2057    2.5481   -7.0898 H         1 <0>         0.0623
     34 H7         -3.8856   -0.9427   -5.2740 H         1 <0>         0.0815
     35 H8         -3.7411   -0.8428   -7.0453 H         1 <0>         0.0644
     36 H9         -2.2819   -1.0232   -6.0421 H         1 <0>         0.0528
     37 H10        -1.6881    1.8005   -4.7218 H         1 <0>         0.3939
     38 H11        -1.6932    1.7783   -2.3875 H         1 <0>         0.4118
     39 H12        -2.6499    1.1643    2.1648 H         1 <0>         0.1527
     40 H13        -4.5915    0.0194    3.3042 H         1 <0>         0.1817
     41 H14        -8.1936   -2.0811    0.0638 H         1 <0>         0.4188
     42 H15        -8.2611   -2.1344    1.7416 H         1 <0>         0.4173
     43 H16        -0.0550    5.2018    0.0284 H         1 <0>         0.1483
     44 H17         2.0836    3.9877    0.0031 H         1 <0>         0.1487
     45 H18         2.1130    1.5286   -0.0092 H         1 <0>         0.1483
@<TRIPOS>BOND
     1    1    2 1
     2    1   28 1
     3    1   29 1
     4    1   30 1
     5    2    3 1
     6    2    4 1
     7    2    5 1
     8    3   31 1
     9    3   32 1
    10    3   33 1
    11    4   34 1
    12    4   35 1
    13    4   36 1
    14    5    6 am
    15    5   37 1
    16    6    7 2
    17    6    8 am
    18    8    9 1
    19    8   38 1
    20    9   18 ar
    21    9   10 ar
    22   10   11 ar
    23   10   20 1
    24   11   12 ar
    25   11   39 1
    26   12   17 ar
    27   12   13 ar
    28   13   14 ar
    29   13   40 1
    30   14   15 ar
    31   15   16 ar
    32   15   19 1
    33   16   17 ar
    34   17   18 ar
    35   19   41 1
    36   19   42 1
    37   20   25 ar
    38   20   21 ar
    39   21   22 ar
    40   21   27 1
    41   22   23 ar
    42   22   43 1
    43   23   24 ar
    44   23   44 1
    45   24   25 ar
    46   24   45 1
    47   25   26 1
@<TRIPOS>MOLECULE
ZINC03815512
   45    47     0     0     0
SMALL
USER_CHARGES

@<TRIPOS>ATOM
      1 C1         -1.0874    7.6778    1.3033 C.3       1 <0>        -0.1663
      2 C2         -0.3105    8.0811    0.0484 C.3       1 <0>         0.1881
      3 C3         -0.0820    9.5939    0.0542 C.3       1 <0>        -0.1554
      4 C4         -1.1122    7.6912   -1.1951 C.3       1 <0>        -0.1661
      5 N1          0.9822    7.3921    0.0319 N.am      1 <0>        -0.7352
      6 C5          1.0279    6.0451    0.0242 C.2       1 <0>         0.6923
      7 O1         -0.0037    5.4019    0.0310 O.2       1 <0>        -0.5019
      8 N2          2.2172    5.4112    0.0091 N.am      1 <0>        -0.6609
      9 C6          2.2642    4.0246    0.0012 C.ar      1 <0>         0.4857
     10 C7          3.5179    3.3769   -0.0143 C.ar      1 <0>        -0.1754
     11 C8          3.5692    1.9921   -0.0217 C.ar      1 <0>         0.0554
     12 C9          2.3537    1.2882   -0.0135 C.ar      1 <0>        -0.2961
     13 C10         2.3092   -0.1165   -0.0210 C.ar      1 <0>         0.2679
     14 N3          1.1319   -0.7081   -0.0130 N.ar      1 <0>        -0.5707
     15 C11         0.0021   -0.0041    0.0020 C.ar      1 <0>         0.5976
     16 N4         -0.0158    1.3152    0.0093 N.ar      1 <0>        -0.5646
     17 C12         1.1302    2.0077    0.0021 C.ar      1 <0>         0.4340
     18 N5          1.1375    3.3420    0.0087 N.ar      1 <0>        -0.4731
     19 N6         -1.2016   -0.6830    0.0098 N.pl3     1 <0>        -0.8098
     20 C13         4.7696    4.1713   -0.0229 C.ar      1 <0>        -0.0237
     21 C14         5.3490    4.5523   -1.2335 C.ar      1 <0>        -0.0124
     22 C15         6.5148    5.2927   -1.2356 C.ar      1 <0>        -0.0914
     23 C16         7.1089    5.6566   -0.0406 C.ar      1 <0>        -0.0775
     24 C17         6.5396    5.2821    1.1640 C.ar      1 <0>        -0.0299
     25 C18         5.3694    4.5457    1.1790 C.ar      1 <0>        -0.0120
     26 Cl1         4.6525    4.0821    2.6906 Cl        1 <0>        -0.0205
     27 Cl2         7.2920    5.7439    2.6588 Cl        1 <0>        -0.0306
     28 Cl3         4.6061    4.0959   -2.7347 Cl        1 <0>        -0.0325
     29 H1         -0.5163    7.9556    2.1891 H         1 <0>         0.0528
     30 H2         -2.0492    8.1905    1.3155 H         1 <0>         0.0640
     31 H3         -1.2502    6.6000    1.2991 H         1 <0>         0.0816
     32 H4          0.4714    9.8813   -0.8398 H         1 <0>         0.0623
     33 H5         -1.0439   10.1066    0.0665 H         1 <0>         0.0766
     34 H6          0.4891    9.8717    0.9401 H         1 <0>         0.0623
     35 H7         -1.2749    6.6134   -1.1992 H         1 <0>         0.0816
     36 H8         -2.0740    8.2038   -1.1828 H         1 <0>         0.0640
     37 H9         -0.5587    7.9785   -2.0890 H         1 <0>         0.0527
     38 H10         1.8053    7.9053    0.0265 H         1 <0>         0.3937
     39 H11         3.0403    5.9244    0.0036 H         1 <0>         0.4107
     40 H12         4.5146    1.4702   -0.0339 H         1 <0>         0.1524
     41 H13         3.2194   -0.6978   -0.0335 H         1 <0>         0.1813
     42 H14        -2.0367   -0.1897    0.0205 H         1 <0>         0.4188
     43 H15        -1.2114   -1.6530    0.0047 H         1 <0>         0.4173
     44 H16         6.9639    5.5879   -2.1724 H         1 <0>         0.1555
     45 H17         8.0206    6.2356   -0.0476 H         1 <0>         0.1570
@<TRIPOS>BOND
     1    1    2 1
     2    1   29 1
     3    1   30 1
     4    1   31 1
     5    2    3 1
     6    2    4 1
     7    2    5 1
     8    3   32 1
     9    3   33 1
    10    3   34 1
    11    4   35 1
    12    4   36 1
    13    4   37 1
    14    5    6 am
    15    5   38 1
    16    6    7 2
    17    6    8 am
    18    8    9 1
    19    8   39 1
    20    9   18 ar
    21    9   10 ar
    22   10   11 ar
    23   10   20 1
    24   11   12 ar
    25   11   40 1
    26   12   17 ar
    27   12   13 ar
    28   13   14 ar
    29   13   41 1
    30   14   15 ar
    31   15   16 ar
    32   15   19 1
    33   16   17 ar
    34   17   18 ar
    35   19   42 1
    36   19   43 1
    37   20   25 ar
    38   20   21 ar
    39   21   22 ar
    40   21   28 1
    41   22   23 ar
    42   22   44 1
    43   23   24 ar
    44   23   45 1
    45   24   25 ar
    46   24   27 1
    47   25   26 1
@<TRIPOS>MOLECULE
ZINC03815513
   67    70     0     0     0
SMALL
USER_CHARGES

@<TRIPOS>ATOM
      1 C1          0.0021   -0.0041    0.0020 C.3       1 <0>         0.0439
      2 N1         -0.0178    1.4608    0.0101 N.am      1 <0>        -0.5100
      3 C2         -1.2216    2.1269    0.0194 C.ar      1 <0>         0.3274
      4 C3         -2.4255    1.4324    0.0320 C.ar      1 <0>        -0.2567
      5 C4         -3.6131    2.1500    0.0463 C.ar      1 <0>         0.4684
      6 C5         -2.5054    4.1825    0.0466 C.ar      1 <0>         0.2318
      7 C6         -1.2621    3.5384    0.0322 C.ar      1 <0>        -0.1504
      8 C7         -0.0566    4.2794    0.0247 C.2       1 <0>        -0.0243
      9 C8          1.1365    3.6096    0.0101 C.2       1 <0>        -0.0826
     10 C9          1.1430    2.1450    0.0027 C.2       1 <0>         0.5398
     11 O1          2.2020    1.5430   -0.0099 O.2       1 <0>        -0.4454
     12 C10         2.4133    4.3610    0.0015 C.ar      1 <0>        -0.0501
     13 C11         3.0084    4.7175   -1.2093 C.ar      1 <0>        -0.0018
     14 C12         4.1956    5.4234   -1.2103 C.ar      1 <0>        -0.1003
     15 C13         4.8007    5.7666   -0.0147 C.ar      1 <0>        -0.0696
     16 C14         4.2192    5.4109    1.1890 C.ar      1 <0>        -0.1003
     17 C15         3.0290    4.7103    1.2040 C.ar      1 <0>        -0.0018
     18 Cl1         2.3008    4.2649    2.7157 Cl        1 <0>        -0.0498
     19 Cl2         2.2543    4.2815   -2.7109 Cl        1 <0>        -0.0495
     20 N2         -4.8205    1.4669    0.0541 N.pl3     1 <0>        -0.7111
     21 C16        -4.8333    0.0019    0.0468 C.3       1 <0>         0.1082
     22 C17        -6.2801   -0.4955    0.0578 C.3       1 <0>        -0.1362
     23 C18        -6.2935   -2.0254    0.0502 C.3       1 <0>        -0.1171
     24 C19        -7.7403   -2.5229    0.0612 C.3       1 <0>        -0.1519
     25 C20        -7.7536   -4.0528    0.0536 C.3       1 <0>        -0.0077
     26 C21        -9.8090   -4.1845    1.3275 C.3       1 <0>        -0.0315
     27 C22       -11.2727   -4.6277    1.2673 C.3       1 <0>        -0.0268
     28 C23       -10.6675   -6.4214   -0.2410 C.3       1 <0>        -0.0274
     29 C24        -9.2038   -5.9781   -0.1808 C.3       1 <0>        -0.0264
     30 C25       -12.7229   -6.5531    1.0329 C.3       1 <0>        -0.0471
     31 H1          1.0345   -0.3534   -0.0097 H         1 <0>         0.1202
     32 H2         -0.4983   -0.3791    0.8948 H         1 <0>         0.0908
     33 H3         -0.5153   -0.3696   -0.8850 H         1 <0>         0.0908
     34 H4         -2.4366    0.3525    0.0263 H         1 <0>         0.1828
     35 H5         -2.5521    5.2614    0.0521 H         1 <0>         0.2134
     36 H6         -0.0780    5.3592    0.0300 H         1 <0>         0.1706
     37 H7          4.6545    5.7045   -2.1467 H         1 <0>         0.1518
     38 H8          5.7314    6.3144   -0.0210 H         1 <0>         0.1546
     39 H9          4.6967    5.6818    2.1190 H         1 <0>         0.1517
     40 H10        -5.6562    1.9591    0.0644 H         1 <0>         0.4194
     41 H11        -4.3310   -0.3613   -0.8498 H         1 <0>         0.0891
     42 H12        -4.3143   -0.3703    0.9301 H         1 <0>         0.0887
     43 H13        -6.7824   -0.1322    0.9544 H         1 <0>         0.0819
     44 H14        -6.7990   -0.1232   -0.8255 H         1 <0>         0.0830
     45 H15        -5.7912   -2.3887   -0.8464 H         1 <0>         0.0862
     46 H16        -5.7745   -2.3977    0.9335 H         1 <0>         0.0850
     47 H17        -8.2426   -2.1596    0.9578 H         1 <0>         0.0899
     48 H18        -8.2592   -2.1506   -0.8221 H         1 <0>         0.0940
     49 H19        -7.2513   -4.4161   -0.8430 H         1 <0>         0.1441
     50 H20        -7.2347   -4.4251    0.9369 H         1 <0>         0.1421
     51 H21        -9.3092   -4.6914    2.1529 H         1 <0>         0.1574
     52 H22        -9.7616   -3.1063    1.4803 H         1 <0>         0.1724
     53 H23       -11.7794   -4.1004    0.4590 H         1 <0>         0.1557
     54 H24       -11.7614   -4.3982    2.2142 H         1 <0>         0.1761
     55 H25       -11.1673   -5.9145   -1.0665 H         1 <0>         0.1563
     56 H26       -10.7149   -7.4995   -0.3942 H         1 <0>         0.1775
     57 H27        -8.7151   -6.2076   -1.1277 H         1 <0>         0.1756
     58 H28        -8.6971   -6.5054    0.6274 H         1 <0>         0.1573
     59 H29       -12.7354   -7.6368    0.9165 H         1 <0>         0.1380
     60 H30       -13.1925   -6.2838    1.9790 H         1 <0>         0.1373
     61 H31       -13.2715   -6.0930    0.2110 H         1 <0>         0.1336
     62 N3         -3.6891    3.5189    0.0539 N.ar      1 <0>        -0.5493
     63 H32        -4.5890    4.0130    0.0644 H         1 <0>         0.4730
     64 N4         -9.1570   -4.5180    0.0436 N.4       1 <0>        -0.4071
     65 H33        -9.6592   -4.0470   -0.7181 H         1 <0>         0.4378
     66 N5        -11.3195   -6.0880    1.0428 N.4       1 <0>        -0.4065
     67 H34       -10.8173   -6.5591    1.8045 H         1 <0>         0.4410
@<TRIPOS>BOND
     1    1    2 1
     2    1   31 1
     3    1   32 1
     4    1   33 1
     5    2   10 am
     6    2    3 1
     7    3    7 ar
     8    3    4 ar
     9    4    5 ar
    10    4   34 1
    11    5   20 1
    12    5   62 ar
    13    6    7 ar
    14    6   35 1
    15    6   62 ar
    16    7    8 1
    17    8    9 2
    18    8   36 1
    19    9   10 1
    20    9   12 1
    21   10   11 2
    22   12   17 ar
    23   12   13 ar
    24   13   14 ar
    25   13   19 1
    26   14   15 ar
    27   14   37 1
    28   15   16 ar
    29   15   38 1
    30   16   17 ar
    31   16   39 1
    32   17   18 1
    33   20   21 1
    34   20   40 1
    35   21   22 1
    36   21   41 1
    37   21   42 1
    38   22   23 1
    39   22   43 1
    40   22   44 1
    41   23   24 1
    42   23   45 1
    43   23   46 1
    44   24   25 1
    45   24   47 1
    46   24   48 1
    47   25   49 1
    48   25   50 1
    49   25   64 1
    50   26   27 1
    51   26   51 1
    52   26   52 1
    53   26   64 1
    54   27   53 1
    55   27   54 1
    56   27   66 1
    57   28   29 1
    58   28   55 1
    59   28   56 1
    60   28   66 1
    61   29   57 1
    62   29   58 1
    63   29   64 1
    64   30   59 1
    65   30   60 1
    66   30   61 1
    67   30   66 1
    68   62   63 1
    69   64   65 1
    70   66   67 1
@<TRIPOS>MOLECULE
ZINC03815514
   71    75     0     0     0
SMALL
USER_CHARGES

@<TRIPOS>ATOM
      1 C1          5.9751    6.4973   -0.1156 C.3       1 <0>         0.0613
      2 N1          6.8914    5.8003   -1.0216 N.am      1 <0>        -0.5203
      3 C2          6.7829    4.4387   -1.1873 C.ar      1 <0>         0.2702
      4 C3          5.8150    3.7083   -0.5081 C.ar      1 <0>        -0.2796
      5 C4          5.7461    2.3368   -0.7095 C.ar      1 <0>         0.4294
      6 N2          6.5837    1.7175   -1.5349 N.ar      1 <0>        -0.5489
      7 C5          7.5164    2.3625   -2.2006 C.ar      1 <0>         0.2263
      8 C6          7.6565    3.7484   -2.0560 C.ar      1 <0>        -0.2210
      9 C7          8.6542    4.4585   -2.7649 C.2       1 <0>         0.0158
     10 C8          8.7556    5.8125   -2.5947 C.2       1 <0>        -0.1509
     11 C9          7.8300    6.4986   -1.6903 C.2       1 <0>         0.5491
     12 O1          7.9121    7.7045   -1.5384 O.2       1 <0>        -0.5019
     13 C10         9.7912    6.5803   -3.3248 C.ar      1 <0>        -0.0161
     14 C11        11.0501    6.7759   -2.7554 C.ar      1 <0>        -0.0065
     15 C12        12.0127    7.4880   -3.4437 C.ar      1 <0>        -0.1055
     16 C13        11.7277    8.0159   -4.6901 C.ar      1 <0>        -0.0851
     17 C14        10.4800    7.8305   -5.2577 C.ar      1 <0>        -0.1056
     18 C15         9.5101    7.1158   -4.5824 C.ar      1 <0>        -0.0066
     19 Cl1         7.9445    6.8847   -5.2961 Cl        1 <0>        -0.0519
     20 Cl2        11.4074    6.1204   -1.1881 Cl        1 <0>        -0.0511
     21 N3          4.7835    1.5979   -0.0364 N.pl3     1 <0>        -0.6594
     22 C16         4.7780    0.2015   -0.1343 C.ar      1 <0>         0.1467
     23 C17         3.5733   -0.4845   -0.2159 C.ar      1 <0>        -0.1112
     24 C18         3.5689   -1.8617   -0.3168 C.ar      1 <0>        -0.1840
     25 C19         4.7671   -2.5606   -0.3270 C.ar      1 <0>         0.0945
     26 C20         5.9708   -1.8766   -0.2402 C.ar      1 <0>        -0.1206
     27 C21         5.9771   -0.4990   -0.1441 C.ar      1 <0>        -0.0678
     28 O2          4.7618   -3.9172   -0.4216 O.3       1 <0>        -0.3146
     29 C22         3.4867   -4.5565   -0.5076 C.3       1 <0>         0.0619
     30 C23         3.6810   -6.0709   -0.6067 C.3       1 <0>        -0.1533
     31 C24         2.3158   -6.7553   -0.6987 C.3       1 <0>        -0.0029
     32 C25         3.1589   -8.5745   -2.0569 C.3       1 <0>        -0.0338
     33 C26         3.4064  -10.0846   -2.0822 C.3       1 <0>        -0.0260
     34 C27         1.4696  -10.4256   -0.6710 C.3       1 <0>        -0.0266
     35 C28         1.2222   -8.9154   -0.6458 C.3       1 <0>        -0.0261
     36 C29         2.3128  -12.2447   -2.0292 C.3       1 <0>        -0.0462
     37 H1          6.4044    6.5233    0.8860 H         1 <0>         0.0782
     38 H2          5.8184    7.5160   -0.4703 H         1 <0>         0.0980
     39 H3          5.0209    5.9711   -0.0884 H         1 <0>         0.0859
     40 H4          5.1284    4.1996    0.1654 H         1 <0>         0.1464
     41 H5          8.1770    1.8212   -2.8617 H         1 <0>         0.1757
     42 H6          9.3268    3.9389   -3.4311 H         1 <0>         0.1475
     43 H7         12.9889    7.6364   -3.0061 H         1 <0>         0.1450
     44 H8         12.4827    8.5755   -5.2223 H         1 <0>         0.1471
     45 H9         10.2638    8.2452   -6.2312 H         1 <0>         0.1448
     46 H10         4.1145    2.0490    0.5019 H         1 <0>         0.4222
     47 H11         2.6402    0.0592   -0.2043 H         1 <0>         0.1305
     48 H12         2.6323   -2.3951   -0.3844 H         1 <0>         0.1248
     49 H13         6.9032   -2.4215   -0.2474 H         1 <0>         0.1348
     50 H14         6.9143    0.0334   -0.0769 H         1 <0>         0.1425
     51 H15         2.9022   -4.3227    0.3823 H         1 <0>         0.0733
     52 H16         2.9600   -4.1991   -1.3924 H         1 <0>         0.0723
     53 H17         4.2655   -6.3047   -1.4965 H         1 <0>         0.0990
     54 H18         4.2077   -6.4282    0.2782 H         1 <0>         0.1031
     55 H19         1.7314   -6.5215    0.1911 H         1 <0>         0.1469
     56 H20         1.7891   -6.3980   -1.5836 H         1 <0>         0.1449
     57 H21         2.5177   -8.2970   -2.8936 H         1 <0>         0.1581
     58 H22         4.1103   -8.0487   -2.1376 H         1 <0>         0.1763
     59 H23         4.0696  -10.3582   -1.2616 H         1 <0>         0.1565
     60 H24         3.8670  -10.3619   -3.0304 H         1 <0>         0.1760
     61 H25         2.1109  -10.7030    0.1656 H         1 <0>         0.1562
     62 H26         0.5183  -10.9514   -0.5900 H         1 <0>         0.1760
     63 H27         0.7615   -8.6382    0.3024 H         1 <0>         0.1758
     64 H28         0.5589   -8.6419   -1.4664 H         1 <0>         0.1571
     65 H29         1.3425  -12.7393   -1.9839 H         1 <0>         0.1362
     66 H30         2.8006  -12.4874   -2.9733 H         1 <0>         0.1364
     67 H31         2.9337  -12.5863   -1.2011 H         1 <0>         0.1330
     68 N4          2.5191   -8.2179   -0.7732 N.4       1 <0>        -0.4051
     69 H32         3.1320   -8.5092   -0.0026 H         1 <0>         0.4393
     70 N5          2.1094  -10.7822   -1.9547 N.4       1 <0>        -0.4067
     71 H33         1.4965  -10.4909   -2.7253 H         1 <0>         0.4405
@<TRIPOS>BOND
     1    1    2 1
     2    1   37 1
     3    1   38 1
     4    1   39 1
     5    2   11 am
     6    2    3 1
     7    3    8 ar
     8    3    4 ar
     9    4    5 ar
    10    4   40 1
    11    5    6 ar
    12    5   21 1
    13    6    7 ar
    14    7    8 ar
    15    7   41 1
    16    8    9 1
    17    9   10 2
    18    9   42 1
    19   10   11 1
    20   10   13 1
    21   11   12 2
    22   13   18 ar
    23   13   14 ar
    24   14   15 ar
    25   14   20 1
    26   15   16 ar
    27   15   43 1
    28   16   17 ar
    29   16   44 1
    30   17   18 ar
    31   17   45 1
    32   18   19 1
    33   21   22 1
    34   21   46 1
    35   22   27 ar
    36   22   23 ar
    37   23   24 ar
    38   23   47 1
    39   24   25 ar
    40   24   48 1
    41   25   26 ar
    42   25   28 1
    43   26   27 ar
    44   26   49 1
    45   27   50 1
    46   28   29 1
    47   29   30 1
    48   29   51 1
    49   29   52 1
    50   30   31 1
    51   30   53 1
    52   30   54 1
    53   31   55 1
    54   31   56 1
    55   31   68 1
    56   32   33 1
    57   32   57 1
    58   32   58 1
    59   32   68 1
    60   33   59 1
    61   33   60 1
    62   33   70 1
    63   34   35 1
    64   34   61 1
    65   34   62 1
    66   34   70 1
    67   35   63 1
    68   35   64 1
    69   35   68 1
    70   36   65 1
    71   36   66 1
    72   36   67 1
    73   36   70 1
    74   68   69 1
    75   70   71 1
@<TRIPOS>MOLECULE
ZINC03815515
   47    49     0     0     0
SMALL
USER_CHARGES

@<TRIPOS>ATOM
      1 C1         -4.5603    1.9866   -6.0735 C.3       1 <0>        -0.1664
      2 C2         -3.1674    1.3577   -6.0010 C.3       1 <0>         0.1858
      3 C3         -2.3114    1.8797   -7.1567 C.3       1 <0>        -0.1586
      4 C4         -3.2890   -0.1641   -6.1033 C.3       1 <0>        -0.1664
      5 N1         -2.5370    1.7127   -4.7272 N.am      1 <0>        -0.7259
      6 C5         -3.1172    1.3536   -3.5649 C.2       1 <0>         0.6938
      7 O1         -4.1638    0.7351   -3.5736 O.2       1 <0>        -0.5049
      8 N2         -2.5372    1.6803   -2.3930 N.am      1 <0>        -0.6486
      9 C6         -3.1350    1.3103   -1.1956 C.ar      1 <0>         0.5091
     10 C7         -2.5145    1.6603    0.0234 C.ar      1 <0>        -0.1235
     11 C8         -3.1084    1.2999    1.2213 C.ar      1 <0>         0.0392
     12 C9         -4.3185    0.5855    1.1698 C.ar      1 <0>        -0.2026
     13 C10        -4.9876    0.1816    2.3341 C.ar      1 <0>         0.2543
     14 C11        -6.6724   -0.8028    1.0826 C.ar      1 <0>         0.4262
     15 C12        -6.0888   -0.4490   -0.1175 C.ar      1 <0>        -0.1817
     16 C13        -4.8796    0.2641   -0.0951 C.ar      1 <0>         0.2885
     17 N3         -4.2648    0.6353   -1.2213 N.ar      1 <0>        -0.4838
     18 N4         -7.8698   -1.5090    1.0725 N.pl3     1 <0>        -0.8359
     19 C14        -1.2380    2.4142    0.0210 C.ar      1 <0>        -0.0698
     20 C15        -1.2484    3.8091    0.0339 C.ar      1 <0>        -0.0100
     21 C16        -0.0556    4.5057    0.0263 C.ar      1 <0>        -0.1003
     22 C17         1.1473    3.8231    0.0116 C.ar      1 <0>        -0.0704
     23 C18         1.1644    2.4401    0.0040 C.ar      1 <0>        -0.1003
     24 C19        -0.0215    1.7317    0.0116 C.ar      1 <0>        -0.0098
     25 Cl1         0.0021   -0.0041    0.0020 Cl        1 <0>        -0.0400
     26 Cl2        -2.7571    4.6676    0.0523 Cl        1 <0>        -0.0400
     27 H1         -4.4737    3.0707   -6.0007 H         1 <0>         0.0552
     28 H2         -5.0294    1.7224   -7.0213 H         1 <0>         0.0691
     29 H3         -5.1701    1.6147   -5.2502 H         1 <0>         0.0786
     30 H4         -1.3191    1.4316   -7.1051 H         1 <0>         0.0647
     31 H5         -2.7805    1.6155   -8.1045 H         1 <0>         0.0812
     32 H6         -2.2248    2.9638   -7.0839 H         1 <0>         0.0647
     33 H7         -3.8988   -0.5360   -5.2799 H         1 <0>         0.0786
     34 H8         -3.7580   -0.4283   -7.0510 H         1 <0>         0.0691
     35 H9         -2.2966   -0.6121   -6.0516 H         1 <0>         0.0551
     36 H10        -1.7019    2.2062   -4.7202 H         1 <0>         0.3985
     37 H11        -1.7022    2.1738   -2.3861 H         1 <0>         0.4200
     38 H12        -2.6556    1.5594    2.1668 H         1 <0>         0.1705
     39 H13        -4.5735    0.4185    3.3030 H         1 <0>         0.2055
     40 H14        -6.5536   -0.7152   -1.0553 H         1 <0>         0.1877
     41 H15        -8.2901   -1.7632    1.9089 H         1 <0>         0.4171
     42 H16        -8.2851   -1.7476    0.2289 H         1 <0>         0.4363
     43 H17        -0.0623    5.5857    0.0321 H         1 <0>         0.1515
     44 H18         2.0771    4.3724    0.0057 H         1 <0>         0.1534
     45 H19         2.1069    1.9129   -0.0074 H         1 <0>         0.1514
     46 N5         -6.1553   -0.5070    2.3210 N.ar      1 <0>        -0.5377
     47 H20        -6.6268   -0.7916    3.1876 H         1 <0>         0.4715
@<TRIPOS>BOND
     1    1    2 1
     2    1   27 1
     3    1   28 1
     4    1   29 1
     5    2    3 1
     6    2    4 1
     7    2    5 1
     8    3   30 1
     9    3   31 1
    10    3   32 1
    11    4   33 1
    12    4   34 1
    13    4   35 1
    14    5    6 am
    15    5   36 1
    16    6    7 2
    17    6    8 am
    18    8    9 1
    19    8   37 1
    20    9   17 ar
    21    9   10 ar
    22   10   11 ar
    23   10   19 1
    24   11   12 ar
    25   11   38 1
    26   12   16 ar
    27   12   13 ar
    28   13   39 1
    29   13   46 ar
    30   14   15 ar
    31   14   18 1
    32   14   46 ar
    33   15   16 ar
    34   15   40 1
    35   16   17 ar
    36   18   41 1
    37   18   42 1
    38   19   24 ar
    39   19   20 ar
    40   20   21 ar
    41   20   26 1
    42   21   22 ar
    43   21   43 1
    44   22   23 ar
    45   22   44 1
    46   23   24 ar
    47   23   45 1
    48   24   25 1
    49   46   47 1
@<TRIPOS>MOLECULE
ZINC03815516
   41    43     0     0     0
SMALL
USER_CHARGES

@<TRIPOS>ATOM
      1 C1          0.0021   -0.0041    0.0020 C.3       1 <0>         0.0430
      2 N1         -0.0178    1.4608    0.0101 N.am      1 <0>        -0.5121
      3 C2         -1.2216    2.1268    0.0194 C.ar      1 <0>         0.3224
      4 C3         -2.4255    1.4324    0.0316 C.ar      1 <0>        -0.2544
      5 C4         -3.6131    2.1501    0.0459 C.ar      1 <0>         0.4789
      6 C5         -2.5054    4.1826    0.0471 C.ar      1 <0>         0.2270
      7 C6         -1.2620    3.5384    0.0322 C.ar      1 <0>        -0.1556
      8 C7         -0.0566    4.2793    0.0251 C.2       1 <0>        -0.0281
      9 C8          1.1365    3.6095    0.0106 C.2       1 <0>        -0.0843
     10 C9          1.1430    2.1450    0.0027 C.2       1 <0>         0.5374
     11 O1          2.2020    1.5430   -0.0103 O.2       1 <0>        -0.4541
     12 C10         2.4135    4.3609    0.0024 C.ar      1 <0>         0.0174
     13 C11         3.2664    4.2772   -1.0970 C.ar      1 <0>        -0.1548
     14 C12         4.4573    4.9849   -1.1031 C.ar      1 <0>         0.1738
     15 C13         4.8062    5.7683   -0.0126 C.ar      1 <0>        -0.2834
     16 C14         3.9625    5.8495    1.0857 C.ar      1 <0>         0.1720
     17 C15         2.7676    5.1487    1.0966 C.ar      1 <0>        -0.1675
     18 O2          4.3085    6.6178    2.1520 O.3       1 <0>        -0.3108
     19 C16         5.5545    7.3131    2.0736 C.3       1 <0>         0.0237
     20 O3          5.2868    4.9083   -2.1769 O.3       1 <0>        -0.3099
     21 C17         6.5003    5.6602   -2.1142 C.3       1 <0>         0.0237
     22 N2         -4.8203    1.4670    0.0534 N.pl3     1 <0>        -0.8202
     23 H1          1.0345   -0.3534   -0.0097 H         1 <0>         0.1178
     24 H2         -0.4983   -0.3791    0.8948 H         1 <0>         0.0930
     25 H3         -0.5153   -0.3696   -0.8850 H         1 <0>         0.0929
     26 H4         -2.4366    0.3525    0.0255 H         1 <0>         0.1869
     27 H5         -2.5521    5.2615    0.0534 H         1 <0>         0.2105
     28 H6         -0.0779    5.3591    0.0315 H         1 <0>         0.1694
     29 H7          2.9972    3.6646   -1.9447 H         1 <0>         0.1336
     30 H8          5.7370    6.3160   -0.0186 H         1 <0>         0.1409
     31 H9          2.1113    5.2124    1.9519 H         1 <0>         0.1366
     32 H10         6.3650    6.5940    1.9554 H         1 <0>         0.0588
     33 H11         5.5404    7.9885    1.2182 H         1 <0>         0.0588
     34 H12         5.7083    7.8871    2.9873 H         1 <0>         0.1075
     35 H13         7.0682    5.5109   -3.0325 H         1 <0>         0.1076
     36 H14         6.2664    6.7187   -1.9997 H         1 <0>         0.0586
     37 H15         7.0920    5.3247   -1.2625 H         1 <0>         0.0589
     38 H16        -5.6561    1.9593    0.0637 H         1 <0>         0.4229
     39 H17        -4.8288    0.4971    0.0482 H         1 <0>         0.4385
     40 N3         -3.6890    3.5191    0.0540 N.ar      1 <0>        -0.5505
     41 H18        -4.5889    4.0133    0.0646 H         1 <0>         0.4735
@<TRIPOS>BOND
     1    1    2 1
     2    1   23 1
     3    1   24 1
     4    1   25 1
     5    2   10 am
     6    2    3 1
     7    3    7 ar
     8    3    4 ar
     9    4    5 ar
    10    4   26 1
    11    5   22 1
    12    5   40 ar
    13    6    7 ar
    14    6   27 1
    15    6   40 ar
    16    7    8 1
    17    8    9 2
    18    8   28 1
    19    9   10 1
    20    9   12 1
    21   10   11 2
    22   12   17 ar
    23   12   13 ar
    24   13   14 ar
    25   13   29 1
    26   14   15 ar
    27   14   20 1
    28   15   16 ar
    29   15   30 1
    30   16   17 ar
    31   16   18 1
    32   17   31 1
    33   18   19 1
    34   19   32 1
    35   19   33 1
    36   19   34 1
    37   20   21 1
    38   21   35 1
    39   21   36 1
    40   21   37 1
    41   22   38 1
    42   22   39 1
    43   40   41 1
@<TRIPOS>MOLECULE
ZINC03815517
   64    67     0     0     0
SMALL
USER_CHARGES

@<TRIPOS>ATOM
      1 C1          2.1337   -7.2540    1.5393 C.3       1 <0>        -0.1868
      2 C2          3.3723   -6.3811    1.7516 C.3       1 <0>        -0.0155
      3 C3          4.7329   -7.9270    0.4781 C.3       1 <0>        -0.0118
      4 C4          5.7036   -8.2566    1.6138 C.3       1 <0>        -0.1882
      5 C5          3.6500   -6.0682   -0.6333 C.3       1 <0>        -0.0020
      6 C6          3.4202   -4.5578   -0.5518 C.3       1 <0>         0.0263
      7 O1          4.6804   -3.8866   -0.4932 O.3       1 <0>        -0.3289
      8 C7          4.6539   -2.5291   -0.4170 C.ar      1 <0>         0.0934
      9 C8          5.8416   -1.8150   -0.3571 C.ar      1 <0>        -0.1196
     10 C9          5.8157   -0.4365   -0.2793 C.ar      1 <0>        -0.0696
     11 C10         4.6001    0.2348   -0.2614 C.ar      1 <0>         0.1467
     12 C11         3.4114   -0.4813   -0.3161 C.ar      1 <0>        -0.1097
     13 C12         3.4393   -1.8594   -0.3987 C.ar      1 <0>        -0.1804
     14 N1          4.5729    1.6322   -0.1825 N.pl3     1 <0>        -0.6585
     15 C13         5.5130    2.3844   -0.8722 C.ar      1 <0>         0.4310
     16 C14         5.5507    3.7601   -0.6897 C.ar      1 <0>        -0.2806
     17 C15         6.4962    4.5037   -1.3853 C.ar      1 <0>         0.2701
     18 C16         7.3803    3.8224   -2.2508 C.ar      1 <0>        -0.2225
     19 C17         8.3566    4.5463   -2.9754 C.2       1 <0>         0.0183
     20 C18         8.4274    5.9043   -2.8234 C.2       1 <0>        -0.1544
     21 C19         7.4907    6.5808   -1.9233 C.2       1 <0>         0.5499
     22 O2          7.5449    7.7903   -1.7886 O.2       1 <0>        -0.5042
     23 N2          6.5733    5.8697   -1.2387 N.am      1 <0>        -0.5204
     24 C20         5.6469    6.5572   -0.3358 C.3       1 <0>         0.0617
     25 C21         9.4399    6.6863   -3.5706 C.ar      1 <0>        -0.0144
     26 C22        10.6976    6.9187   -3.0125 C.ar      1 <0>        -0.0066
     27 C23        11.6391    7.6432   -3.7170 C.ar      1 <0>        -0.1060
     28 C24        11.3334    8.1483   -4.9680 C.ar      1 <0>        -0.0860
     29 C25        10.0865    7.9268   -5.5242 C.ar      1 <0>        -0.1058
     30 C26         9.1380    7.1986   -4.8330 C.ar      1 <0>        -0.0068
     31 Cl1         7.5736    6.9218   -5.5329 Cl        1 <0>        -0.0509
     32 Cl2        11.0806    6.2923   -1.4394 Cl        1 <0>        -0.0513
     33 C27         7.2722    2.4320   -2.3758 C.ar      1 <0>         0.2277
     34 N3          6.3594    1.7741   -1.6948 N.ar      1 <0>        -0.5479
     35 H1          1.4093   -7.0550    2.3291 H         1 <0>         0.1064
     36 H2          1.6884   -7.0237    0.5714 H         1 <0>         0.0789
     37 H3          2.4210   -8.3051    1.5662 H         1 <0>         0.0826
     38 H4          3.8815   -6.6890    2.6648 H         1 <0>         0.1313
     39 H5          3.0706   -5.3373    1.8380 H         1 <0>         0.1262
     40 H6          3.8726   -8.5942    0.5302 H         1 <0>         0.1329
     41 H7          5.2365   -8.0576   -0.4797 H         1 <0>         0.1294
     42 H8          6.1185   -9.2527    1.4596 H         1 <0>         0.1064
     43 H9          6.5111   -7.5245    1.6256 H         1 <0>         0.0803
     44 H10         5.1728   -8.2275    2.5654 H         1 <0>         0.0795
     45 H11         2.6941   -6.5745   -0.7673 H         1 <0>         0.1505
     46 H12         4.3011   -6.2916   -1.4784 H         1 <0>         0.1411
     47 H13         2.8430   -4.3259    0.3433 H         1 <0>         0.0847
     48 H14         2.8723   -4.2256   -1.4336 H         1 <0>         0.1075
     49 H15         6.7869   -2.3372   -0.3710 H         1 <0>         0.1351
     50 H16         6.7405    0.1194   -0.2326 H         1 <0>         0.1426
     51 H17         2.4656    0.0398   -0.2977 H         1 <0>         0.1317
     52 H18         2.5151   -2.4163   -0.4450 H         1 <0>         0.1289
     53 H19         3.8968    2.0746    0.3542 H         1 <0>         0.4223
     54 H20         4.8571    4.2442   -0.0181 H         1 <0>         0.1463
     55 H21         9.0371    4.0337   -3.6392 H         1 <0>         0.1475
     56 H22         6.0820    6.6071    0.6623 H         1 <0>         0.0776
     57 H23         5.4636    7.5669   -0.7032 H         1 <0>         0.0974
     58 H24         4.7056    6.0091   -0.2948 H         1 <0>         0.0861
     59 H25        12.6145    7.8197   -3.2883 H         1 <0>         0.1444
     60 H26        12.0715    8.7183   -5.5126 H         1 <0>         0.1465
     61 H27         9.8541    8.3239   -6.5014 H         1 <0>         0.1445
     62 H28         7.9409    1.8977   -3.0344 H         1 <0>         0.1762
     63 N4          4.3047   -6.5187    0.6130 N.4       1 <0>        -0.3968
     64 H29         5.1308   -5.9341    0.7858 H         1 <0>         0.4357
@<TRIPOS>BOND
     1    1    2 1
     2    1   35 1
     3    1   36 1
     4    1   37 1
     5    2   38 1
     6    2   39 1
     7    2   63 1
     8    3    4 1
     9    3   40 1
    10    3   41 1
    11    3   63 1
    12    4   42 1
    13    4   43 1
    14    4   44 1
    15    5    6 1
    16    5   45 1
    17    5   46 1
    18    5   63 1
    19    6    7 1
    20    6   47 1
    21    6   48 1
    22    7    8 1
    23    8   13 ar
    24    8    9 ar
    25    9   10 ar
    26    9   49 1
    27   10   11 ar
    28   10   50 1
    29   11   12 ar
    30   11   14 1
    31   12   13 ar
    32   12   51 1
    33   13   52 1
    34   14   15 1
    35   14   53 1
    36   15   34 ar
    37   15   16 ar
    38   16   17 ar
    39   16   54 1
    40   17   23 1
    41   17   18 ar
    42   18   19 1
    43   18   33 ar
    44   19   20 2
    45   19   55 1
    46   20   21 1
    47   20   25 1
    48   21   22 2
    49   21   23 am
    50   23   24 1
    51   24   56 1
    52   24   57 1
    53   24   58 1
    54   25   30 ar
    55   25   26 ar
    56   26   27 ar
    57   26   32 1
    58   27   28 ar
    59   27   59 1
    60   28   29 ar
    61   28   60 1
    62   29   30 ar
    63   29   61 1
    64   30   31 1
    65   33   34 ar
    66   33   62 1
    67   63   64 1
@<TRIPOS>MOLECULE
ZINC03815518
   47    49     0     0     0
SMALL
USER_CHARGES

@<TRIPOS>ATOM
      1 C1         -0.0830    9.5937    0.0577 C.3       1 <0>        -0.1657
      2 C2         -0.3113    8.0808    0.0514 C.3       1 <0>         0.1323
      3 N1          0.9815    7.3919    0.0351 N.am      1 <0>        -0.7424
      4 C3          1.0273    6.0450    0.0271 C.2       1 <0>         0.6871
      5 O1         -0.0042    5.4017    0.0334 O.2       1 <0>        -0.5096
      6 N2          2.2167    5.4112    0.0120 N.am      1 <0>        -0.6624
      7 C4          2.2638    4.0247    0.0038 C.ar      1 <0>         0.4745
      8 C5          3.5175    3.3772   -0.0119 C.ar      1 <0>        -0.1641
      9 C6          3.5690    1.9924   -0.0207 C.ar      1 <0>         0.0442
     10 C7          2.3538    1.2883   -0.0135 C.ar      1 <0>        -0.2960
     11 C8          2.3093   -0.1165   -0.0211 C.ar      1 <0>         0.2665
     12 N3          1.1320   -0.7081   -0.0130 N.ar      1 <0>        -0.5712
     13 C9          0.0021   -0.0041    0.0020 C.ar      1 <0>         0.5960
     14 N4         -0.0158    1.3153    0.0093 N.ar      1 <0>        -0.5647
     15 C10         1.1301    2.0077    0.0021 C.ar      1 <0>         0.4294
     16 N5          1.1372    3.3420    0.0104 N.ar      1 <0>        -0.4773
     17 N6         -1.2015   -0.6830    0.0099 N.pl3     1 <0>        -0.8104
     18 C11         4.7693    4.1719   -0.0195 C.ar      1 <0>         0.0403
     19 C12         4.9367    5.2023   -0.9424 C.ar      1 <0>        -0.1982
     20 C13         6.1050    5.9469   -0.9427 C.ar      1 <0>         0.1772
     21 C14         7.1125    5.6599   -0.0333 C.ar      1 <0>        -0.2962
     22 C15         6.9516    4.6308    0.8829 C.ar      1 <0>         0.1768
     23 C16         5.7832    3.8863    0.8926 C.ar      1 <0>        -0.1727
     24 O2          7.9410    4.3528    1.7721 O.3       1 <0>        -0.3101
     25 C17         9.1183    5.1600    1.7060 C.3       1 <0>         0.0250
     26 O3          6.2665    6.9560   -1.8386 O.3       1 <0>        -0.3108
     27 C18         7.4983    7.6787   -1.7867 C.3       1 <0>         0.0248
     28 H1         -1.0449   10.1062    0.0699 H         1 <0>         0.0773
     29 H2          0.4879    9.8713    0.9438 H         1 <0>         0.0619
     30 H3          0.4707    9.8813   -0.8360 H         1 <0>         0.0623
     31 H4         -0.8821    7.8032   -0.8347 H         1 <0>         0.0694
     32 H5         -0.8650    7.7932    0.9452 H         1 <0>         0.0691
     33 H6          1.8046    7.9052    0.0300 H         1 <0>         0.3962
     34 H7          3.0397    5.9245    0.0070 H         1 <0>         0.4176
     35 H8          4.5146    1.4707   -0.0331 H         1 <0>         0.1558
     36 H9          3.2195   -0.6978   -0.0329 H         1 <0>         0.1820
     37 H10        -2.0366   -0.1897    0.0205 H         1 <0>         0.4187
     38 H11        -1.2112   -1.6530    0.0048 H         1 <0>         0.4171
     39 H12         4.1545    5.4233   -1.6536 H         1 <0>         0.1359
     40 H13         8.0242    6.2388   -0.0388 H         1 <0>         0.1378
     41 H14         5.6586    3.0852    1.6061 H         1 <0>         0.1387
     42 H15         8.8538    6.2032    1.8788 H         1 <0>         0.0569
     43 H16         9.8259    4.8336    2.4681 H         1 <0>         0.1047
     44 H17         9.5733    5.0590    0.7206 H         1 <0>         0.0572
     45 H18         7.4972    8.4540   -2.5528 H         1 <0>         0.1047
     46 H19         7.6086    8.1385   -0.8046 H         1 <0>         0.0573
     47 H20         8.3285    6.9947   -1.9630 H         1 <0>         0.0573
@<TRIPOS>BOND
     1    1    2 1
     2    1   28 1
     3    1   29 1
     4    1   30 1
     5    2    3 1
     6    2   31 1
     7    2   32 1
     8    3    4 am
     9    3   33 1
    10    4    5 2
    11    4    6 am
    12    6    7 1
    13    6   34 1
    14    7   16 ar
    15    7    8 ar
    16    8    9 ar
    17    8   18 1
    18    9   10 ar
    19    9   35 1
    20   10   15 ar
    21   10   11 ar
    22   11   12 ar
    23   11   36 1
    24   12   13 ar
    25   13   14 ar
    26   13   17 1
    27   14   15 ar
    28   15   16 ar
    29   17   37 1
    30   17   38 1
    31   18   23 ar
    32   18   19 ar
    33   19   20 ar
    34   19   39 1
    35   20   21 ar
    36   20   26 1
    37   21   22 ar
    38   21   40 1
    39   22   23 ar
    40   22   24 1
    41   23   41 1
    42   24   25 1
    43   25   42 1
    44   25   43 1
    45   25   44 1
    46   26   27 1
    47   27   45 1
    48   27   46 1
    49   27   47 1
@<TRIPOS>MOLECULE
ZINC03815519
   76    79     0     0     0
SMALL
USER_CHARGES

@<TRIPOS>ATOM
      1 C1         -0.9215   -6.3936   -1.2736 C.3       1 <0>        -0.1656
      2 C2         -0.1097   -6.7753   -0.0341 C.3       1 <0>         0.1876
      3 C3          0.1595   -8.2814   -0.0448 C.3       1 <0>        -0.1572
      4 C4         -0.8974   -6.4070    1.2248 C.3       1 <0>        -0.1655
      5 N1          1.1639   -6.0515   -0.0425 N.am      1 <0>        -0.7327
      6 C5          1.1731   -4.7038   -0.0353 C.2       1 <0>         0.6937
      7 O1          0.1246   -4.0888   -0.0219 O.2       1 <0>        -0.5062
      8 N2          2.3449   -4.0378   -0.0430 N.am      1 <0>        -0.6584
      9 C6          2.3544   -2.6505   -0.0357 C.ar      1 <0>         0.4903
     10 C7          3.5901   -1.9690   -0.0439 C.ar      1 <0>        -0.1542
     11 C8          3.6040   -0.5833   -0.0361 C.ar      1 <0>         0.0449
     12 C9          2.3700    0.0874   -0.0202 C.ar      1 <0>        -0.2882
     13 C10         2.2875    1.4904   -0.0119 C.ar      1 <0>         0.2661
     14 N3          1.0945    2.0497    0.0026 N.ar      1 <0>        -0.5781
     15 C11        -0.0158    1.3152    0.0093 C.ar      1 <0>         0.5872
     16 N4          0.0021   -0.0041    0.0020 N.ar      1 <0>        -0.5564
     17 C12         1.1664   -0.6651   -0.0127 C.ar      1 <0>         0.4304
     18 N5          1.2097   -1.9987   -0.0207 N.ar      1 <0>        -0.4750
     19 N6         -1.2375    1.9612    0.0185 N.pl3     1 <0>        -0.7033
     20 C13        -1.2920    3.4252    0.0267 C.3       1 <0>         0.1416
     21 C14        -2.7524    3.8812    0.0360 C.3       1 <0>        -0.1351
     22 C15        -2.8093    5.4101    0.0446 C.3       1 <0>        -0.1459
     23 C16        -4.2697    5.8661    0.0539 C.3       1 <0>        -0.0069
     24 C17        -3.7848    7.8741    1.3179 C.3       1 <0>        -0.0329
     25 C18        -3.7857    9.4033    1.2545 C.3       1 <0>        -0.0262
     26 C19        -5.6961    9.3406   -0.2304 C.3       1 <0>        -0.0267
     27 C20        -5.6951    7.8114   -0.1671 C.3       1 <0>        -0.0265
     28 C21        -5.2112   11.3486    1.0335 C.3       1 <0>        -0.0460
     29 C22         4.8629   -2.7291   -0.0612 C.ar      1 <0>        -0.0483
     30 C23         5.4489   -3.0863   -1.2756 C.ar      1 <0>        -0.0129
     31 C24         6.6375   -3.7900   -1.2849 C.ar      1 <0>        -0.1026
     32 C25         7.2411   -4.1495   -0.0935 C.ar      1 <0>        -0.0793
     33 C26         6.6621   -3.8033    1.1140 C.ar      1 <0>        -0.1027
     34 C27         5.4764   -3.0951    1.1369 C.ar      1 <0>        -0.0128
     35 Cl1         4.7510   -2.6620    2.6534 Cl        1 <0>        -0.0441
     36 Cl2         4.6890   -2.6422   -2.7720 Cl        1 <0>        -0.0438
     37 H1         -0.3603   -6.6560   -2.1704 H         1 <0>         0.0538
     38 H2         -1.8691   -6.9321   -1.2673 H         1 <0>         0.0652
     39 H3         -1.1133   -5.3206   -1.2660 H         1 <0>         0.0793
     40 H4          0.7378   -8.5534    0.8382 H         1 <0>         0.0637
     41 H5         -0.7881   -8.8200   -0.0386 H         1 <0>         0.0783
     42 H6          0.7207   -8.5438   -0.9416 H         1 <0>         0.0637
     43 H7         -1.0893   -5.3340    1.2324 H         1 <0>         0.0792
     44 H8         -1.8451   -6.9455    1.2310 H         1 <0>         0.0652
     45 H9         -0.3192   -6.6790    2.1078 H         1 <0>         0.0537
     46 H10         2.0006   -6.5422   -0.0531 H         1 <0>         0.3958
     47 H11         3.1815   -4.5285   -0.0537 H         1 <0>         0.4142
     48 H12         4.5350   -0.0360   -0.0418 H         1 <0>         0.1537
     49 H13         3.1815    2.0963   -0.0168 H         1 <0>         0.1810
     50 H14        -2.0589    1.4453    0.0195 H         1 <0>         0.4172
     51 H15        -0.7878    3.8025    0.9164 H         1 <0>         0.0694
     52 H16        -0.7961    3.8122   -0.8635 H         1 <0>         0.0705
     53 H17        -3.2565    3.5038   -0.8537 H         1 <0>         0.0864
     54 H18        -3.2482    3.4942    0.9262 H         1 <0>         0.0852
     55 H19        -2.3051    5.7875    0.9343 H         1 <0>         0.0917
     56 H20        -2.3134    5.7971   -0.8456 H         1 <0>         0.0962
     57 H21        -4.7738    5.4887   -0.8358 H         1 <0>         0.1444
     58 H22        -4.7655    5.4791    0.9441 H         1 <0>         0.1422
     59 H23        -4.4046    7.5443    2.1516 H         1 <0>         0.1570
     60 H24        -2.7647    7.5166    1.4589 H         1 <0>         0.1757
     61 H25        -3.1442    9.7338    0.4377 H         1 <0>         0.1560
     62 H26        -3.4130    9.8065    2.1961 H         1 <0>         0.1752
     63 H27        -5.0763    9.6704   -1.0642 H         1 <0>         0.1558
     64 H28        -6.7161    9.6980   -0.3719 H         1 <0>         0.1753
     65 H29        -6.0679    7.4082   -1.1087 H         1 <0>         0.1750
     66 H30        -6.3367    7.4808    0.6498 H         1 <0>         0.1563
     67 H31        -6.2461   11.6742    0.9291 H         1 <0>         0.1360
     68 H32        -4.8059   11.7220    1.9740 H         1 <0>         0.1361
     69 H33        -4.6220   11.7387    0.2036 H         1 <0>         0.1328
     70 H34         7.0945   -4.0632   -2.2245 H         1 <0>         0.1476
     71 H35         8.1683   -4.7032   -0.1061 H         1 <0>         0.1498
     72 H36         7.1384   -4.0870    2.0409 H         1 <0>         0.1476
     73 N7         -4.3084    7.3441    0.0414 N.4       1 <0>        -0.4064
     74 H37        -3.7214    7.6867   -0.7281 H         1 <0>         0.4380
     75 N8         -5.1725    9.8706    1.0460 N.4       1 <0>        -0.4066
     76 H38        -5.7595    9.5280    1.8156 H         1 <0>         0.4405
@<TRIPOS>BOND
     1    1    2 1
     2    1   37 1
     3    1   38 1
     4    1   39 1
     5    2    3 1
     6    2    4 1
     7    2    5 1
     8    3   40 1
     9    3   41 1
    10    3   42 1
    11    4   43 1
    12    4   44 1
    13    4   45 1
    14    5    6 am
    15    5   46 1
    16    6    7 2
    17    6    8 am
    18    8    9 1
    19    8   47 1
    20    9   18 ar
    21    9   10 ar
    22   10   11 ar
    23   10   29 1
    24   11   12 ar
    25   11   48 1
    26   12   17 ar
    27   12   13 ar
    28   13   14 ar
    29   13   49 1
    30   14   15 ar
    31   15   16 ar
    32   15   19 1
    33   16   17 ar
    34   17   18 ar
    35   19   20 1
    36   19   50 1
    37   20   21 1
    38   20   51 1
    39   20   52 1
    40   21   22 1
    41   21   53 1
    42   21   54 1
    43   22   23 1
    44   22   55 1
    45   22   56 1
    46   23   57 1
    47   23   58 1
    48   23   73 1
    49   24   25 1
    50   24   59 1
    51   24   60 1
    52   24   73 1
    53   25   61 1
    54   25   62 1
    55   25   75 1
    56   26   27 1
    57   26   63 1
    58   26   64 1
    59   26   75 1
    60   27   65 1
    61   27   66 1
    62   27   73 1
    63   28   67 1
    64   28   68 1
    65   28   69 1
    66   28   75 1
    67   29   34 ar
    68   29   30 ar
    69   30   31 ar
    70   30   36 1
    71   31   32 ar
    72   31   70 1
    73   32   33 ar
    74   32   71 1
    75   33   34 ar
    76   33   72 1
    77   34   35 1
    78   73   74 1
    79   75   76 1
@<TRIPOS>MOLECULE
ZINC03815520
   42    45     0     0     0
SMALL
USER_CHARGES

@<TRIPOS>ATOM
      1 C1          2.0709    8.2772    0.4276 C.3       1 <0>         0.0699
      2 N1          3.3654    7.5914    0.4148 N.am      1 <0>        -0.5058
      3 C2          3.4085    6.2243    0.3059 C.ar      1 <0>         0.4669
      4 C3          4.6476    5.5480    0.2920 C.ar      1 <0>        -0.2764
      5 C4          5.8559    6.2749    0.3904 C.2       1 <0>         0.0306
      6 C5          5.8030    7.6389    0.4978 C.2       1 <0>        -0.1636
      7 C6          4.5011    8.3093    0.5096 C.2       1 <0>         0.5568
      8 O1          4.4450    9.5224    0.6053 O.2       1 <0>        -0.5011
      9 C7          7.0517    8.4294    0.6022 C.ar      1 <0>        -0.0104
     10 C8          7.6001    8.7111    1.8540 C.ar      1 <0>        -0.0063
     11 C9          8.7666    9.4453    1.9441 C.ar      1 <0>        -0.1064
     12 C10         9.3860    9.9087    0.7974 C.ar      1 <0>        -0.0873
     13 C11         8.8450    9.6370   -0.4464 C.ar      1 <0>        -0.1063
     14 C12         7.6814    8.9002   -0.5507 C.ar      1 <0>        -0.0066
     15 Cl1         7.0034    8.5613   -2.1124 Cl        1 <0>        -0.0501
     16 Cl2         6.8210    8.1355    3.2946 Cl        1 <0>        -0.0503
     17 C13         4.6477    4.1496    0.1787 C.ar      1 <0>         0.2649
     18 N2          3.4895    3.5229    0.0897 N.ar      1 <0>        -0.5685
     19 C14         2.3421    4.1926    0.1060 C.ar      1 <0>         0.6086
     20 N3          2.2918    5.5122    0.2062 N.ar      1 <0>        -0.5960
     21 N4          1.1585    3.4870    0.0093 N.pl3     1 <0>        -0.6257
     22 C15         1.1757    2.0869    0.0133 C.ar      1 <0>         0.1472
     23 C16         2.1234    1.4060    0.7660 C.ar      1 <0>        -0.0922
     24 C17         2.1394    0.0252    0.7698 C.ar      1 <0>        -0.1249
     25 C18         1.2089   -0.6817    0.0223 C.ar      1 <0>         0.0924
     26 C19         0.2619   -0.0022   -0.7299 C.ar      1 <0>        -0.1243
     27 C20         0.2448    1.3786   -0.7351 C.ar      1 <0>        -0.1258
     28 O2          1.2247   -2.0414    0.0273 O.3       1 <0>        -0.4987
     29 H1          1.7162    8.3647    1.4546 H         1 <0>         0.0746
     30 H2          2.1823    9.2718   -0.0042 H         1 <0>         0.0923
     31 H3          1.3510    7.7055   -0.1580 H         1 <0>         0.0950
     32 H4          6.8065    5.7624    0.3799 H         1 <0>         0.1508
     33 H5          9.1939    9.6612    2.9121 H         1 <0>         0.1438
     34 H6         10.2958   10.4856    0.8735 H         1 <0>         0.1454
     35 H7          9.3333   10.0020   -1.3378 H         1 <0>         0.1438
     36 H8          5.5758    3.5975    0.1643 H         1 <0>         0.1886
     37 H9          0.3154    3.9615   -0.0615 H         1 <0>         0.4270
     38 H10         2.8449    1.9561    1.3519 H         1 <0>         0.1394
     39 H11         2.8763   -0.5046    1.3552 H         1 <0>         0.1332
     40 H12        -0.4620   -0.5533   -1.3119 H         1 <0>         0.1339
     41 H13        -0.4923    1.9074   -1.3211 H         1 <0>         0.1309
     42 H14         0.6779   -2.4386    0.7189 H         1 <0>         0.3906
@<TRIPOS>BOND
     1    1    2 1
     2    1   29 1
     3    1   30 1
     4    1   31 1
     5    2    7 am
     6    2    3 1
     7    3   20 ar
     8    3    4 ar
     9    4    5 1
    10    4   17 ar
    11    5    6 2
    12    5   32 1
    13    6    7 1
    14    6    9 1
    15    7    8 2
    16    9   14 ar
    17    9   10 ar
    18   10   11 ar
    19   10   16 1
    20   11   12 ar
    21   11   33 1
    22   12   13 ar
    23   12   34 1
    24   13   14 ar
    25   13   35 1
    26   14   15 1
    27   17   18 ar
    28   17   36 1
    29   18   19 ar
    30   19   20 ar
    31   19   21 1
    32   21   22 1
    33   21   37 1
    34   22   27 ar
    35   22   23 ar
    36   23   24 ar
    37   23   38 1
    38   24   25 ar
    39   24   39 1
    40   25   26 ar
    41   25   28 1
    42   26   27 ar
    43   26   40 1
    44   27   41 1
    45   28   42 1
@<TRIPOS>MOLECULE
ZINC03815521
   57    59     0     0     0
SMALL
USER_CHARGES

@<TRIPOS>ATOM
      1 C1         -7.0903   -2.4413   -2.2061 C.3       1 <0>        -0.1880
      2 C2         -8.1042   -2.0072   -1.1457 C.3       1 <0>        -0.0151
      3 C3         -7.6932   -3.9955    0.1735 C.3       1 <0>        -0.0121
      4 C4         -9.1352   -4.5063    0.1548 C.3       1 <0>        -0.1907
      5 C5         -6.3796   -1.9973    0.5537 C.3       1 <0>        -0.0076
      6 C6         -6.4834   -0.4872    0.7765 C.3       1 <0>        -0.1677
      7 C7         -5.1146    0.0640    1.1806 C.3       1 <0>         0.1149
      8 N1         -5.2139    1.5100    1.3938 N.pl3     1 <0>        -0.7120
      9 C8         -4.0921    2.2344    1.7695 C.ar      1 <0>         0.4698
     10 C9         -2.8823    1.5756    1.9401 C.ar      1 <0>        -0.2557
     11 C10        -1.7640    2.3116    2.3119 C.ar      1 <0>         0.3278
     12 C11        -1.9122    3.7023    2.5099 C.ar      1 <0>        -0.1499
     13 C12        -0.7965    4.4837    2.8935 C.2       1 <0>        -0.0241
     14 C13         0.4146    3.8725    3.0717 C.2       1 <0>        -0.0831
     15 C14         0.5329    2.4276    2.8630 C.2       1 <0>         0.5398
     16 O1          1.6085    1.8779    3.0201 O.2       1 <0>        -0.4450
     17 N2         -0.5437    1.7039    2.4983 N.am      1 <0>        -0.5094
     18 C15        -0.4124    0.2593    2.2926 C.3       1 <0>         0.0428
     19 C16         1.5989    4.6672    3.4727 C.ar      1 <0>        -0.0494
     20 C17         2.4284    5.2279    2.5006 C.ar      1 <0>        -0.0018
     21 C18         3.5279    5.9722    2.8812 C.ar      1 <0>        -0.1007
     22 C19         3.8135    6.1535    4.2225 C.ar      1 <0>        -0.0703
     23 C20         2.9985    5.5956    5.1910 C.ar      1 <0>        -0.1006
     24 C21         1.8930    4.8536    4.8240 C.ar      1 <0>        -0.0018
     25 Cl1         0.8718    4.1538    6.0410 Cl        1 <0>        -0.0488
     26 Cl2         2.0758    4.9955    0.8168 Cl        1 <0>        -0.0490
     27 C22        -3.1700    4.2858    2.3165 C.ar      1 <0>         0.2322
     28 H1         -7.3822   -2.0365   -3.1752 H         1 <0>         0.1089
     29 H2         -6.1021   -2.0669   -1.9387 H         1 <0>         0.0773
     30 H3         -7.0642   -3.5297   -2.2599 H         1 <0>         0.0845
     31 H4         -9.0880   -2.4012   -1.4009 H         1 <0>         0.1344
     32 H5         -8.1473   -0.9187   -1.1082 H         1 <0>         0.1260
     33 H6         -7.1660   -4.3632   -0.7068 H         1 <0>         0.1353
     34 H7         -7.1924   -4.3538    1.0729 H         1 <0>         0.1311
     35 H8         -9.6616   -4.1408    1.0365 H         1 <0>         0.0814
     36 H9         -9.6368   -4.1458   -0.7433 H         1 <0>         0.0809
     37 H10        -9.1346   -5.5963    0.1578 H         1 <0>         0.1105
     38 H11        -5.6585   -2.1991   -0.2383 H         1 <0>         0.1400
     39 H12        -6.0517   -2.4787    1.4750 H         1 <0>         0.1367
     40 H13        -7.2046   -0.2854    1.5685 H         1 <0>         0.1019
     41 H14        -6.8114   -0.0057   -0.1448 H         1 <0>         0.1015
     42 H15        -4.3934   -0.1377    0.3886 H         1 <0>         0.0967
     43 H16        -4.7866   -0.4174    2.1019 H         1 <0>         0.0974
     44 H17        -6.0641    1.9609    1.2723 H         1 <0>         0.4213
     45 H18        -2.8106    0.5095    1.7826 H         1 <0>         0.1840
     46 H19        -0.8996    5.5483    3.0433 H         1 <0>         0.1706
     47 H20         0.6183   -0.0421    2.4795 H         1 <0>         0.1206
     48 H21        -1.0752   -0.2672    2.9794 H         1 <0>         0.0921
     49 H22        -0.6826    0.0124    1.2659 H         1 <0>         0.0918
     50 H23         4.1684    6.4101    2.1300 H         1 <0>         0.1514
     51 H24         4.6768    6.7328    4.5148 H         1 <0>         0.1540
     52 H25         3.2270    5.7409    6.2366 H         1 <0>         0.1514
     53 H26        -3.2977    5.3485    2.4607 H         1 <0>         0.2138
     54 N3         -7.7131   -2.5176    0.1851 N.4       1 <0>        -0.3957
     55 H27        -8.3991   -2.1987    0.8794 H         1 <0>         0.4296
     56 N4         -4.2703    3.5816    1.9485 N.ar      1 <0>        -0.5479
     57 H28        -5.1830    4.0318    1.8122 H         1 <0>         0.4739
@<TRIPOS>BOND
     1    1    2 1
     2    1   28 1
     3    1   29 1
     4    1   30 1
     5    2   31 1
     6    2   32 1
     7    2   54 1
     8    3    4 1
     9    3   33 1
    10    3   34 1
    11    3   54 1
    12    4   35 1
    13    4   36 1
    14    4   37 1
    15    5    6 1
    16    5   38 1
    17    5   39 1
    18    5   54 1
    19    6    7 1
    20    6   40 1
    21    6   41 1
    22    7    8 1
    23    7   42 1
    24    7   43 1
    25    8    9 1
    26    8   44 1
    27    9   10 ar
    28    9   56 ar
    29   10   11 ar
    30   10   45 1
    31   11   17 1
    32   11   12 ar
    33   12   13 1
    34   12   27 ar
    35   13   14 2
    36   13   46 1
    37   14   15 1
    38   14   19 1
    39   15   16 2
    40   15   17 am
    41   17   18 1
    42   18   47 1
    43   18   48 1
    44   18   49 1
    45   19   24 ar
    46   19   20 ar
    47   20   21 ar
    48   20   26 1
    49   21   22 ar
    50   21   50 1
    51   22   23 ar
    52   22   51 1
    53   23   24 ar
    54   23   52 1
    55   24   25 1
    56   27   53 1
    57   27   56 ar
    58   54   55 1
    59   56   57 1
@<TRIPOS>MOLECULE
ZINC03815522
   41    43     0     0     0
SMALL
USER_CHARGES

@<TRIPOS>ATOM
      1 C1         -2.3088    1.8793   -7.1571 C.3       1 <0>        -0.1688
      2 C2         -3.1656    1.3580   -6.0017 C.3       1 <0>         0.1305
      3 N1         -2.5353    1.7126   -4.7276 N.am      1 <0>        -0.7328
      4 C3         -3.1162    1.3540   -3.5656 C.2       1 <0>         0.6909
      5 O1         -4.1632    0.7362   -3.5746 O.2       1 <0>        -0.5099
      6 N2         -2.5364    1.6802   -2.3935 N.am      1 <0>        -0.6481
      7 C4         -3.1348    1.3107   -1.1963 C.ar      1 <0>         0.5087
      8 C5         -2.5145    1.6603    0.0230 C.ar      1 <0>        -0.1234
      9 C6         -3.1086    1.2995    1.2207 C.ar      1 <0>         0.0399
     10 C7         -4.3190    0.5856    1.1688 C.ar      1 <0>        -0.2024
     11 C8         -4.9882    0.1814    2.3329 C.ar      1 <0>         0.2548
     12 C9         -6.6732   -0.8021    1.0808 C.ar      1 <0>         0.4265
     13 C10        -6.0896   -0.4475   -0.1191 C.ar      1 <0>        -0.1816
     14 C11        -4.8801    0.2651   -0.0963 C.ar      1 <0>         0.2883
     15 N3         -4.2654    0.6369   -1.2223 N.ar      1 <0>        -0.4850
     16 N4         -7.8706   -1.5082    1.0703 N.pl3     1 <0>        -0.8357
     17 C12        -1.2380    2.4142    0.0210 C.ar      1 <0>        -0.0700
     18 C13        -1.2484    3.8091    0.0339 C.ar      1 <0>        -0.0100
     19 C14        -0.0556    4.5057    0.0263 C.ar      1 <0>        -0.1002
     20 C15         1.1473    3.8231    0.0116 C.ar      1 <0>        -0.0703
     21 C16         1.1644    2.4401    0.0040 C.ar      1 <0>        -0.1002
     22 C17        -0.0215    1.7317    0.0116 C.ar      1 <0>        -0.0098
     23 Cl1         0.0021   -0.0041    0.0020 Cl        1 <0>        -0.0399
     24 Cl2        -2.7571    4.6676    0.0524 Cl        1 <0>        -0.0400
     25 H1         -2.2215    2.9634   -7.0843 H         1 <0>         0.0645
     26 H2         -1.3168    1.4306   -7.1051 H         1 <0>         0.0645
     27 H3         -2.7778    1.6155   -8.1050 H         1 <0>         0.0822
     28 H4         -3.2530    0.2739   -6.0745 H         1 <0>         0.0733
     29 H5         -4.1576    1.8067   -6.0536 H         1 <0>         0.0733
     30 H6         -1.6999    2.2055   -4.7204 H         1 <0>         0.4005
     31 H7         -1.7010    2.1732   -2.3862 H         1 <0>         0.4210
     32 H8         -2.6558    1.5584    2.1663 H         1 <0>         0.1710
     33 H9         -4.5743    0.4181    3.3019 H         1 <0>         0.2058
     34 H10        -6.5542   -0.7135   -1.0571 H         1 <0>         0.1879
     35 H11        -8.2909   -1.7629    1.9066 H         1 <0>         0.4172
     36 H12        -8.2859   -1.7463    0.2266 H         1 <0>         0.4364
     37 H13        -0.0623    5.5857    0.0321 H         1 <0>         0.1516
     38 H14         2.0771    4.3724    0.0057 H         1 <0>         0.1536
     39 H15         2.1069    1.9129   -0.0074 H         1 <0>         0.1516
     40 N5         -6.1560   -0.5072    2.3193 N.ar      1 <0>        -0.5375
     41 H16        -6.6275   -0.7923    3.1857 H         1 <0>         0.4716
@<TRIPOS>BOND
     1    1    2 1
     2    1   25 1
     3    1   26 1
     4    1   27 1
     5    2    3 1
     6    2   28 1
     7    2   29 1
     8    3    4 am
     9    3   30 1
    10    4    5 2
    11    4    6 am
    12    6    7 1
    13    6   31 1
    14    7   15 ar
    15    7    8 ar
    16    8    9 ar
    17    8   17 1
    18    9   10 ar
    19    9   32 1
    20   10   14 ar
    21   10   11 ar
    22   11   33 1
    23   11   40 ar
    24   12   13 ar
    25   12   16 1
    26   12   40 ar
    27   13   14 ar
    28   13   34 1
    29   14   15 ar
    30   16   35 1
    31   16   36 1
    32   17   22 ar
    33   17   18 ar
    34   18   19 ar
    35   18   24 1
    36   19   20 ar
    37   19   37 1
    38   20   21 ar
    39   20   38 1
    40   21   22 ar
    41   21   39 1
    42   22   23 1
    43   40   41 1
@<TRIPOS>MOLECULE
ZINC03815523
   45    47     0     0     0
SMALL
USER_CHARGES

@<TRIPOS>ATOM
      1 C1          3.6627    2.6212    1.2305 C.3       1 <0>        -0.1662
      2 C2          3.5816    1.7473   -0.0228 C.3       1 <0>         0.1880
      3 C3          4.7579    0.7690   -0.0392 C.3       1 <0>        -0.1555
      4 C4          3.6388    2.6346   -1.2679 C.3       1 <0>        -0.1658
      5 N1          2.3230    0.9976   -0.0148 N.am      1 <0>        -0.7351
      6 C5          1.1468    1.6555   -0.0000 C.2       1 <0>         0.6922
      7 O1          1.1303    2.8711    0.0067 O.2       1 <0>        -0.5033
      8 N2         -0.0111    0.9658    0.0074 N.am      1 <0>        -0.6596
      9 C6         -1.2219    1.6431    0.0168 C.ar      1 <0>         0.4815
     10 C7         -2.4249    0.9055    0.0185 C.ar      1 <0>        -0.1723
     11 C8         -3.6364    1.5781    0.0283 C.ar      1 <0>         0.0474
     12 C9         -3.6098    2.9824    0.0363 C.ar      1 <0>        -0.2978
     13 C10        -4.7888    3.7474    0.0470 C.ar      1 <0>         0.2667
     14 N3         -4.6856    5.0610    0.0545 N.ar      1 <0>        -0.5711
     15 C11        -3.4984    5.6634    0.0521 C.ar      1 <0>         0.5969
     16 N4         -2.3602    4.9960    0.0422 N.ar      1 <0>        -0.5645
     17 C12        -2.3609    3.6571    0.0340 C.ar      1 <0>         0.4317
     18 N5         -1.2228    2.9604    0.0294 N.ar      1 <0>        -0.4744
     19 N6         -3.4564    7.0447    0.0599 N.pl3     1 <0>        -0.8100
     20 C13        -2.3930   -0.5768    0.0093 C.ar      1 <0>        -0.0250
     21 C14        -2.8982   -1.2808   -1.0828 C.ar      1 <0>        -0.0852
     22 C15        -2.8609   -2.6602   -1.0892 C.ar      1 <0>        -0.0959
     23 C16        -2.3340   -3.3464   -0.0096 C.ar      1 <0>        -0.0933
     24 C17        -1.8358   -2.6545    1.0806 C.ar      1 <0>        -0.0287
     25 C18        -1.8626   -1.2722    1.0955 C.ar      1 <0>        -0.0368
     26 Cl1        -1.2382   -0.4045    2.4634 Cl        1 <0>        -0.0330
     27 Cl2        -1.1758   -3.5234    2.4308 Cl        1 <0>        -0.0403
     28 H1          3.6219    1.9891    2.1175 H         1 <0>         0.0527
     29 H2          4.5991    3.1790    1.2245 H         1 <0>         0.0639
     30 H3          2.8247    3.3182    1.2422 H         1 <0>         0.0815
     31 H4          4.7001    0.1464   -0.9321 H         1 <0>         0.0622
     32 H5          5.6943    1.3268   -0.0452 H         1 <0>         0.0766
     33 H6          4.7171    0.1368    0.8478 H         1 <0>         0.0625
     34 H7          2.8008    3.3316   -1.2561 H         1 <0>         0.0815
     35 H8          4.5752    3.1924   -1.2738 H         1 <0>         0.0640
     36 H9          3.5811    2.0120   -2.1607 H         1 <0>         0.0526
     37 H10         2.3361    0.0277   -0.0201 H         1 <0>         0.3939
     38 H11         0.0021   -0.0041    0.0020 H         1 <0>         0.4112
     39 H12        -4.5723    1.0391    0.0295 H         1 <0>         0.1540
     40 H13        -5.7573    3.2695    0.0487 H         1 <0>         0.1813
     41 H14        -2.6020    7.5040    0.0580 H         1 <0>         0.4188
     42 H15        -4.2813    7.5550    0.0672 H         1 <0>         0.4172
     43 H16        -3.3144   -0.7472   -1.9245 H         1 <0>         0.1438
     44 H17        -3.2482   -3.2056   -1.9371 H         1 <0>         0.1452
     45 H18        -2.3109   -4.4261   -0.0178 H         1 <0>         0.1466
@<TRIPOS>BOND
     1    1    2 1
     2    1   28 1
     3    1   29 1
     4    1   30 1
     5    2    3 1
     6    2    4 1
     7    2    5 1
     8    3   31 1
     9    3   32 1
    10    3   33 1
    11    4   34 1
    12    4   35 1
    13    4   36 1
    14    5    6 am
    15    5   37 1
    16    6    7 2
    17    6    8 am
    18    8    9 1
    19    8   38 1
    20    9   18 ar
    21    9   10 ar
    22   10   11 ar
    23   10   20 1
    24   11   12 ar
    25   11   39 1
    26   12   17 ar
    27   12   13 ar
    28   13   14 ar
    29   13   40 1
    30   14   15 ar
    31   15   16 ar
    32   15   19 1
    33   16   17 ar
    34   17   18 ar
    35   19   41 1
    36   19   42 1
    37   20   25 ar
    38   20   21 ar
    39   21   22 ar
    40   21   43 1
    41   22   23 ar
    42   22   44 1
    43   23   24 ar
    44   23   45 1
    45   24   25 ar
    46   24   27 1
    47   25   26 1
@<TRIPOS>MOLECULE
ZINC03815524
   70    72     0     0     0
SMALL
USER_CHARGES

@<TRIPOS>ATOM
      1 C1         -3.9823   -8.8881    0.9190 C.3       1 <0>        -0.1657
      2 C2         -4.6681   -8.2847   -0.3084 C.3       1 <0>         0.1873
      3 C3         -6.1041   -8.8052   -0.3976 C.3       1 <0>        -0.1558
      4 C4         -3.9010   -8.6858   -1.5700 C.3       1 <0>        -0.1656
      5 N1         -4.6844   -6.8246   -0.1903 N.am      1 <0>        -0.7373
      6 C5         -3.5253   -6.1431   -0.0971 C.2       1 <0>         0.6960
      7 O1         -2.4663   -6.7401   -0.1110 O.2       1 <0>        -0.5194
      8 N2         -3.5402   -4.7998    0.0116 N.am      1 <0>        -0.6704
      9 C6         -2.3428   -4.0864    0.0009 C.ar      1 <0>         0.3929
     10 C7         -2.3811   -2.7069    0.0062 C.ar      1 <0>        -0.2046
     11 C8         -1.1687   -1.9985   -0.0041 C.ar      1 <0>         0.2264
     12 C9          0.0395   -2.7455   -0.0200 C.ar      1 <0>        -0.2205
     13 C10         1.2683   -2.0617   -0.0301 C.ar      1 <0>         0.0235
     14 C11         1.2420   -0.6773   -0.0294 C.ar      1 <0>        -0.1494
     15 C12         0.0013   -0.0036   -0.0081 C.ar      1 <0>         0.4473
     16 N3         -1.1377   -0.6633    0.0012 N.ar      1 <0>        -0.4753
     17 N4         -0.0177    1.3847   -0.0025 N.am      1 <0>        -0.6659
     18 C13        -1.1940    2.0425    0.0067 C.2       1 <0>         0.6942
     19 O2         -2.2384    1.4202    0.0100 O.2       1 <0>        -0.5143
     20 N5         -1.2125    3.3901    0.0121 N.am      1 <0>        -0.7361
     21 C14        -2.4911    4.1051    0.0220 C.3       1 <0>         0.1877
     22 C15        -3.2813    3.7196    1.2742 C.3       1 <0>        -0.1657
     23 C16        -2.2322    5.6130    0.0265 C.3       1 <0>        -0.1559
     24 C17        -3.2952    3.7294   -1.2242 C.3       1 <0>        -0.1658
     25 C18         2.5089    0.0929   -0.0456 C.ar      1 <0>         0.0381
     26 C19         2.6913    1.1176   -0.9721 C.ar      1 <0>        -0.1971
     27 C20         3.8744    1.8385   -0.9813 C.ar      1 <0>         0.1765
     28 C21         4.8810    1.5341   -0.0766 C.ar      1 <0>        -0.2962
     29 C22         4.7048    0.5110    0.8435 C.ar      1 <0>         0.1766
     30 C23         3.5220   -0.2103    0.8617 C.ar      1 <0>        -0.1725
     31 O3          5.6932    0.2163    1.7284 O.3       1 <0>        -0.3100
     32 C24         6.8858    0.9999    1.6536 C.3       1 <0>         0.0250
     33 O4          4.0511    2.8415   -1.8812 O.3       1 <0>        -0.3110
     34 C25         5.2973    3.5395   -1.8383 C.3       1 <0>         0.0249
     35 C26        -0.0259   -4.1460   -0.0248 C.ar      1 <0>         0.2050
     36 N6         -1.1910   -4.7519   -0.0141 N.ar      1 <0>        -0.4765
     37 H1         -4.5287   -8.6023    1.8177 H         1 <0>         0.0524
     38 H2         -3.9702   -9.9745    0.8311 H         1 <0>         0.0633
     39 H3         -2.9592   -8.5173    0.9825 H         1 <0>         0.0814
     40 H4         -6.5927   -8.3753   -1.2720 H         1 <0>         0.0621
     41 H5         -6.0920   -9.8916   -0.4854 H         1 <0>         0.0760
     42 H6         -6.6506   -8.5194    0.5012 H         1 <0>         0.0621
     43 H7         -2.8780   -8.3151   -1.5065 H         1 <0>         0.0813
     44 H8         -3.8890   -9.7722   -1.6579 H         1 <0>         0.0632
     45 H9         -4.3897   -8.2560   -2.4444 H         1 <0>         0.0523
     46 H10        -5.5293   -6.3483   -0.1792 H         1 <0>         0.3946
     47 H11        -4.3843   -4.3295    0.0972 H         1 <0>         0.4143
     48 H12        -3.3251   -2.1823    0.0181 H         1 <0>         0.1466
     49 H13         2.2044   -2.6002   -0.0423 H         1 <0>         0.1536
     50 H14         0.8156    1.8812   -0.0092 H         1 <0>         0.4154
     51 H15        -0.3792    3.8866    0.0094 H         1 <0>         0.3945
     52 H16        -2.7084    3.9872    2.1621 H         1 <0>         0.0526
     53 H17        -4.2326    4.2515    1.2816 H         1 <0>         0.0635
     54 H18        -3.4657    2.6453    1.2710 H         1 <0>         0.0812
     55 H19        -1.6693    5.8877   -0.8655 H         1 <0>         0.0625
     56 H20        -3.1835    6.1450    0.0339 H         1 <0>         0.0763
     57 H21        -1.6593    5.8806    0.9144 H         1 <0>         0.0621
     58 H22        -3.4797    2.6551   -1.2274 H         1 <0>         0.0812
     59 H23        -4.2466    4.2614   -1.2168 H         1 <0>         0.0635
     60 H24        -2.7323    4.0041   -2.1163 H         1 <0>         0.0530
     61 H25         1.9096    1.3524   -1.6793 H         1 <0>         0.1353
     62 H26         5.8041    2.0946   -0.0889 H         1 <0>         0.1377
     63 H27         3.3856   -1.0069    1.5781 H         1 <0>         0.1387
     64 H28         7.5909    0.6618    2.4130 H         1 <0>         0.1048
     65 H29         7.3335    0.8869    0.6662 H         1 <0>         0.0572
     66 H30         6.6428    2.0486    1.8246 H         1 <0>         0.0567
     67 H31         5.3074    4.3124   -2.6067 H         1 <0>         0.1045
     68 H32         5.4223    3.9999   -0.8582 H         1 <0>         0.0571
     69 H33         6.1127    2.8386   -2.0171 H         1 <0>         0.0573
     70 H34         0.8839   -4.7279   -0.0369 H         1 <0>         0.1708
@<TRIPOS>BOND
     1    1    2 1
     2    1   37 1
     3    1   38 1
     4    1   39 1
     5    2    3 1
     6    2    4 1
     7    2    5 1
     8    3   40 1
     9    3   41 1
    10    3   42 1
    11    4   43 1
    12    4   44 1
    13    4   45 1
    14    5    6 am
    15    5   46 1
    16    6    7 2
    17    6    8 am
    18    8    9 1
    19    8   47 1
    20    9   36 ar
    21    9   10 ar
    22   10   11 ar
    23   10   48 1
    24   11   16 ar
    25   11   12 ar
    26   12   13 ar
    27   12   35 ar
    28   13   14 ar
    29   13   49 1
    30   14   15 ar
    31   14   25 1
    32   15   16 ar
    33   15   17 1
    34   17   18 am
    35   17   50 1
    36   18   19 2
    37   18   20 am
    38   20   21 1
    39   20   51 1
    40   21   22 1
    41   21   23 1
    42   21   24 1
    43   22   52 1
    44   22   53 1
    45   22   54 1
    46   23   55 1
    47   23   56 1
    48   23   57 1
    49   24   58 1
    50   24   59 1
    51   24   60 1
    52   25   30 ar
    53   25   26 ar
    54   26   27 ar
    55   26   61 1
    56   27   28 ar
    57   27   33 1
    58   28   29 ar
    59   28   62 1
    60   29   30 ar
    61   29   31 1
    62   30   63 1
    63   31   32 1
    64   32   64 1
    65   32   65 1
    66   32   66 1
    67   33   34 1
    68   34   67 1
    69   34   68 1
    70   34   69 1
    71   35   36 ar
    72   35   70 1
@<TRIPOS>MOLECULE
ZINC03815525
   64    67     0     0     0
SMALL
USER_CHARGES

@<TRIPOS>ATOM
      1 C1          0.0021   -0.0041    0.0020 C.3       1 <0>         0.0446
      2 N1         -0.0178    1.4608    0.0101 N.am      1 <0>        -0.5100
      3 C2         -1.2216    2.1269    0.0194 C.ar      1 <0>         0.3277
      4 C3         -2.4255    1.4324    0.0320 C.ar      1 <0>        -0.2571
      5 C4         -3.6131    2.1500    0.0463 C.ar      1 <0>         0.4681
      6 C5         -2.5054    4.1825    0.0466 C.ar      1 <0>         0.2335
      7 C6         -1.2621    3.5384    0.0322 C.ar      1 <0>        -0.1485
      8 C7         -0.0566    4.2794    0.0247 C.2       1 <0>        -0.0257
      9 C8          1.1365    3.6096    0.0101 C.2       1 <0>        -0.0800
     10 C9          1.1430    2.1450    0.0027 C.2       1 <0>         0.5394
     11 O1          2.2020    1.5430   -0.0099 O.2       1 <0>        -0.4437
     12 C10         2.4133    4.3610    0.0015 C.ar      1 <0>        -0.0519
     13 C11         3.0084    4.7175   -1.2093 C.ar      1 <0>        -0.0016
     14 C12         4.1956    5.4234   -1.2103 C.ar      1 <0>        -0.1000
     15 C13         4.8007    5.7666   -0.0147 C.ar      1 <0>        -0.0687
     16 C14         4.2192    5.4109    1.1890 C.ar      1 <0>        -0.0999
     17 C15         3.0290    4.7103    1.2040 C.ar      1 <0>        -0.0017
     18 Cl1         2.3008    4.2649    2.7157 Cl        1 <0>        -0.0496
     19 Cl2         2.2543    4.2815   -2.7109 Cl        1 <0>        -0.0501
     20 N2         -4.8205    1.4669    0.0541 N.pl3     1 <0>        -0.7140
     21 C16        -4.8333    0.0019    0.0468 C.3       1 <0>         0.1113
     22 C17        -6.2801   -0.4955    0.0578 C.3       1 <0>        -0.1356
     23 C18        -6.2935   -2.0254    0.0502 C.3       1 <0>        -0.1496
     24 C19        -7.7403   -2.5229    0.0612 C.3       1 <0>        -0.0065
     25 C20        -7.2158   -4.5169   -1.2092 C.3       1 <0>        -0.0321
     26 C21        -7.1723   -6.0455   -1.1456 C.3       1 <0>        -0.0269
     27 C22        -9.0630   -6.0365    0.3657 C.3       1 <0>        -0.0274
     28 C23        -9.1065   -4.5079    0.3022 C.3       1 <0>        -0.0262
     29 C24        -8.5385   -8.0305   -0.9047 C.3       1 <0>        -0.0472
     30 H1          1.0345   -0.3534   -0.0097 H         1 <0>         0.1205
     31 H2         -0.4983   -0.3791    0.8948 H         1 <0>         0.0901
     32 H3         -0.5153   -0.3696   -0.8850 H         1 <0>         0.0895
     33 H4         -2.4366    0.3525    0.0263 H         1 <0>         0.1815
     34 H5         -2.5521    5.2614    0.0521 H         1 <0>         0.2147
     35 H6         -0.0780    5.3592    0.0300 H         1 <0>         0.1716
     36 H7          4.6545    5.7045   -2.1467 H         1 <0>         0.1521
     37 H8          5.7314    6.3144   -0.0210 H         1 <0>         0.1551
     38 H9          4.6967    5.6818    2.1190 H         1 <0>         0.1522
     39 H10        -5.6562    1.9591    0.0644 H         1 <0>         0.4212
     40 H11        -4.3310   -0.3613   -0.8498 H         1 <0>         0.0888
     41 H12        -4.3143   -0.3703    0.9301 H         1 <0>         0.0898
     42 H13        -6.7824   -0.1322    0.9544 H         1 <0>         0.0933
     43 H14        -6.7990   -0.1232   -0.8255 H         1 <0>         0.0920
     44 H15        -5.7912   -2.3887   -0.8464 H         1 <0>         0.0950
     45 H16        -5.7745   -2.3977    0.9335 H         1 <0>         0.0994
     46 H17        -8.2426   -2.1596    0.9578 H         1 <0>         0.1453
     47 H18        -8.2592   -2.1506   -0.8221 H         1 <0>         0.1433
     48 H19        -7.8563   -4.2053   -2.0342 H         1 <0>         0.1578
     49 H20        -6.2085   -4.1305   -1.3644 H         1 <0>         0.1727
     50 H21        -6.5104   -6.3572   -0.3377 H         1 <0>         0.1562
     51 H22        -6.8013   -6.4383   -2.0923 H         1 <0>         0.1766
     52 H23        -8.4225   -6.3481    1.1908 H         1 <0>         0.1568
     53 H24       -10.0703   -6.4228    0.5213 H         1 <0>         0.1779
     54 H25        -9.4775   -4.1150    1.2488 H         1 <0>         0.1760
     55 H26        -9.7684   -4.1962   -0.5057 H         1 <0>         0.1577
     56 H27        -9.5622   -8.3855   -0.7859 H         1 <0>         0.1383
     57 H28        -8.1358   -8.3926   -1.8506 H         1 <0>         0.1377
     58 H29        -7.9270   -8.4033   -0.0829 H         1 <0>         0.1339
     59 N3         -3.6891    3.5189    0.0539 N.ar      1 <0>        -0.5478
     60 H30        -4.5890    4.0130    0.0644 H         1 <0>         0.4743
     61 N4         -7.7368   -4.0013    0.0745 N.4       1 <0>        -0.4071
     62 H31        -7.1298   -4.3267    0.8360 H         1 <0>         0.4385
     63 N5         -8.5422   -6.5520   -0.9178 N.4       1 <0>        -0.4066
     64 H32        -9.1493   -6.2267   -1.6792 H         1 <0>         0.4412
@<TRIPOS>BOND
     1    1    2 1
     2    1   30 1
     3    1   31 1
     4    1   32 1
     5    2   10 am
     6    2    3 1
     7    3    7 ar
     8    3    4 ar
     9    4    5 ar
    10    4   33 1
    11    5   20 1
    12    5   59 ar
    13    6    7 ar
    14    6   34 1
    15    6   59 ar
    16    7    8 1
    17    8    9 2
    18    8   35 1
    19    9   10 1
    20    9   12 1
    21   10   11 2
    22   12   17 ar
    23   12   13 ar
    24   13   14 ar
    25   13   19 1
    26   14   15 ar
    27   14   36 1
    28   15   16 ar
    29   15   37 1
    30   16   17 ar
    31   16   38 1
    32   17   18 1
    33   20   21 1
    34   20   39 1
    35   21   22 1
    36   21   40 1
    37   21   41 1
    38   22   23 1
    39   22   42 1
    40   22   43 1
    41   23   24 1
    42   23   44 1
    43   23   45 1
    44   24   46 1
    45   24   47 1
    46   24   61 1
    47   25   26 1
    48   25   48 1
    49   25   49 1
    50   25   61 1
    51   26   50 1
    52   26   51 1
    53   26   63 1
    54   27   28 1
    55   27   52 1
    56   27   53 1
    57   27   63 1
    58   28   54 1
    59   28   55 1
    60   28   61 1
    61   29   56 1
    62   29   57 1
    63   29   58 1
    64   29   63 1
    65   59   60 1
    66   61   62 1
    67   63   64 1
@<TRIPOS>MOLECULE
ZINC03815526
   45    47     0     0     0
SMALL
USER_CHARGES

@<TRIPOS>ATOM
      1 C1         -1.0888    7.6771    1.3060 C.3       1 <0>        -0.1661
      2 C2         -0.3116    8.0808    0.0514 C.3       1 <0>         0.1882
      3 C3         -0.0834    9.5937    0.0577 C.3       1 <0>        -0.1553
      4 C4         -1.1129    7.6911   -1.1924 C.3       1 <0>        -0.1661
      5 N1          0.9813    7.3920    0.0351 N.am      1 <0>        -0.7354
      6 C5          1.0271    6.0451    0.0271 C.2       1 <0>         0.6923
      7 O1         -0.0044    5.4017    0.0334 O.2       1 <0>        -0.5024
      8 N2          2.2165    5.4113    0.0120 N.am      1 <0>        -0.6600
      9 C6          2.2637    4.0248    0.0038 C.ar      1 <0>         0.4861
     10 C7          3.5175    3.3772   -0.0119 C.ar      1 <0>        -0.1745
     11 C8          3.5691    1.9925   -0.0207 C.ar      1 <0>         0.0528
     12 C9          2.3538    1.2883   -0.0135 C.ar      1 <0>        -0.2946
     13 C10         2.3093   -0.1164   -0.0211 C.ar      1 <0>         0.2667
     14 N3          1.1319   -0.7080   -0.0130 N.ar      1 <0>        -0.5713
     15 C11         0.0021   -0.0041    0.0020 C.ar      1 <0>         0.5964
     16 N4         -0.0158    1.3152    0.0093 N.ar      1 <0>        -0.5644
     17 C12         1.1301    2.0077    0.0021 C.ar      1 <0>         0.4327
     18 N5          1.1371    3.3420    0.0104 N.ar      1 <0>        -0.4737
     19 N6         -1.2016   -0.6831    0.0099 N.pl3     1 <0>        -0.8107
     20 C13         4.7691    4.1719   -0.0195 C.ar      1 <0>        -0.0172
     21 C14         5.3486    4.5545   -1.2295 C.ar      1 <0>        -0.0203
     22 C15         6.5146    5.2946   -1.2298 C.ar      1 <0>        -0.0942
     23 C16         7.1078    5.6565   -0.0335 C.ar      1 <0>        -0.0915
     24 C17         6.5381    5.2802    1.1692 C.ar      1 <0>        -0.0853
     25 C18         5.3689    4.5448    1.1828 C.ar      1 <0>        -0.0708
     26 Br1         4.5876    4.0380    2.8286 Br        1 <0>        -0.0224
     27 Cl1         4.6059    4.1008   -2.7316 Cl        1 <0>        -0.0432
     28 H1         -0.5179    7.9547    2.1921 H         1 <0>         0.0527
     29 H2         -2.0507    8.1896    1.3181 H         1 <0>         0.0638
     30 H3         -1.2514    6.5993    1.3015 H         1 <0>         0.0817
     31 H4          0.4703    9.8814   -0.8360 H         1 <0>         0.0621
     32 H5         -1.0453   10.1062    0.0699 H         1 <0>         0.0765
     33 H6          0.4875    9.8714    0.9438 H         1 <0>         0.0622
     34 H7         -1.2755    6.6133   -1.1968 H         1 <0>         0.0816
     35 H8         -2.0748    8.2036   -1.1802 H         1 <0>         0.0639
     36 H9         -0.5592    7.9788   -2.0861 H         1 <0>         0.0526
     37 H10         1.8043    7.9053    0.0300 H         1 <0>         0.3935
     38 H11         3.0395    5.9247    0.0070 H         1 <0>         0.4109
     39 H12         4.5146    1.4707   -0.0331 H         1 <0>         0.1509
     40 H13         3.2195   -0.6978   -0.0336 H         1 <0>         0.1806
     41 H14        -2.0367   -0.1897    0.0205 H         1 <0>         0.4185
     42 H15        -1.2113   -1.6530    0.0048 H         1 <0>         0.4169
     43 H16         6.9645    5.5912   -2.1658 H         1 <0>         0.1454
     44 H17         8.0193    6.2356   -0.0389 H         1 <0>         0.1461
     45 H18         7.0059    5.5658    2.0997 H         1 <0>         0.1444
@<TRIPOS>BOND
     1    1    2 1
     2    1   28 1
     3    1   29 1
     4    1   30 1
     5    2    3 1
     6    2    4 1
     7    2    5 1
     8    3   31 1
     9    3   32 1
    10    3   33 1
    11    4   34 1
    12    4   35 1
    13    4   36 1
    14    5    6 am
    15    5   37 1
    16    6    7 2
    17    6    8 am
    18    8    9 1
    19    8   38 1
    20    9   18 ar
    21    9   10 ar
    22   10   11 ar
    23   10   20 1
    24   11   12 ar
    25   11   39 1
    26   12   17 ar
    27   12   13 ar
    28   13   14 ar
    29   13   40 1
    30   14   15 ar
    31   15   16 ar
    32   15   19 1
    33   16   17 ar
    34   17   18 ar
    35   19   41 1
    36   19   42 1
    37   20   25 ar
    38   20   21 ar
    39   21   22 ar
    40   21   27 1
    41   22   23 ar
    42   22   43 1
    43   23   24 ar
    44   23   44 1
    45   24   25 ar
    46   24   45 1
    47   25   26 1
@<TRIPOS>MOLECULE
ZINC03815527
   49    52     0     0     0
SMALL
USER_CHARGES

@<TRIPOS>ATOM
      1 C1         -1.2722    2.1495   -1.3931 C.ar      1 <0>         0.0057
      2 C2         -0.1060    1.7142   -1.9896 C.ar      1 <0>        -0.1570
      3 C3          1.0975    2.3556   -1.7191 C.ar      1 <0>         0.1926
      4 C4          1.1067    3.4408   -0.8316 C.ar      1 <0>        -0.0983
      5 C5         -0.0730    3.8679   -0.2314 C.ar      1 <0>         0.0296
      6 C6         -1.2582    3.2182   -0.5127 C.ar      1 <0>        -0.6952
      7 S1         -2.7564    3.7546    0.2438 S.o2      1 <0>         2.7045
      8 O1         -3.6365    2.6389    0.2378 O.2       1 <0>        -0.9679
      9 O2         -2.3890    4.4286    1.4396 O.2       1 <0>        -0.9585
     10 N1         -3.4285    4.8928   -0.7537 N.pl3     1 <0>        -1.2500
     11 C7          2.5106    3.9014   -0.7512 C.2       1 <0>        -0.2438
     12 C8          3.0102    4.9474    0.0009 C.2       1 <0>         0.1210
     13 C9          4.4026    5.1542    0.0838 C.2       1 <0>        -0.0394
     14 C10         5.0459    6.3797    0.1896 C.2       1 <0>        -0.0493
     15 C11         6.4103    6.1182    0.2427 C.2       1 <0>        -0.1752
     16 C12         6.5864    4.7699    0.1702 C.2       1 <0>         0.0711
     17 N2          5.3749    4.1749    0.0807 N.pl3     1 <0>        -0.5077
     18 H1          5.2162    3.2198    0.0218 H         1 <0>         0.4153
     19 C13         7.9380    4.0960    0.1951 C.3       1 <0>        -0.0531
     20 C14         9.0098    5.1492   -0.1092 C.3       1 <0>        -0.1110
     21 C15         8.8020    6.3672    0.7949 C.3       1 <0>        -0.1184
     22 C16         7.5359    7.1157    0.3607 C.3       1 <0>        -0.0489
     23 C17         4.3901    7.7357    0.2372 C.3       1 <0>        -0.0414
     24 C18         4.0958    8.1091    1.6915 C.3       1 <0>        -0.1470
     25 C19         3.4400    9.4651    1.7391 C.2       1 <0>         0.4593
     26 O3          3.2296   10.0707    0.7149 O.co2     1 <0>        -0.6415
     27 C20         3.2581    3.0059   -1.6433 C.2       1 <0>         0.5594
     28 O4          4.4559    3.0496   -1.8617 O.2       1 <0>        -0.5080
     29 N3          2.3897    2.1303   -2.1771 N.am      1 <0>        -0.6516
     30 H2         -2.2039    1.6489   -1.6117 H         1 <0>         0.1488
     31 H3         -0.1291    0.8767   -2.6712 H         1 <0>         0.1364
     32 H4         -0.0619    4.7041    0.4520 H         1 <0>         0.1512
     33 H5         -2.9831    5.1372   -1.5800 H         1 <0>         0.4175
     34 H6         -4.2675    5.3152   -0.5117 H         1 <0>         0.4205
     35 H7          2.3342    5.6066    0.5253 H         1 <0>         0.1576
     36 H8          7.9704    3.3105   -0.5599 H         1 <0>         0.0735
     37 H9          8.1155    3.6658    1.1808 H         1 <0>         0.0774
     38 H10         8.9331    5.4543   -1.1528 H         1 <0>         0.0670
     39 H11         9.9973    4.7256    0.0735 H         1 <0>         0.0674
     40 H12         9.6626    7.0311    0.7135 H         1 <0>         0.0654
     41 H13         8.6933    6.0383    1.8284 H         1 <0>         0.0639
     42 H14         7.7049    7.5943   -0.6039 H         1 <0>         0.0683
     43 H15         7.2816    7.8697    1.1056 H         1 <0>         0.0758
     44 H16         5.0578    8.4778   -0.2005 H         1 <0>         0.0759
     45 H17         3.4577    7.7084   -0.3267 H         1 <0>         0.0686
     46 H18         3.4281    7.3670    2.1291 H         1 <0>         0.0620
     47 H19         5.0282    8.1364    2.2554 H         1 <0>         0.0650
     48 H20         2.6339    1.4303   -2.8026 H         1 <0>         0.4173
     49 O5          3.0896   10.0001    2.9192 O.co2     1 <0>        -0.7751
@<TRIPOS>BOND
     1    1    6 ar
     2    1    2 ar
     3    1   30 1
     4    2    3 ar
     5    2   31 1
     6    3   29 1
     7    3    4 ar
     8    4    5 ar
     9    4   11 1
    10    5    6 ar
    11    5   32 1
    12    6    7 1
    13    7    8 2
    14    7    9 2
    15    7   10 1
    16   10   33 1
    17   10   34 1
    18   11   12 2
    19   11   27 1
    20   12   13 1
    21   12   35 1
    22   13   17 1
    23   13   14 2
    24   14   15 1
    25   14   23 1
    26   15   22 1
    27   15   16 2
    28   16   17 1
    29   16   19 1
    30   17   18 1
    31   19   20 1
    32   19   36 1
    33   19   37 1
    34   20   21 1
    35   20   38 1
    36   20   39 1
    37   21   22 1
    38   21   40 1
    39   21   41 1
    40   22   42 1
    41   22   43 1
    42   23   24 1
    43   23   44 1
    44   23   45 1
    45   24   25 1
    46   24   46 1
    47   24   47 1
    48   25   26 2
    49   25   49 1
    50   27   28 2
    51   27   29 am
    52   29   48 1
@<TRIPOS>MOLECULE
ZINC03815528
   39    41     0     0     0
SMALL
USER_CHARGES

@<TRIPOS>ATOM
      1 C1         -9.0911    9.0404    1.8562 C.3       1 <0>         0.0218
      2 O1         -7.8267    8.3765    1.9064 O.3       1 <0>        -0.3092
      3 C2         -7.6128    7.3872    0.9994 C.ar      1 <0>         0.1852
      4 C3         -6.4082    6.7029    0.9931 C.ar      1 <0>        -0.2030
      5 C4         -6.1897    5.6887    0.0629 C.ar      1 <0>         0.0183
      6 C5         -7.1822    5.3702   -0.8619 C.ar      1 <0>        -0.1685
      7 C6         -8.3866    6.0546   -0.8464 C.ar      1 <0>         0.1857
      8 C7         -8.6010    7.0634    0.0813 C.ar      1 <0>        -0.2865
      9 O2         -9.3574    5.7405   -1.7441 O.3       1 <0>        -0.3065
     10 C8        -10.5723    6.4897   -1.6747 C.3       1 <0>         0.0219
     11 C9         -4.9018    4.9541    0.0532 C.ar      1 <0>        -0.1624
     12 C10        -4.8896    3.5697    0.0456 C.ar      1 <0>         0.1198
     13 C11        -3.6426    2.9200    0.0361 C.ar      1 <0>        -0.2343
     14 C12        -3.5392    1.5218    0.0276 C.ar      1 <0>         0.2718
     15 N1         -2.3583    0.9475    0.0184 N.ar      1 <0>        -0.5347
     16 C13        -1.2242    1.6444    0.0168 C.ar      1 <0>         0.4732
     17 C14        -1.2238    3.0251    0.0300 C.ar      1 <0>        -0.2928
     18 C15        -2.4550    3.6998    0.0347 C.ar      1 <0>         0.2519
     19 C16        -3.6798    5.6625    0.0512 C.ar      1 <0>         0.5368
     20 N2         -3.6989    7.0459    0.0588 N.pl3     1 <0>        -0.8030
     21 N3         -0.0111    0.9658    0.0074 N.pl3     1 <0>        -0.8155
     22 H1         -9.2183    9.5063    0.8790 H         1 <0>         0.0610
     23 H2         -9.8887    8.3157    2.0197 H         1 <0>         0.0617
     24 H3         -9.1308    9.8055    2.6315 H         1 <0>         0.1104
     25 H4         -5.6392    6.9554    1.7082 H         1 <0>         0.1361
     26 H5         -7.0143    4.5877   -1.5871 H         1 <0>         0.1428
     27 H6         -9.5393    7.5982    0.0886 H         1 <0>         0.1442
     28 H7        -11.2599    6.1391   -2.4443 H         1 <0>         0.1109
     29 H8        -11.0265    6.3552   -0.6930 H         1 <0>         0.0613
     30 H9        -10.3571    7.5464   -1.8337 H         1 <0>         0.0603
     31 H10        -5.8105    3.0056    0.0473 H         1 <0>         0.1817
     32 H11        -4.4330    0.9155    0.0288 H         1 <0>         0.1962
     33 H12        -0.2944    3.5753    0.0327 H         1 <0>         0.1569
     34 H13        -4.5456    7.5192    0.0654 H         1 <0>         0.4413
     35 H14        -2.8657    7.5425    0.0575 H         1 <0>         0.4232
     36 H15         0.0021   -0.0041    0.0020 H         1 <0>         0.4205
     37 H16         0.8223    1.4622    0.0021 H         1 <0>         0.4212
     38 N4         -2.4565    5.0753    0.0418 N.ar      1 <0>        -0.5651
     39 H17        -1.5877    5.6226    0.0400 H         1 <0>         0.4656
@<TRIPOS>BOND
     1    1    2 1
     2    1   22 1
     3    1   23 1
     4    1   24 1
     5    2    3 1
     6    3    8 ar
     7    3    4 ar
     8    4    5 ar
     9    4   25 1
    10    5    6 ar
    11    5   11 1
    12    6    7 ar
    13    6   26 1
    14    7    8 ar
    15    7    9 1
    16    8   27 1
    17    9   10 1
    18   10   28 1
    19   10   29 1
    20   10   30 1
    21   11   19 ar
    22   11   12 ar
    23   12   13 ar
    24   12   31 1
    25   13   18 ar
    26   13   14 ar
    27   14   15 ar
    28   14   32 1
    29   15   16 ar
    30   16   17 ar
    31   16   21 1
    32   17   18 ar
    33   17   33 1
    34   18   38 ar
    35   19   20 1
    36   19   38 ar
    37   20   34 1
    38   20   35 1
    39   21   36 1
    40   21   37 1
    41   38   39 1
@<TRIPOS>MOLECULE
ZINC03815529
   68    72     0     0     0
SMALL
USER_CHARGES

@<TRIPOS>ATOM
      1 C1          8.0418    5.9497   -0.5473 C.3       1 <0>         0.0607
      2 N1          8.9067    5.0536   -1.3186 N.am      1 <0>        -0.5201
      3 C2          8.5795    3.7222   -1.4350 C.ar      1 <0>         0.2696
      4 C3          7.4375    3.2089   -0.8317 C.ar      1 <0>        -0.2749
      5 C4          7.1507    1.8590   -0.9789 C.ar      1 <0>         0.4234
      6 N2          7.9443    1.0575   -1.6819 N.ar      1 <0>        -0.5500
      7 C5          9.0356    1.4935   -2.2718 C.ar      1 <0>         0.2246
      8 C6          9.4002    2.8422   -2.1740 C.ar      1 <0>        -0.2153
      9 C7         10.5707    3.3287   -2.8027 C.2       1 <0>         0.0115
     10 C8         10.8893    4.6540   -2.6823 C.2       1 <0>        -0.1446
     11 C9         10.0135    5.5409   -1.9131 C.2       1 <0>         0.5480
     12 O1         10.2891    6.7227   -1.8064 O.2       1 <0>        -0.4984
     13 C10        12.1092    5.1895   -3.3305 C.ar      1 <0>        -0.0191
     14 C11        13.3211    5.2047   -2.6389 C.ar      1 <0>        -0.0060
     15 C12        14.4557    5.7004   -3.2508 C.ar      1 <0>        -0.1053
     16 C13        14.3903    6.1908   -4.5426 C.ar      1 <0>        -0.0839
     17 C14        13.1909    6.1839   -5.2317 C.ar      1 <0>        -0.1048
     18 C15        12.0500    5.6862   -4.6332 C.ar      1 <0>        -0.0063
     19 Cl1        10.5456    5.6790   -5.4995 Cl        1 <0>        -0.0508
     20 Cl2        13.4037    4.5962   -1.0151 Cl        1 <0>        -0.0525
     21 N3          6.0130    1.3360   -0.3808 N.pl3     1 <0>        -0.6594
     22 C16         5.7805   -0.0442   -0.4059 C.ar      1 <0>         0.1619
     23 C17         4.4834   -0.5284   -0.5135 C.ar      1 <0>        -0.1153
     24 C18         4.2553   -1.8900   -0.5426 C.ar      1 <0>        -0.1751
     25 C19         5.3206   -2.7741   -0.4547 C.ar      1 <0>         0.0769
     26 C20         6.6161   -2.2914   -0.3420 C.ar      1 <0>        -0.1148
     27 C21         6.8464   -0.9300   -0.3175 C.ar      1 <0>        -0.0743
     28 O2          5.0947   -4.1149   -0.4787 O.3       1 <0>        -0.3346
     29 C22         3.7361   -4.5419   -0.5967 C.3       1 <0>         0.0218
     30 C23         3.6810   -6.0709   -0.6067 C.3       1 <0>         0.0041
     31 C24         4.5669   -7.9973    0.5634 C.3       1 <0>        -0.0263
     32 C25         5.1438   -8.4731    1.8988 C.3       1 <0>        -0.0272
     33 C26         3.7411   -6.8860    3.0702 C.3       1 <0>        -0.0261
     34 C27         3.1642   -6.4102    1.7348 C.3       1 <0>        -0.0320
     35 C28         4.6270   -8.8124    4.2403 C.3       1 <0>        -0.0461
     36 H1          8.3690    5.9647    0.4923 H         1 <0>         0.0785
     37 H2          8.1003    6.9564   -0.9612 H         1 <0>         0.0990
     38 H3          7.0125    5.5948   -0.5992 H         1 <0>         0.0860
     39 H4          6.7844    3.8496   -0.2578 H         1 <0>         0.1473
     40 H5          9.6533    0.8088   -2.8339 H         1 <0>         0.1769
     41 H6         11.2045    2.6629   -3.3696 H         1 <0>         0.1487
     42 H7         15.3952    5.7086   -2.7183 H         1 <0>         0.1453
     43 H8         15.2796    6.5811   -5.0151 H         1 <0>         0.1479
     44 H9         13.1466    6.5683   -6.2400 H         1 <0>         0.1456
     45 H10         5.3789    1.9268    0.0548 H         1 <0>         0.4236
     46 H11         3.6535    0.1598   -0.5782 H         1 <0>         0.1340
     47 H12         3.2469   -2.2667   -0.6304 H         1 <0>         0.1276
     48 H13         7.4449   -2.9804   -0.2729 H         1 <0>         0.1337
     49 H14         7.8552   -0.5543   -0.2301 H         1 <0>         0.1480
     50 H15         3.1615   -4.1631    0.2486 H         1 <0>         0.0847
     51 H16         3.3136   -4.1570   -1.5249 H         1 <0>         0.1174
     52 H17         2.6523   -6.3964   -0.7607 H         1 <0>         0.1585
     53 H18         4.3073   -6.4517   -1.4134 H         1 <0>         0.1537
     54 H19         3.6955   -8.6002    0.3082 H         1 <0>         0.1571
     55 H20         5.3217   -8.1004   -0.2162 H         1 <0>         0.1761
     56 H21         6.0313   -7.8881    2.1406 H         1 <0>         0.1563
     57 H22         5.4117   -9.5270    1.8243 H         1 <0>         0.1762
     58 H23         4.6126   -6.2831    3.3253 H         1 <0>         0.1561
     59 H24         2.9864   -6.7825    3.8499 H         1 <0>         0.1758
     60 H25         2.8963   -5.3563    1.8093 H         1 <0>         0.1718
     61 H26         2.2766   -6.9948    1.4928 H         1 <0>         0.1586
     62 H27         3.8386   -8.7309    4.9885 H         1 <0>         0.1360
     63 H28         4.9135   -9.8579    4.1267 H         1 <0>         0.1364
     64 H29         5.4922   -8.2312    4.5593 H         1 <0>         0.1328
     65 N4          4.1934   -6.5726    0.6863 N.4       1 <0>        -0.4088
     66 H30         5.0253   -6.0308    0.9483 H         1 <0>         0.4455
     67 N5          4.1148   -8.3108    2.9472 N.4       1 <0>        -0.4060
     68 H31         3.2829   -8.8527    2.6851 H         1 <0>         0.4402
@<TRIPOS>BOND
     1    1    2 1
     2    1   36 1
     3    1   37 1
     4    1   38 1
     5    2   11 am
     6    2    3 1
     7    3    8 ar
     8    3    4 ar
     9    4    5 ar
    10    4   39 1
    11    5    6 ar
    12    5   21 1
    13    6    7 ar
    14    7    8 ar
    15    7   40 1
    16    8    9 1
    17    9   10 2
    18    9   41 1
    19   10   11 1
    20   10   13 1
    21   11   12 2
    22   13   18 ar
    23   13   14 ar
    24   14   15 ar
    25   14   20 1
    26   15   16 ar
    27   15   42 1
    28   16   17 ar
    29   16   43 1
    30   17   18 ar
    31   17   44 1
    32   18   19 1
    33   21   22 1
    34   21   45 1
    35   22   27 ar
    36   22   23 ar
    37   23   24 ar
    38   23   46 1
    39   24   25 ar
    40   24   47 1
    41   25   26 ar
    42   25   28 1
    43   26   27 ar
    44   26   48 1
    45   27   49 1
    46   28   29 1
    47   29   30 1
    48   29   50 1
    49   29   51 1
    50   30   52 1
    51   30   53 1
    52   30   65 1
    53   31   32 1
    54   31   54 1
    55   31   55 1
    56   31   65 1
    57   32   56 1
    58   32   57 1
    59   32   67 1
    60   33   34 1
    61   33   58 1
    62   33   59 1
    63   33   67 1
    64   34   60 1
    65   34   61 1
    66   34   65 1
    67   35   62 1
    68   35   63 1
    69   35   64 1
    70   35   67 1
    71   65   66 1
    72   67   68 1
@<TRIPOS>MOLECULE
ZINC03815530
   49    52     0     0     0
SMALL
USER_CHARGES

@<TRIPOS>ATOM
      1 C1          2.2533    5.3981    0.0094 C.3       1 <0>         0.0431
      2 N1          2.3166    3.9345    0.0015 N.am      1 <0>        -0.5111
      3 C2          1.1525    3.2011    0.0078 C.ar      1 <0>         0.3263
      4 C3         -0.0889    3.8260    0.0225 C.ar      1 <0>        -0.2568
      5 C4         -1.2339    3.0420    0.0293 C.ar      1 <0>         0.4731
      6 C5         -0.0126    1.0758    0.0080 C.ar      1 <0>         0.2330
      7 C6          1.1922    1.7896    0.0003 C.ar      1 <0>        -0.1596
      8 C7          2.4378    1.1183   -0.0143 C.2       1 <0>        -0.0156
      9 C8          3.5909    1.8547   -0.0209 C.2       1 <0>        -0.0957
     10 C9          3.5144    3.3174   -0.0128 C.2       1 <0>         0.5430
     11 O1          4.5375    3.9785   -0.0187 O.2       1 <0>        -0.4540
     12 C10         4.9083    1.1771   -0.0366 C.ar      1 <0>        -0.0421
     13 C11         5.5452    0.8553    1.1626 C.ar      1 <0>        -0.0025
     14 C12         6.7708    0.2189    1.1409 C.ar      1 <0>        -0.1021
     15 C13         7.3721   -0.0896   -0.0661 C.ar      1 <0>        -0.0738
     16 C14         6.7488    0.2318   -1.2584 C.ar      1 <0>        -0.1020
     17 C15         5.5204    0.8631   -1.2507 C.ar      1 <0>        -0.0026
     18 Cl1         4.7398    1.2655   -2.7482 Cl        1 <0>        -0.0482
     19 Cl2         4.7953    1.2475    2.6783 Cl        1 <0>        -0.0480
     20 N2         -2.4780    3.6553    0.0445 N.pl3     1 <0>        -0.6993
     21 C16        -2.5740    5.1172    0.0532 C.3       1 <0>         0.1098
     22 C17        -4.0467    5.5315    0.0695 C.3       1 <0>        -0.1537
     23 C18        -4.1469    7.0582    0.0787 C.3       1 <0>         0.1113
     24 N3         -5.5570    7.4550    0.0943 N.pl3     1 <0>        -0.4677
     25 C19        -6.3479    7.6862   -0.9987 C.2       1 <0>        -0.0598
     26 C20        -7.5665    8.0218   -0.5339 C.2       1 <0>        -0.0203
     27 N4         -7.5184    8.0053    0.8064 N.2       1 <0>        -0.4882
     28 C21        -6.3178    7.6666    1.1898 C.2       1 <0>         0.1828
     29 H1          3.2643    5.8055    0.0020 H         1 <0>         0.1184
     30 H2          1.7160    5.7434   -0.8738 H         1 <0>         0.0927
     31 H3          1.7327    5.7344    0.9060 H         1 <0>         0.0928
     32 H4         -0.1613    4.9035    0.0290 H         1 <0>         0.1856
     33 H5          0.0021   -0.0041    0.0020 H         1 <0>         0.2108
     34 H6          2.4777    0.0390   -0.0197 H         1 <0>         0.1677
     35 H7          7.2627   -0.0347    2.0683 H         1 <0>         0.1498
     36 H8          8.3326   -0.5832   -0.0775 H         1 <0>         0.1520
     37 H9          7.2235   -0.0118   -2.1974 H         1 <0>         0.1498
     38 H10        -3.2845    3.1163    0.0493 H         1 <0>         0.4217
     39 H11        -2.0765    5.5086    0.9406 H         1 <0>         0.0943
     40 H12        -2.0936    5.5182   -0.8392 H         1 <0>         0.0937
     41 H13        -4.5441    5.1401   -0.8178 H         1 <0>         0.0869
     42 H14        -4.5271    5.1306    0.9620 H         1 <0>         0.0876
     43 H15        -3.6494    7.4497    0.9661 H         1 <0>         0.1015
     44 H16        -3.6665    7.4592   -0.8138 H         1 <0>         0.0991
     45 H17        -6.0522    7.6114   -2.0348 H         1 <0>         0.1757
     46 H18        -8.4297    8.2666   -1.1351 H         1 <0>         0.1729
     47 H19        -5.9876    7.5709    2.2136 H         1 <0>         0.2052
     48 N5         -1.2320    1.6710    0.0167 N.ar      1 <0>        -0.5507
     49 H20        -2.1024    1.1264    0.0140 H         1 <0>         0.4733
@<TRIPOS>BOND
     1    1    2 1
     2    1   29 1
     3    1   30 1
     4    1   31 1
     5    2   10 am
     6    2    3 1
     7    3    7 ar
     8    3    4 ar
     9    4    5 ar
    10    4   32 1
    11    5   20 1
    12    5   48 ar
    13    6    7 ar
    14    6   33 1
    15    6   48 ar
    16    7    8 1
    17    8    9 2
    18    8   34 1
    19    9   10 1
    20    9   12 1
    21   10   11 2
    22   12   17 ar
    23   12   13 ar
    24   13   14 ar
    25   13   19 1
    26   14   15 ar
    27   14   35 1
    28   15   16 ar
    29   15   36 1
    30   16   17 ar
    31   16   37 1
    32   17   18 1
    33   20   21 1
    34   20   38 1
    35   21   22 1
    36   21   39 1
    37   21   40 1
    38   22   23 1
    39   22   41 1
    40   22   42 1
    41   23   24 1
    42   23   43 1
    43   23   44 1
    44   24   28 1
    45   24   25 1
    46   25   26 2
    47   25   45 1
    48   26   27 1
    49   26   46 1
    50   27   28 2
    51   28   47 1
    52   48   49 1
@<TRIPOS>MOLECULE
ZINC03815530
   50    53     0     0     0
SMALL
USER_CHARGES

@<TRIPOS>ATOM
      1 C1          2.2533    5.3981    0.0094 C.3       1 <0>         0.0427
      2 N1          2.3166    3.9345    0.0015 N.am      1 <0>        -0.5095
      3 C2          1.1525    3.2011    0.0078 C.ar      1 <0>         0.3277
      4 C3         -0.0889    3.8260    0.0225 C.ar      1 <0>        -0.2558
      5 C4         -1.2339    3.0420    0.0293 C.ar      1 <0>         0.4700
      6 C5         -0.0126    1.0758    0.0080 C.ar      1 <0>         0.2325
      7 C6          1.1922    1.7896    0.0003 C.ar      1 <0>        -0.1513
      8 C7          2.4378    1.1183   -0.0143 C.2       1 <0>        -0.0231
      9 C8          3.5909    1.8547   -0.0209 C.2       1 <0>        -0.0846
     10 C9          3.5144    3.3174   -0.0128 C.2       1 <0>         0.5401
     11 O1          4.5375    3.9785   -0.0187 O.2       1 <0>        -0.4461
     12 C10         4.9083    1.1771   -0.0366 C.ar      1 <0>        -0.0485
     13 C11         5.5452    0.8553    1.1626 C.ar      1 <0>        -0.0019
     14 C12         6.7708    0.2189    1.1409 C.ar      1 <0>        -0.1009
     15 C13         7.3721   -0.0896   -0.0661 C.ar      1 <0>        -0.0707
     16 C14         6.7488    0.2318   -1.2584 C.ar      1 <0>        -0.1008
     17 C15         5.5204    0.8631   -1.2507 C.ar      1 <0>        -0.0020
     18 Cl1         4.7398    1.2655   -2.7482 Cl        1 <0>        -0.0488
     19 Cl2         4.7953    1.2475    2.6783 Cl        1 <0>        -0.0490
     20 N2         -2.4780    3.6553    0.0445 N.pl3     1 <0>        -0.7102
     21 C16        -2.5740    5.1172    0.0532 C.3       1 <0>         0.1125
     22 C17        -4.0467    5.5315    0.0695 C.3       1 <0>        -0.1588
     23 C18        -4.1469    7.0582    0.0787 C.3       1 <0>         0.0985
     24 N3         -5.5570    7.4550    0.0943 N.pl3     1 <0>        -0.4172
     25 C19        -6.3479    7.6862   -0.9987 C.2       1 <0>         0.0212
     26 C20        -7.5665    8.0218   -0.5339 C.2       1 <0>         0.0127
     27 C21        -6.3178    7.6666    1.1898 C.cat     1 <0>         0.2899
     28 H1          3.2643    5.8055    0.0020 H         1 <0>         0.1202
     29 H2          1.7160    5.7434   -0.8738 H         1 <0>         0.0923
     30 H3          1.7327    5.7344    0.9060 H         1 <0>         0.0922
     31 H4         -0.1613    4.9035    0.0290 H         1 <0>         0.1845
     32 H5          0.0021   -0.0041    0.0020 H         1 <0>         0.2132
     33 H6          2.4777    0.0390   -0.0197 H         1 <0>         0.1701
     34 H7          7.2627   -0.0347    2.0683 H         1 <0>         0.1512
     35 H8          8.3326   -0.5832   -0.0775 H         1 <0>         0.1538
     36 H9          7.2235   -0.0118   -2.1974 H         1 <0>         0.1512
     37 H10        -3.2845    3.1163    0.0493 H         1 <0>         0.4209
     38 H11        -2.0765    5.5086    0.9406 H         1 <0>         0.0965
     39 H12        -2.0936    5.5182   -0.8392 H         1 <0>         0.0967
     40 H13        -4.5441    5.1401   -0.8178 H         1 <0>         0.0958
     41 H14        -4.5271    5.1306    0.9620 H         1 <0>         0.0937
     42 H15        -3.6494    7.4497    0.9661 H         1 <0>         0.1281
     43 H16        -3.6665    7.4592   -0.8138 H         1 <0>         0.1306
     44 H17        -6.0522    7.6114   -2.0348 H         1 <0>         0.2237
     45 H18        -8.4297    8.2666   -1.1351 H         1 <0>         0.2259
     46 H19        -5.9876    7.5709    2.2136 H         1 <0>         0.2600
     47 N4         -1.2320    1.6710    0.0167 N.ar      1 <0>        -0.5487
     48 H20        -2.1024    1.1264    0.0140 H         1 <0>         0.4736
     49 N5         -7.5174    8.0050    0.8056 N.pl3     1 <0>        -0.4799
     50 H21        -8.3014    8.2243    1.4312 H         1 <0>         0.4856
@<TRIPOS>BOND
     1    1    2 1
     2    1   28 1
     3    1   29 1
     4    1   30 1
     5    2   10 am
     6    2    3 1
     7    3    7 ar
     8    3    4 ar
     9    4    5 ar
    10    4   31 1
    11    5   20 1
    12    5   47 ar
    13    6    7 ar
    14    6   32 1
    15    6   47 ar
    16    7    8 1
    17    8    9 2
    18    8   33 1
    19    9   10 1
    20    9   12 1
    21   10   11 2
    22   12   17 ar
    23   12   13 ar
    24   13   14 ar
    25   13   19 1
    26   14   15 ar
    27   14   34 1
    28   15   16 ar
    29   15   35 1
    30   16   17 ar
    31   16   36 1
    32   17   18 1
    33   20   21 1
    34   20   37 1
    35   21   22 1
    36   21   38 1
    37   21   39 1
    38   22   23 1
    39   22   40 1
    40   22   41 1
    41   23   24 1
    42   23   42 1
    43   23   43 1
    44   24   27 1
    45   24   25 1
    46   25   26 2
    47   25   44 1
    48   26   45 1
    49   26   49 1
    50   27   46 1
    51   27   49 2
    52   47   48 1
    53   49   50 1
@<TRIPOS>MOLECULE
ZINC03815531
   36    38     0     0     0
SMALL
USER_CHARGES

@<TRIPOS>ATOM
      1 C1         -0.0127    1.0858    0.0080 C.3       1 <0>         0.0685
      2 N1         -0.6984    1.5583    1.2133 N.pl3     1 <0>        -0.7002
      3 C2         -0.8415    2.9191    1.4415 C.ar      1 <0>         0.4705
      4 C3         -0.3300    3.8213    0.5191 C.ar      1 <0>        -0.2592
      5 C4         -0.4789    5.1820    0.7576 C.ar      1 <0>         0.3257
      6 C5         -1.1475    5.5872    1.9339 C.ar      1 <0>        -0.1606
      7 C6         -1.3179    6.9646    2.2102 C.2       1 <0>        -0.0150
      8 C7         -0.8288    7.8865    1.3254 C.2       1 <0>        -0.0971
      9 C8         -0.1408    7.4325    0.1146 C.2       1 <0>         0.5429
     10 O1          0.2967    8.2487   -0.6768 O.2       1 <0>        -0.4541
     11 N2          0.0104    6.1155   -0.1269 N.am      1 <0>        -0.5117
     12 C9          0.7008    5.6741   -1.3413 C.3       1 <0>         0.0481
     13 C10        -0.9945    9.3348    1.5900 C.ar      1 <0>        -0.0412
     14 C11        -2.1211   10.0091    1.1176 C.ar      1 <0>        -0.0026
     15 C12        -2.2720   11.3582    1.3723 C.ar      1 <0>        -0.1022
     16 C13        -1.3043   12.0430    2.0850 C.ar      1 <0>        -0.0743
     17 C14        -0.1823   11.3818    2.5513 C.ar      1 <0>        -0.1021
     18 C15        -0.0218   10.0317    2.3080 C.ar      1 <0>        -0.0028
     19 Cl1         1.3873    9.2038    2.8935 Cl        1 <0>        -0.0481
     20 Cl2        -3.3332    9.1530    0.2167 Cl        1 <0>        -0.0481
     21 C16        -1.6325    4.6095    2.8107 C.ar      1 <0>         0.2323
     22 H1          0.0021   -0.0041    0.0020 H         1 <0>         0.1064
     23 H2          1.0099    1.4631    0.0003 H         1 <0>         0.0826
     24 H3         -0.5399    1.4469   -0.8751 H         1 <0>         0.0831
     25 H4         -1.0524    0.9196    1.8518 H         1 <0>         0.4227
     26 H5          0.1750    3.4715   -0.3692 H         1 <0>         0.1872
     27 H6         -1.8275    7.2838    3.1074 H         1 <0>         0.1673
     28 H7         -0.0228    5.5549   -2.1477 H         1 <0>         0.0934
     29 H8          1.4443    6.4180   -1.6273 H         1 <0>         0.1106
     30 H9          1.1946    4.7209   -1.1524 H         1 <0>         0.0957
     31 H10        -3.1455   11.8804    1.0107 H         1 <0>         0.1496
     32 H11        -1.4251   13.0988    2.2780 H         1 <0>         0.1518
     33 H12         0.5695   11.9223    3.1071 H         1 <0>         0.1496
     34 H13        -2.1461    4.9042    3.7139 H         1 <0>         0.2102
     35 N3         -1.5004    3.2770    2.5890 N.ar      1 <0>        -0.5517
     36 H14        -1.8722    2.5779    3.2426 H         1 <0>         0.4730
@<TRIPOS>BOND
     1    1    2 1
     2    1   22 1
     3    1   23 1
     4    1   24 1
     5    2    3 1
     6    2   25 1
     7    3    4 ar
     8    3   35 ar
     9    4    5 ar
    10    4   26 1
    11    5   11 1
    12    5    6 ar
    13    6    7 1
    14    6   21 ar
    15    7    8 2
    16    7   27 1
    17    8    9 1
    18    8   13 1
    19    9   10 2
    20    9   11 am
    21   11   12 1
    22   12   28 1
    23   12   29 1
    24   12   30 1
    25   13   18 ar
    26   13   14 ar
    27   14   15 ar
    28   14   20 1
    29   15   16 ar
    30   15   31 1
    31   16   17 ar
    32   16   32 1
    33   17   18 ar
    34   17   33 1
    35   18   19 1
    36   21   34 1
    37   21   35 ar
    38   35   36 1
@<TRIPOS>MOLECULE
ZINC03815532
   46    49     0     0     0
SMALL
USER_CHARGES

@<TRIPOS>ATOM
      1 C1         -1.2677    2.1516   -1.4090 C.ar      1 <0>        -0.0484
      2 C2         -0.1024    1.7178   -1.9971 C.ar      1 <0>        -0.1532
      3 C3          1.1050    2.3564   -1.7213 C.ar      1 <0>         0.1213
      4 C4          1.1203    3.4436   -0.8321 C.ar      1 <0>        -0.1070
      5 C5         -0.0517    3.8801   -0.2335 C.ar      1 <0>        -0.0309
      6 C6         -1.2546    3.2316   -0.5189 C.ar      1 <0>        -0.1286
      7 C7         -2.5081    3.6863    0.1115 C.2       1 <0>         0.4922
      8 O1         -2.4949    4.6268    0.8806 O.co2     1 <0>        -0.6242
      9 C8          2.5282    3.8943   -0.7511 C.2       1 <0>        -0.2060
     10 C9          3.0359    4.9367    0.0003 C.2       1 <0>         0.0821
     11 C10         4.4300    5.1330    0.0826 C.2       1 <0>        -0.0141
     12 C11         5.0825    6.3537    0.1878 C.2       1 <0>        -0.0704
     13 C12         6.4449    6.0818    0.2411 C.2       1 <0>        -0.1745
     14 C13         6.6108    4.7322    0.1692 C.2       1 <0>         0.0471
     15 N1          5.3947    4.1465    0.0795 N.pl3     1 <0>        -0.5050
     16 H1          5.2288    3.1926    0.0207 H         1 <0>         0.4145
     17 C14         7.9572    4.0481    0.1948 C.3       1 <0>        -0.0482
     18 C15         9.0370    5.0930   -0.1097 C.3       1 <0>        -0.1092
     19 C16         8.8382    6.3129    0.7938 C.3       1 <0>        -0.1166
     20 C17         7.5780    7.0708    0.3590 C.3       1 <0>        -0.0462
     21 C18         4.4370    7.7146    0.2345 C.3       1 <0>        -0.0377
     22 C19         4.1452    8.0911    1.6885 C.3       1 <0>        -0.1462
     23 C20         3.4997    9.4520    1.7352 C.2       1 <0>         0.4605
     24 O2          3.2941   10.0587    0.7107 O.co2     1 <0>        -0.6420
     25 C21         3.2677    2.9922   -1.6431 C.2       1 <0>         0.5581
     26 O3          4.4657    3.0256   -1.8615 O.2       1 <0>        -0.5300
     27 N2          2.3923    2.1237   -2.1763 N.am      1 <0>        -0.6487
     28 H2         -2.1991    1.6530   -1.6330 H         1 <0>         0.1375
     29 H3         -0.1241    0.8810   -2.6794 H         1 <0>         0.1181
     30 H4         -0.0340    4.7164    0.4496 H         1 <0>         0.1361
     31 H5          2.3651    5.6012    0.5245 H         1 <0>         0.1552
     32 H6          7.9838    3.2621   -0.5599 H         1 <0>         0.0700
     33 H7          8.1312    3.6170    1.1807 H         1 <0>         0.0723
     34 H8          8.9630    5.3982   -1.1535 H         1 <0>         0.0657
     35 H9         10.0213    4.6620    0.0735 H         1 <0>         0.0630
     36 H10         9.7038    6.9703    0.7124 H         1 <0>         0.0611
     37 H11         8.7267    5.9853    1.8274 H         1 <0>         0.0625
     38 H12         7.7509    7.5477   -0.6058 H         1 <0>         0.0649
     39 H13         7.3292    7.8271    1.1035 H         1 <0>         0.0729
     40 H14         5.1104    8.4514   -0.2034 H         1 <0>         0.0706
     41 H15         3.5046    7.6941   -0.3296 H         1 <0>         0.0686
     42 H16         3.4717    7.3543    2.1264 H         1 <0>         0.0635
     43 H17         5.0776    8.1116    2.2527 H         1 <0>         0.0619
     44 H18         2.6318    1.4218   -2.8015 H         1 <0>         0.4086
     45 O4         -3.6678    3.0588   -0.1656 O.co2     1 <0>        -0.7613
     46 O5          3.1531    9.9903    2.9150 O.co2     1 <0>        -0.7800
@<TRIPOS>BOND
     1    1    6 ar
     2    1    2 ar
     3    1   28 1
     4    2    3 ar
     5    2   29 1
     6    3   27 1
     7    3    4 ar
     8    4    5 ar
     9    4    9 1
    10    5    6 ar
    11    5   30 1
    12    6    7 1
    13    7    8 2
    14    7   45 1
    15    9   10 2
    16    9   25 1
    17   10   11 1
    18   10   31 1
    19   11   15 1
    20   11   12 2
    21   12   13 1
    22   12   21 1
    23   13   20 1
    24   13   14 2
    25   14   15 1
    26   14   17 1
    27   15   16 1
    28   17   18 1
    29   17   32 1
    30   17   33 1
    31   18   19 1
    32   18   34 1
    33   18   35 1
    34   19   20 1
    35   19   36 1
    36   19   37 1
    37   20   38 1
    38   20   39 1
    39   21   22 1
    40   21   40 1
    41   21   41 1
    42   22   23 1
    43   22   42 1
    44   22   43 1
    45   23   24 2
    46   23   46 1
    47   25   26 2
    48   25   27 am
    49   27   44 1
@<TRIPOS>MOLECULE
ZINC03815533
   41    44     0     0     0
SMALL
USER_CHARGES

@<TRIPOS>ATOM
      1 C1         -8.4605    0.3830    6.7077 C.ar      1 <0>         0.0241
      2 C2         -7.1467    0.7415    6.9331 C.ar      1 <0>        -0.1602
      3 C3         -6.2664    0.8727    5.8651 C.ar      1 <0>         0.2138
      4 C4         -6.7346    0.6425    4.5639 C.ar      1 <0>        -0.1342
      5 C5         -8.0586    0.2750    4.3482 C.ar      1 <0>         0.0446
      6 C6         -8.9176    0.1497    5.4215 C.ar      1 <0>        -0.7029
      7 S1        -10.5983   -0.3070    5.1545 S.o2      1 <0>         2.7060
      8 O1        -10.6388   -0.9998    3.9145 O.2       1 <0>        -0.9613
      9 O2        -11.0589   -0.8876    6.3670 O.2       1 <0>        -0.9609
     10 N1        -11.4583    1.0923    4.9432 N.pl3     1 <0>        -1.2504
     11 C7         -5.5802    0.8529    3.6624 C.2       1 <0>        -0.1439
     12 C8         -5.5567    0.7360    2.2857 C.2       1 <0>         0.0640
     13 C9         -4.3619    0.9803    1.5776 C.2       1 <0>        -0.0106
     14 C10        -3.4376    0.0270    1.1730 C.2       1 <0>        -0.1391
     15 C11        -2.4198    0.7044    0.5110 C.2       1 <0>        -0.1601
     16 C12        -2.7209    2.0323    0.5172 C.2       1 <0>         0.0351
     17 N2         -3.8976    2.2109    1.1602 N.pl3     1 <0>        -0.5237
     18 H1         -4.3406    3.0617    1.3042 H         1 <0>         0.4120
     19 C13        -1.8474    3.0951   -0.1057 C.3       1 <0>        -0.0509
     20 C14        -0.4526    2.5019   -0.3365 C.3       1 <0>        -0.1128
     21 C15        -0.5807    1.1631   -1.0682 C.3       1 <0>        -0.1193
     22 C16        -1.1813    0.1181   -0.1200 C.3       1 <0>        -0.0483
     23 C17        -4.4666    1.2191    4.5468 C.2       1 <0>         0.5549
     24 O3         -3.3299    1.4812    4.1954 O.2       1 <0>        -0.4671
     25 N3         -4.9209    1.2149    5.8115 N.am      1 <0>        -0.6561
     26 H2         -9.1384    0.2831    7.5425 H         1 <0>         0.1542
     27 H3         -6.8021    0.9208    7.9408 H         1 <0>         0.1428
     28 H4         -8.4143    0.0932    3.3448 H         1 <0>         0.1508
     29 H5        -11.0064    1.9498    4.9814 H         1 <0>         0.4168
     30 H6        -12.4139    1.0545    4.7813 H         1 <0>         0.4220
     31 H7         -6.4534    0.4575    1.7520 H         1 <0>         0.1498
     32 H8         -3.4975   -1.0382    1.3408 H         1 <0>         0.1370
     33 H9         -1.7758    3.9509    0.5656 H         1 <0>         0.0709
     34 H10        -2.2746    3.4097   -1.0579 H         1 <0>         0.0762
     35 H11         0.0389    2.3454    0.6237 H         1 <0>         0.0672
     36 H12         0.1395    3.1902   -0.9396 H         1 <0>         0.0695
     37 H13        -1.2305    1.2835   -1.9350 H         1 <0>         0.0639
     38 H14         0.4049    0.8325   -1.3960 H         1 <0>         0.0660
     39 H15        -1.4445   -0.7785   -0.6812 H         1 <0>         0.0694
     40 H16        -0.4577   -0.1328    0.6556 H         1 <0>         0.0678
     41 H17        -4.3784    1.4237    6.5880 H         1 <0>         0.4229
@<TRIPOS>BOND
     1    1    6 ar
     2    1    2 ar
     3    1   26 1
     4    2    3 ar
     5    2   27 1
     6    3   25 1
     7    3    4 ar
     8    4    5 ar
     9    4   11 1
    10    5    6 ar
    11    5   28 1
    12    6    7 1
    13    7    8 2
    14    7    9 2
    15    7   10 1
    16   10   29 1
    17   10   30 1
    18   11   12 2
    19   11   23 1
    20   12   13 1
    21   12   31 1
    22   13   17 1
    23   13   14 2
    24   14   15 1
    25   14   32 1
    26   15   22 1
    27   15   16 2
    28   16   17 1
    29   16   19 1
    30   17   18 1
    31   19   20 1
    32   19   33 1
    33   19   34 1
    34   20   21 1
    35   20   35 1
    36   20   36 1
    37   21   22 1
    38   21   37 1
    39   21   38 1
    40   22   39 1
    41   22   40 1
    42   23   24 2
    43   23   25 am
    44   25   41 1
@<TRIPOS>MOLECULE
ZINC03815534
   59    62     0     0     0
SMALL
USER_CHARGES

@<TRIPOS>ATOM
      1 C1          0.0021   -0.0041    0.0020 C.3       1 <0>         0.0438
      2 N1         -0.0178    1.4608    0.0101 N.am      1 <0>        -0.5103
      3 C2         -1.2216    2.1269    0.0194 C.ar      1 <0>         0.3273
      4 C3         -2.4255    1.4324    0.0320 C.ar      1 <0>        -0.2570
      5 C4         -3.6131    2.1500    0.0463 C.ar      1 <0>         0.4702
      6 C5         -2.5054    4.1825    0.0466 C.ar      1 <0>         0.2330
      7 C6         -1.2621    3.5384    0.0322 C.ar      1 <0>        -0.1530
      8 C7         -0.0566    4.2794    0.0247 C.2       1 <0>        -0.0217
      9 C8          1.1365    3.6096    0.0101 C.2       1 <0>        -0.0865
     10 C9          1.1430    2.1450    0.0027 C.2       1 <0>         0.5408
     11 O1          2.2020    1.5430   -0.0099 O.2       1 <0>        -0.4478
     12 C10         2.4133    4.3610    0.0015 C.ar      1 <0>        -0.0478
     13 C11         3.0084    4.7175   -1.2093 C.ar      1 <0>        -0.0020
     14 C12         4.1956    5.4234   -1.2103 C.ar      1 <0>        -0.1009
     15 C13         4.8007    5.7666   -0.0147 C.ar      1 <0>        -0.0709
     16 C14         4.2192    5.4109    1.1890 C.ar      1 <0>        -0.1008
     17 C15         3.0290    4.7103    1.2040 C.ar      1 <0>        -0.0020
     18 Cl1         2.3008    4.2649    2.7157 Cl        1 <0>        -0.0490
     19 Cl2         2.2543    4.2815   -2.7109 Cl        1 <0>        -0.0490
     20 N2         -4.8205    1.4669    0.0541 N.pl3     1 <0>        -0.7086
     21 C16        -4.8333    0.0019    0.0468 C.3       1 <0>         0.1091
     22 C17        -6.2801   -0.4955    0.0578 C.3       1 <0>        -0.1336
     23 C18        -6.2935   -2.0254    0.0502 C.3       1 <0>        -0.1484
     24 C19        -7.7403   -2.5229    0.0612 C.3       1 <0>        -0.0044
     25 C20        -7.2193   -4.5171   -1.2112 C.3       1 <0>        -0.0424
     26 C21        -7.1952   -6.0467   -1.1527 C.3       1 <0>         0.0335
     27 O2         -8.5135   -6.5291   -0.8796 O.3       1 <0>        -0.3536
     28 C22        -9.0640   -6.0379    0.3456 C.3       1 <0>         0.0333
     29 C23        -9.1070   -4.5081    0.3023 C.3       1 <0>        -0.0387
     30 H1          1.0345   -0.3534   -0.0097 H         1 <0>         0.1198
     31 H2         -0.4983   -0.3791    0.8948 H         1 <0>         0.0913
     32 H3         -0.5153   -0.3696   -0.8850 H         1 <0>         0.0911
     33 H4         -2.4366    0.3525    0.0263 H         1 <0>         0.1832
     34 H5         -2.5521    5.2614    0.0521 H         1 <0>         0.2130
     35 H6         -0.0780    5.3592    0.0300 H         1 <0>         0.1700
     36 H7          4.6545    5.7045   -2.1467 H         1 <0>         0.1511
     37 H8          5.7314    6.3144   -0.0210 H         1 <0>         0.1537
     38 H9          4.6967    5.6818    2.1190 H         1 <0>         0.1511
     39 H10        -5.6562    1.9591    0.0644 H         1 <0>         0.4211
     40 H11        -4.3310   -0.3613   -0.8498 H         1 <0>         0.0906
     41 H12        -4.3143   -0.3703    0.9301 H         1 <0>         0.0909
     42 H13        -6.7824   -0.1322    0.9544 H         1 <0>         0.0904
     43 H14        -6.7990   -0.1232   -0.8255 H         1 <0>         0.0902
     44 H15        -5.7912   -2.3887   -0.8464 H         1 <0>         0.0946
     45 H16        -5.7745   -2.3977    0.9335 H         1 <0>         0.0953
     46 H17        -8.2426   -2.1596    0.9578 H         1 <0>         0.1336
     47 H18        -8.2592   -2.1506   -0.8221 H         1 <0>         0.1344
     48 H19        -7.8544   -4.1943   -2.0362 H         1 <0>         0.1415
     49 H20        -6.2068   -4.1426   -1.3624 H         1 <0>         0.1391
     50 H21        -6.5182   -6.3701   -0.3621 H         1 <0>         0.0818
     51 H22        -6.8539   -6.4422   -2.1094 H         1 <0>         0.1431
     52 H23        -8.4413   -6.3610    1.1798 H         1 <0>         0.0826
     53 H24       -10.0743   -6.4269    0.4725 H         1 <0>         0.1448
     54 H25        -9.4725   -4.1272    1.2559 H         1 <0>         0.1423
     55 H26        -9.7723   -4.1852   -0.4985 H         1 <0>         0.1417
     56 N3         -3.6891    3.5189    0.0539 N.ar      1 <0>        -0.5491
     57 H27        -4.5890    4.0130    0.0644 H         1 <0>         0.4738
     58 N4         -7.7376   -4.0018    0.0738 N.4       1 <0>        -0.3970
     59 H28        -7.1296   -4.3279    0.8342 H         1 <0>         0.4274
@<TRIPOS>BOND
     1    1    2 1
     2    1   30 1
     3    1   31 1
     4    1   32 1
     5    2   10 am
     6    2    3 1
     7    3    7 ar
     8    3    4 ar
     9    4    5 ar
    10    4   33 1
    11    5   20 1
    12    5   56 ar
    13    6    7 ar
    14    6   34 1
    15    6   56 ar
    16    7    8 1
    17    8    9 2
    18    8   35 1
    19    9   10 1
    20    9   12 1
    21   10   11 2
    22   12   17 ar
    23   12   13 ar
    24   13   14 ar
    25   13   19 1
    26   14   15 ar
    27   14   36 1
    28   15   16 ar
    29   15   37 1
    30   16   17 ar
    31   16   38 1
    32   17   18 1
    33   20   21 1
    34   20   39 1
    35   21   22 1
    36   21   40 1
    37   21   41 1
    38   22   23 1
    39   22   42 1
    40   22   43 1
    41   23   24 1
    42   23   44 1
    43   23   45 1
    44   24   46 1
    45   24   47 1
    46   24   58 1
    47   25   26 1
    48   25   48 1
    49   25   49 1
    50   25   58 1
    51   26   27 1
    52   26   50 1
    53   26   51 1
    54   27   28 1
    55   28   29 1
    56   28   52 1
    57   28   53 1
    58   29   54 1
    59   29   55 1
    60   29   58 1
    61   56   57 1
    62   58   59 1
@<TRIPOS>MOLECULE
ZINC03815535
   65    68     0     0     0
SMALL
USER_CHARGES

@<TRIPOS>ATOM
      1 C1         -2.2664    2.6406    5.7207 C.3       1 <0>         0.0704
      2 N1         -1.0652    1.8152    5.8687 N.am      1 <0>        -0.5069
      3 C2         -0.4094    1.3640    4.7512 C.ar      1 <0>         0.4680
      4 C3          0.7497    0.5679    4.8763 C.ar      1 <0>        -0.2728
      5 C4          1.2453    0.2291    6.1562 C.2       1 <0>         0.0214
      6 C5          0.5843    0.6839    7.2655 C.2       1 <0>        -0.1508
      7 C6         -0.6156    1.5073    7.1005 C.2       1 <0>         0.5540
      8 O1         -1.2098    1.9161    8.0821 O.2       1 <0>        -0.4927
      9 C7          1.0781    0.3458    8.6209 C.ar      1 <0>        -0.0178
     10 C8          0.6245   -0.8061    9.2648 C.ar      1 <0>        -0.0058
     11 C9          1.0925   -1.1181   10.5262 C.ar      1 <0>        -0.1048
     12 C10         2.0012   -0.2863   11.1554 C.ar      1 <0>        -0.0836
     13 C11         2.4509    0.8598   10.5247 C.ar      1 <0>        -0.1048
     14 C12         1.9945    1.1808    9.2613 C.ar      1 <0>        -0.0059
     15 Cl1         2.5591    2.6202    8.4720 Cl        1 <0>        -0.0517
     16 Cl2        -0.5209   -1.8478    8.4796 Cl        1 <0>        -0.0520
     17 C13         1.3899    0.1267    3.7087 C.ar      1 <0>         0.2657
     18 N2          0.8797    0.4693    2.5405 N.ar      1 <0>        -0.5847
     19 C14        -0.2103    1.2245    2.4609 C.ar      1 <0>         0.6066
     20 N3         -0.8488    1.6644    3.5342 N.ar      1 <0>        -0.6019
     21 N4         -0.6984    1.5583    1.2133 N.pl3     1 <0>        -0.6967
     22 C15        -0.0127    1.0858    0.0080 C.3       1 <0>         0.1363
     23 C16        -0.7527    1.5927   -1.2315 C.3       1 <0>        -0.1354
     24 C17        -0.0366    1.0992   -2.4903 C.3       1 <0>        -0.1146
     25 C18        -0.7766    1.6061   -3.7298 C.3       1 <0>        -0.1508
     26 C19        -0.0604    1.1126   -4.9886 C.3       1 <0>        -0.0078
     27 C20        -2.1059    0.9933   -6.2796 C.3       1 <0>        -0.0321
     28 C21        -2.8417    1.5842   -7.4845 C.3       1 <0>        -0.0265
     29 C22        -0.7248    1.9407   -8.6026 C.3       1 <0>        -0.0269
     30 C23         0.0111    1.3497   -7.3977 C.3       1 <0>        -0.0265
     31 C24        -2.7703    1.8213   -9.8936 C.3       1 <0>        -0.0462
     32 H1         -3.1464    1.9984    5.6843 H         1 <0>         0.0745
     33 H2         -2.3472    3.3201    6.5692 H         1 <0>         0.0938
     34 H3         -2.1993    3.2176    4.7983 H         1 <0>         0.0929
     35 H4          2.1320   -0.3790    6.2574 H         1 <0>         0.1516
     36 H5          0.7451   -2.0112   11.0242 H         1 <0>         0.1455
     37 H6          2.3610   -0.5326   12.1435 H         1 <0>         0.1479
     38 H7          3.1601    1.5053   11.0215 H         1 <0>         0.1456
     39 H8          2.2790   -0.4839    3.7644 H         1 <0>         0.1870
     40 H9         -1.4954    2.1056    1.1349 H         1 <0>         0.4154
     41 H10         0.0021   -0.0041    0.0020 H         1 <0>         0.0725
     42 H11         1.0099    1.4631    0.0003 H         1 <0>         0.0728
     43 H12        -1.7753    1.2154   -1.2238 H         1 <0>         0.0750
     44 H13        -0.7675    2.6825   -1.2255 H         1 <0>         0.0761
     45 H14         0.9860    1.4765   -2.4981 H         1 <0>         0.0834
     46 H15        -0.0218    0.0093   -2.4963 H         1 <0>         0.0822
     47 H16        -1.7991    1.2288   -3.7221 H         1 <0>         0.0882
     48 H17        -0.7913    2.6960   -3.7239 H         1 <0>         0.0924
     49 H18         0.9622    1.4899   -4.9964 H         1 <0>         0.1439
     50 H19        -0.0456    0.0228   -4.9946 H         1 <0>         0.1418
     51 H20        -2.0072   -0.0848   -6.4067 H         1 <0>         0.1570
     52 H21        -2.6699    1.2025   -5.3706 H         1 <0>         0.1746
     53 H22        -2.9645    2.6582   -7.3447 H         1 <0>         0.1556
     54 H23        -3.8212    1.1151   -7.5784 H         1 <0>         0.1752
     55 H24        -0.8235    3.0187   -8.4755 H         1 <0>         0.1556
     56 H25        -0.1606    1.7318   -9.5115 H         1 <0>         0.1755
     57 H26         0.9905    1.8188   -7.3039 H         1 <0>         0.1751
     58 H27         0.1338    0.2757   -7.5375 H         1 <0>         0.1563
     59 H28        -2.2012    1.5640  -10.7869 H         1 <0>         0.1364
     60 H29        -3.7552    1.3570   -9.9439 H         1 <0>         0.1362
     61 H30        -2.8816    2.9039   -9.8329 H         1 <0>         0.1328
     62 N5         -0.7746    1.6269   -6.1767 N.4       1 <0>        -0.4068
     63 H31        -0.8946    2.6421   -6.0803 H         1 <0>         0.4375
     64 N6         -2.0563    1.3070   -8.7054 N.4       1 <0>        -0.4065
     65 H32        -1.9363    0.2918   -8.8018 H         1 <0>         0.4405
@<TRIPOS>BOND
     1    1    2 1
     2    1   32 1
     3    1   33 1
     4    1   34 1
     5    2    7 am
     6    2    3 1
     7    3   20 ar
     8    3    4 ar
     9    4    5 1
    10    4   17 ar
    11    5    6 2
    12    5   35 1
    13    6    7 1
    14    6    9 1
    15    7    8 2
    16    9   14 ar
    17    9   10 ar
    18   10   11 ar
    19   10   16 1
    20   11   12 ar
    21   11   36 1
    22   12   13 ar
    23   12   37 1
    24   13   14 ar
    25   13   38 1
    26   14   15 1
    27   17   18 ar
    28   17   39 1
    29   18   19 ar
    30   19   20 ar
    31   19   21 1
    32   21   22 1
    33   21   40 1
    34   22   23 1
    35   22   41 1
    36   22   42 1
    37   23   24 1
    38   23   43 1
    39   23   44 1
    40   24   25 1
    41   24   45 1
    42   24   46 1
    43   25   26 1
    44   25   47 1
    45   25   48 1
    46   26   49 1
    47   26   50 1
    48   26   62 1
    49   27   28 1
    50   27   51 1
    51   27   52 1
    52   27   62 1
    53   28   53 1
    54   28   54 1
    55   28   64 1
    56   29   30 1
    57   29   55 1
    58   29   56 1
    59   29   64 1
    60   30   57 1
    61   30   58 1
    62   30   62 1
    63   31   59 1
    64   31   60 1
    65   31   61 1
    66   31   64 1
    67   62   63 1
    68   64   65 1
@<TRIPOS>MOLECULE
ZINC03815536
   67    70     0     0     0
SMALL
USER_CHARGES

@<TRIPOS>ATOM
      1 C1          3.4622  -10.1764    0.4623 C.3       1 <0>        -0.1901
      2 C2          3.0710   -8.7032    0.5943 C.3       1 <0>        -0.0105
      3 C3          1.2360   -8.9043   -0.9724 C.3       1 <0>        -0.0123
      4 C4          0.9393   -8.8001   -2.4698 C.3       1 <0>        -0.1905
      5 C5          2.3399   -6.7709   -0.6684 C.3       1 <0>        -0.0044
      6 C6          3.6996   -6.1003   -0.8747 C.3       1 <0>        -0.1509
      7 C7          3.5304   -4.5803   -0.8314 C.3       1 <0>         0.0637
      8 O1          4.8003   -3.9540   -1.0242 O.3       1 <0>        -0.3137
      9 C8          4.8261   -2.5944   -1.0133 C.ar      1 <0>         0.1030
     10 C9          6.0260   -1.9224   -1.1945 C.ar      1 <0>        -0.1241
     11 C10         6.0532   -0.5418   -1.1832 C.ar      1 <0>        -0.0682
     12 C11         4.8787    0.1739   -0.9907 C.ar      1 <0>         0.1366
     13 C12         3.6786   -0.4998   -0.8041 C.ar      1 <0>        -0.1095
     14 C13         3.6525   -1.8803   -0.8205 C.ar      1 <0>        -0.1857
     15 N1          4.9053    1.5734   -0.9791 N.pl3     1 <0>        -0.6568
     16 C14         5.7426    2.2586   -1.8479 C.ar      1 <0>         0.4335
     17 C15         5.8502    3.6387   -1.7428 C.ar      1 <0>        -0.2829
     18 C16         6.6915    4.3148   -2.6179 C.ar      1 <0>         0.2703
     19 C17         7.4024    3.5631   -3.5795 C.ar      1 <0>        -0.2253
     20 C18         8.2688    4.2171   -4.4871 C.2       1 <0>         0.0206
     21 C19         8.4036    5.5770   -4.4166 C.2       1 <0>        -0.1578
     22 C20         7.6463    6.3273   -3.4121 C.2       1 <0>         0.5505
     23 O2          7.7575    7.5387   -3.3484 O.2       1 <0>        -0.5061
     24 N2          6.8319    5.6821   -2.5541 N.am      1 <0>        -0.5204
     25 C21         6.0855    6.4432   -1.5491 C.3       1 <0>         0.0620
     26 C22         9.3037    6.2867   -5.3552 C.ar      1 <0>        -0.0129
     27 C23        10.6418    6.4965   -5.0194 C.ar      1 <0>        -0.0068
     28 C24        11.4772    7.1533   -5.9017 C.ar      1 <0>        -0.1062
     29 C25        10.9871    7.6133   -7.1107 C.ar      1 <0>        -0.0867
     30 C26         9.6602    7.4140   -7.4470 C.ar      1 <0>        -0.1062
     31 C27         8.8157    6.7533   -6.5764 C.ar      1 <0>        -0.0069
     32 Cl1         7.1508    6.5042   -7.0004 Cl        1 <0>        -0.0513
     33 Cl2        11.2569    5.9267   -3.4993 Cl        1 <0>        -0.0509
     34 C28         7.2342    2.1736   -3.6158 C.ar      1 <0>         0.2284
     35 N3          6.4253    1.5812   -2.7647 N.ar      1 <0>        -0.5469
     36 H1          3.8804  -10.5273    1.4057 H         1 <0>         0.1070
     37 H2          2.5794  -10.7659    0.2146 H         1 <0>         0.0804
     38 H3          4.2054  -10.2856   -0.3276 H         1 <0>         0.0808
     39 H4          3.9538   -8.1137    0.8420 H         1 <0>         0.1296
     40 H5          2.3278   -8.5940    1.3842 H         1 <0>         0.1315
     41 H6          1.3068   -9.9542   -0.6883 H         1 <0>         0.1326
     42 H7          0.4332   -8.4287   -0.4090 H         1 <0>         0.1312
     43 H8          0.9411   -7.7518   -2.7684 H         1 <0>         0.0788
     44 H9          1.7034   -9.3389   -3.0300 H         1 <0>         0.0816
     45 H10        -0.0382   -9.2354   -2.6776 H         1 <0>         0.1070
     46 H11         1.9225   -6.4588    0.2889 H         1 <0>         0.1350
     47 H12         1.6646   -6.4778   -1.4722 H         1 <0>         0.1334
     48 H13         4.1060   -6.3932   -1.8428 H         1 <0>         0.0990
     49 H14         4.3824   -6.4125   -0.0845 H         1 <0>         0.0976
     50 H15         3.1240   -4.2874    0.1366 H         1 <0>         0.0710
     51 H16         2.8476   -4.2681   -1.6216 H         1 <0>         0.0714
     52 H17         6.9392   -2.4791   -1.3442 H         1 <0>         0.1348
     53 H18         6.9875   -0.0188   -1.3243 H         1 <0>         0.1413
     54 H19         2.7655    0.0560   -0.6499 H         1 <0>         0.1290
     55 H20         2.7188   -2.4043   -0.6791 H         1 <0>         0.1270
     56 H21         4.3385    2.0642   -0.3637 H         1 <0>         0.4212
     57 H22         5.2898    4.1777   -0.9932 H         1 <0>         0.1458
     58 H23         8.8166    3.6505   -5.2255 H         1 <0>         0.1470
     59 H24         6.6786    6.5211   -0.6379 H         1 <0>         0.0773
     60 H25         5.8750    7.4417   -1.9321 H         1 <0>         0.0969
     61 H26         5.1477    5.9330   -1.3296 H         1 <0>         0.0860
     62 H27        12.5142    7.3121   -5.6451 H         1 <0>         0.1442
     63 H28        11.6433    8.1306   -7.7950 H         1 <0>         0.1462
     64 H29         9.2838    7.7757   -8.3925 H         1 <0>         0.1441
     65 H30         7.7707    1.5859   -4.3460 H         1 <0>         0.1757
     66 N4          2.5259   -8.2369   -0.6980 N.4       1 <0>        -0.3963
     67 H31         3.1895   -8.4739   -1.4448 H         1 <0>         0.4273
@<TRIPOS>BOND
     1    1    2 1
     2    1   36 1
     3    1   37 1
     4    1   38 1
     5    2   39 1
     6    2   40 1
     7    2   66 1
     8    3    4 1
     9    3   41 1
    10    3   42 1
    11    3   66 1
    12    4   43 1
    13    4   44 1
    14    4   45 1
    15    5    6 1
    16    5   46 1
    17    5   47 1
    18    5   66 1
    19    6    7 1
    20    6   48 1
    21    6   49 1
    22    7    8 1
    23    7   50 1
    24    7   51 1
    25    8    9 1
    26    9   14 ar
    27    9   10 ar
    28   10   11 ar
    29   10   52 1
    30   11   12 ar
    31   11   53 1
    32   12   13 ar
    33   12   15 1
    34   13   14 ar
    35   13   54 1
    36   14   55 1
    37   15   16 1
    38   15   56 1
    39   16   35 ar
    40   16   17 ar
    41   17   18 ar
    42   17   57 1
    43   18   24 1
    44   18   19 ar
    45   19   20 1
    46   19   34 ar
    47   20   21 2
    48   20   58 1
    49   21   22 1
    50   21   26 1
    51   22   23 2
    52   22   24 am
    53   24   25 1
    54   25   59 1
    55   25   60 1
    56   25   61 1
    57   26   31 ar
    58   26   27 ar
    59   27   28 ar
    60   27   33 1
    61   28   29 ar
    62   28   62 1
    63   29   30 ar
    64   29   63 1
    65   30   31 ar
    66   30   64 1
    67   31   32 1
    68   34   35 ar
    69   34   65 1
    70   66   67 1
@<TRIPOS>MOLECULE
ZINC03815537
   44    47     0     0     0
SMALL
USER_CHARGES

@<TRIPOS>ATOM
      1 C1         -3.9598    6.4151    1.6200 C.ar      1 <0>        -0.0652
      2 C2         -2.6378    6.4420    2.0160 C.ar      1 <0>        -0.1314
      3 C3         -1.7837    5.4018    1.6679 C.ar      1 <0>         0.1484
      4 C4         -2.2831    4.3350    0.9077 C.ar      1 <0>        -0.0734
      5 C5         -3.6185    4.3131    0.5195 C.ar      1 <0>        -0.0428
      6 C6         -4.4519    5.3559    0.8746 C.ar      1 <0>        -0.1091
      7 Br1        -6.2662    5.3382    0.3421 Br        1 <0>        -0.0460
      8 C7         -1.1529    3.4011    0.7073 C.2       1 <0>        -0.2395
      9 C8         -1.1650    2.2025    0.0198 C.2       1 <0>         0.1180
     10 C9          0.0417    1.5105   -0.2121 C.2       1 <0>        -0.0373
     11 C10         0.2006    0.1326   -0.2662 C.2       1 <0>        -0.0521
     12 C11         1.5456   -0.1107   -0.5208 C.2       1 <0>        -0.1752
     13 C12         2.1823    1.0891   -0.6171 C.2       1 <0>         0.0686
     14 N1          1.2794    2.0793   -0.4325 N.pl3     1 <0>        -0.5065
     15 H1          1.4700    3.0302   -0.4526 H         1 <0>         0.4157
     16 C13         3.6612    1.2368   -0.8866 C.3       1 <0>        -0.0526
     17 C14         4.3406   -0.1094   -0.6096 C.3       1 <0>        -0.1110
     18 C15         3.5884   -1.2230   -1.3432 C.3       1 <0>        -0.1182
     19 C16         2.2275   -1.4477   -0.6731 C.3       1 <0>        -0.0488
     20 C17        -0.8792   -0.9027   -0.0838 C.3       1 <0>        -0.0411
     21 C18        -1.5080   -1.2282   -1.4402 C.3       1 <0>        -0.1461
     22 C19        -2.5878   -2.2634   -1.2578 C.2       1 <0>         0.4589
     23 O1         -2.8297   -2.6965   -0.1560 O.co2     1 <0>        -0.6407
     24 C20        -0.0142    4.0267    1.3918 C.2       1 <0>         0.5595
     25 O2          1.1158    3.5763    1.4592 O.2       1 <0>        -0.5142
     26 N2         -0.4366    5.1831    1.9304 N.am      1 <0>        -0.6515
     27 H2         -4.6170    7.2271    1.8942 H         1 <0>         0.1384
     28 H3         -2.2661    7.2730    2.5972 H         1 <0>         0.1336
     29 H4         -4.0009    3.4869   -0.0615 H         1 <0>         0.1412
     30 H5         -2.0985    1.7958   -0.3400 H         1 <0>         0.1554
     31 H6          4.0792    2.0006   -0.2309 H         1 <0>         0.0734
     32 H7          3.8181    1.5198   -1.9274 H         1 <0>         0.0769
     33 H8          4.3291   -0.3084    0.4620 H         1 <0>         0.0670
     34 H9          5.3717   -0.0750   -0.9613 H         1 <0>         0.0671
     35 H10         4.1706   -2.1436   -1.3011 H         1 <0>         0.0650
     36 H11         3.4380   -0.9355   -2.3838 H         1 <0>         0.0637
     37 H12         2.3716   -1.9002    0.3080 H         1 <0>         0.0681
     38 H13         1.6163   -2.1029   -1.2938 H         1 <0>         0.0753
     39 H14        -0.4466   -1.8077    0.3426 H         1 <0>         0.0755
     40 H15        -1.6449   -0.5146    0.5879 H         1 <0>         0.0683
     41 H16        -1.9406   -0.3232   -1.8666 H         1 <0>         0.0610
     42 H17        -0.7423   -1.6163   -2.1119 H         1 <0>         0.0648
     43 H18         0.1271    5.7883    2.4373 H         1 <0>         0.4153
     44 O3         -3.2809   -2.7044   -2.3193 O.co2     1 <0>        -0.7764
@<TRIPOS>BOND
     1    1    6 ar
     2    1    2 ar
     3    1   27 1
     4    2    3 ar
     5    2   28 1
     6    3   26 1
     7    3    4 ar
     8    4    5 ar
     9    4    8 1
    10    5    6 ar
    11    5   29 1
    12    6    7 1
    13    8    9 2
    14    8   24 1
    15    9   10 1
    16    9   30 1
    17   10   14 1
    18   10   11 2
    19   11   12 1
    20   11   20 1
    21   12   19 1
    22   12   13 2
    23   13   14 1
    24   13   16 1
    25   14   15 1
    26   16   17 1
    27   16   31 1
    28   16   32 1
    29   17   18 1
    30   17   33 1
    31   17   34 1
    32   18   19 1
    33   18   35 1
    34   18   36 1
    35   19   37 1
    36   19   38 1
    37   20   21 1
    38   20   39 1
    39   20   40 1
    40   21   22 1
    41   21   41 1
    42   21   42 1
    43   22   23 2
    44   22   44 1
    45   24   25 2
    46   24   26 am
    47   26   43 1
@<TRIPOS>MOLECULE
ZINC03815538
   44    47     0     0     0
SMALL
USER_CHARGES

@<TRIPOS>ATOM
      1 C1         -4.2553   -0.6263    0.7643 C.ar      1 <0>        -0.1369
      2 C2         -5.0695    0.2979    1.3980 C.ar      1 <0>        -0.0951
      3 C3         -4.5900    1.5498    1.7254 C.ar      1 <0>        -0.1377
      4 C4         -3.2780    1.8961    1.4209 C.ar      1 <0>         0.1305
      5 C5         -2.4572    0.9581    0.7802 C.ar      1 <0>        -0.0810
      6 C6         -2.9503   -0.3015    0.4546 C.ar      1 <0>        -0.0711
      7 C7         -1.1426    1.6118    0.5953 C.2       1 <0>        -0.2350
      8 C8         -0.0126    1.0758    0.0080 C.2       1 <0>         0.1092
      9 C9          1.1121    1.8921   -0.2319 C.2       1 <0>        -0.0334
     10 C10         2.4407    1.4918   -0.1921 C.2       1 <0>        -0.0567
     11 C11         3.2103    2.6109   -0.4892 C.2       1 <0>        -0.1746
     12 C12         2.3684    3.6597   -0.7021 C.2       1 <0>         0.0647
     13 N1          1.0930    3.2335   -0.5551 N.pl3     1 <0>        -0.5064
     14 H1          0.2982    3.7799   -0.6573 H         1 <0>         0.4153
     15 C13         2.8336    5.0542   -1.0489 C.3       1 <0>        -0.0521
     16 C14         4.3236    5.1670   -0.7055 C.3       1 <0>        -0.1108
     17 C15         5.0814    3.9873   -1.3204 C.3       1 <0>        -0.1180
     18 C16         4.7139    2.6990   -0.5741 C.3       1 <0>        -0.0485
     19 C17         2.9516    0.1076    0.1146 C.3       1 <0>        -0.0400
     20 C18         3.0669   -0.6929   -1.1841 C.3       1 <0>        -0.1460
     21 C19         3.5779   -2.0771   -0.8773 C.2       1 <0>         0.4589
     22 O1          3.8244   -2.3911    0.2631 O.co2     1 <0>        -0.6408
     23 C20        -1.2971    2.9514    1.1769 C.2       1 <0>         0.5575
     24 O2         -0.4362    3.8116    1.2317 O.2       1 <0>        -0.5188
     25 N2         -2.5556    3.0635    1.6346 N.am      1 <0>        -0.6535
     26 H2         -4.6421   -1.6028    0.5128 H         1 <0>         0.1285
     27 H3         -6.0896    0.0364    1.6377 H         1 <0>         0.1275
     28 H4         -5.2347    2.2617    2.2194 H         1 <0>         0.1228
     29 H5         -2.3147   -1.0217   -0.0390 H         1 <0>         0.1311
     30 H6          0.0077    0.0328   -0.2715 H         1 <0>         0.1540
     31 H7          2.2674    5.7844   -0.4707 H         1 <0>         0.0728
     32 H8          2.6877    5.2356   -2.1138 H         1 <0>         0.0760
     33 H9          4.4486    5.1542    0.3773 H         1 <0>         0.0668
     34 H10         4.7188    6.1007   -1.1055 H         1 <0>         0.0666
     35 H11         6.1542    4.1618   -1.2377 H         1 <0>         0.0646
     36 H12         4.8093    3.8888   -2.3713 H         1 <0>         0.0634
     37 H13         5.1376    2.7228    0.4299 H         1 <0>         0.0676
     38 H14         5.1021    1.8370   -1.1167 H         1 <0>         0.0749
     39 H15         3.9318    0.1783    0.5862 H         1 <0>         0.0747
     40 H16         2.2587   -0.3940    0.7903 H         1 <0>         0.0678
     41 H17         2.0868   -0.7636   -1.6556 H         1 <0>         0.0609
     42 H18         3.7598   -0.1913   -1.8597 H         1 <0>         0.0646
     43 H19        -2.9127    3.8566    2.0641 H         1 <0>         0.4128
     44 O3          3.7590   -2.9611   -1.8710 O.co2     1 <0>        -0.7772
@<TRIPOS>BOND
     1    1    6 ar
     2    1    2 ar
     3    1   26 1
     4    2    3 ar
     5    2   27 1
     6    3    4 ar
     7    3   28 1
     8    4   25 1
     9    4    5 ar
    10    5    6 ar
    11    5    7 1
    12    6   29 1
    13    7    8 2
    14    7   23 1
    15    8    9 1
    16    8   30 1
    17    9   13 1
    18    9   10 2
    19   10   11 1
    20   10   19 1
    21   11   18 1
    22   11   12 2
    23   12   13 1
    24   12   15 1
    25   13   14 1
    26   15   16 1
    27   15   31 1
    28   15   32 1
    29   16   17 1
    30   16   33 1
    31   16   34 1
    32   17   18 1
    33   17   35 1
    34   17   36 1
    35   18   37 1
    36   18   38 1
    37   19   20 1
    38   19   39 1
    39   19   40 1
    40   20   21 1
    41   20   41 1
    42   20   42 1
    43   21   22 2
    44   21   44 1
    45   23   24 2
    46   23   25 am
    47   25   43 1
@<TRIPOS>MOLECULE
ZINC03815539
   54    56     0     0     0
SMALL
USER_CHARGES

@<TRIPOS>ATOM
      1 C1          8.3808    6.4604   -0.0431 C.3       1 <0>        -0.1190
      2 C2          7.1078    5.6539   -0.0353 C.ar      1 <0>        -0.0664
      3 C3          6.5144    5.2917   -1.2312 C.ar      1 <0>        -0.1270
      4 C4          5.3491    4.5524   -1.2302 C.ar      1 <0>        -0.0550
      5 C5          4.7698    4.1711   -0.0210 C.ar      1 <0>        -0.0674
      6 C6          5.3690    4.5443    1.1810 C.ar      1 <0>        -0.0550
      7 C7          6.5375    5.2784    1.1677 C.ar      1 <0>        -0.1270
      8 C8          4.7452    4.1416    2.4924 C.3       1 <0>        -0.1179
      9 C9          3.5179    3.3767   -0.0134 C.ar      1 <0>        -0.1482
     10 C10         3.5691    1.9916   -0.0218 C.ar      1 <0>         0.0317
     11 C11         2.3540    1.2879   -0.0135 C.ar      1 <0>        -0.2936
     12 C12         2.3093   -0.1169   -0.0210 C.ar      1 <0>         0.2628
     13 N1          1.1319   -0.7082   -0.0130 N.ar      1 <0>        -0.5713
     14 C13         0.0021   -0.0041    0.0020 C.ar      1 <0>         0.5938
     15 N2         -0.0158    1.3152    0.0093 N.ar      1 <0>        -0.5641
     16 C14         1.1302    2.0077    0.0020 C.ar      1 <0>         0.4254
     17 N3          1.1376    3.3417    0.0091 N.ar      1 <0>        -0.4767
     18 C15         2.2646    4.0243    0.0020 C.ar      1 <0>         0.4708
     19 N4          2.2178    5.4108    0.0104 N.am      1 <0>        -0.6597
     20 C16         1.0286    6.0449    0.0255 C.2       1 <0>         0.6903
     21 O1         -0.0031    5.4018    0.0319 O.2       1 <0>        -0.5048
     22 N5          0.9831    7.3918    0.0336 N.am      1 <0>        -0.7358
     23 C17        -0.3095    8.0810    0.0501 C.3       1 <0>         0.1880
     24 C18        -1.0867    7.6774    1.3047 C.3       1 <0>        -0.1660
     25 C19        -0.0809    9.5938    0.0565 C.3       1 <0>        -0.1554
     26 C20        -1.1110    7.6916   -1.1936 C.3       1 <0>        -0.1660
     27 N6         -1.2015   -0.6829    0.0098 N.pl3     1 <0>        -0.8118
     28 C21         4.7043    4.1576   -2.5339 C.3       1 <0>        -0.1188
     29 H1          8.1378    7.5230   -0.0351 H         1 <0>         0.0728
     30 H2          8.9712    6.2161    0.8400 H         1 <0>         0.0681
     31 H3          8.9542    6.2256   -0.9399 H         1 <0>         0.0681
     32 H4          6.9641    5.5876   -2.1675 H         1 <0>         0.1249
     33 H5          7.0050    5.5643    2.0983 H         1 <0>         0.1249
     34 H6          5.1451    3.1767    2.8038 H         1 <0>         0.0748
     35 H7          4.9749    4.8915    3.2494 H         1 <0>         0.0692
     36 H8          3.6645    4.0655    2.3726 H         1 <0>         0.0638
     37 H9          4.5145    1.4696   -0.0336 H         1 <0>         0.1500
     38 H10         3.2193   -0.6983   -0.0328 H         1 <0>         0.1796
     39 H11         3.0410    5.9239    0.0053 H         1 <0>         0.4149
     40 H12         1.8063    7.9049    0.0285 H         1 <0>         0.3939
     41 H13        -0.5157    7.9548    2.1907 H         1 <0>         0.0525
     42 H14        -2.0485    8.1902    1.3169 H         1 <0>         0.0638
     43 H15        -1.2496    6.5997    1.3001 H         1 <0>         0.0815
     44 H16         0.4728    9.8814   -0.8373 H         1 <0>         0.0621
     45 H17        -1.0427   10.1066    0.0687 H         1 <0>         0.0764
     46 H18         0.4901    9.8713    0.9425 H         1 <0>         0.0621
     47 H19        -1.2739    6.6138   -1.1982 H         1 <0>         0.0815
     48 H20        -2.0728    8.2044   -1.1814 H         1 <0>         0.0638
     49 H21        -0.5573    7.9791   -2.0874 H         1 <0>         0.0524
     50 H22        -2.0366   -0.1895    0.0205 H         1 <0>         0.4182
     51 H23        -1.2113   -1.6529    0.0047 H         1 <0>         0.4166
     52 H24         3.9981    4.9300   -2.8385 H         1 <0>         0.0705
     53 H25         5.4720    4.0449   -3.2994 H         1 <0>         0.0704
     54 H26         4.1766    3.2124   -2.4067 H         1 <0>         0.0673
@<TRIPOS>BOND
     1    1    2 1
     2    1   29 1
     3    1   30 1
     4    1   31 1
     5    2    7 ar
     6    2    3 ar
     7    3    4 ar
     8    3   32 1
     9    4    5 ar
    10    4   28 1
    11    5    6 ar
    12    5    9 1
    13    6    7 ar
    14    6    8 1
    15    7   33 1
    16    8   34 1
    17    8   35 1
    18    8   36 1
    19    9   18 ar
    20    9   10 ar
    21   10   11 ar
    22   10   37 1
    23   11   16 ar
    24   11   12 ar
    25   12   13 ar
    26   12   38 1
    27   13   14 ar
    28   14   15 ar
    29   14   27 1
    30   15   16 ar
    31   16   17 ar
    32   17   18 ar
    33   18   19 1
    34   19   20 am
    35   19   39 1
    36   20   21 2
    37   20   22 am
    38   22   23 1
    39   22   40 1
    40   23   24 1
    41   23   25 1
    42   23   26 1
    43   24   41 1
    44   24   42 1
    45   24   43 1
    46   25   44 1
    47   25   45 1
    48   25   46 1
    49   26   47 1
    50   26   48 1
    51   26   49 1
    52   27   50 1
    53   27   51 1
    54   28   52 1
    55   28   53 1
    56   28   54 1
@<TRIPOS>MOLECULE
ZINC03815540
   42    44     0     0     0
SMALL
USER_CHARGES

@<TRIPOS>ATOM
      1 C1         -0.3079    1.0798    0.1616 C.3       1 <0>        -0.0881
      2 C2         -0.8840    1.3954    1.5179 C.2       1 <0>        -0.0948
      3 C3         -2.2386    1.4630    1.8489 C.2       1 <0>        -0.1586
      4 C4         -2.3323    1.7694    3.1669 C.2       1 <0>         0.0547
      5 N1         -1.0828    1.9072    3.6777 N.pl3     1 <0>        -0.5105
      6 H1         -0.8685    2.1285    4.5975 H         1 <0>         0.4149
      7 C5         -0.1689    1.6793    2.6713 C.2       1 <0>        -0.0175
      8 C6          1.2353    1.7263    2.7925 C.2       1 <0>         0.0780
      9 C7          1.8237    2.6209    3.6658 C.2       1 <0>        -0.2045
     10 C8          3.2537    2.7076    4.0395 C.ar      1 <0>        -0.1093
     11 C9          4.3791    1.9918    3.6593 C.ar      1 <0>        -0.0321
     12 C10         5.6231    2.3269    4.1962 C.ar      1 <0>        -0.1312
     13 C11         5.7246    3.3846    5.1076 C.ar      1 <0>        -0.0470
     14 C12         4.6077    4.0961    5.4780 C.ar      1 <0>        -0.1528
     15 C13         3.3594    3.7719    4.9495 C.ar      1 <0>         0.1251
     16 N2          2.1043    4.3206    5.1544 N.am      1 <0>        -0.6498
     17 C14         1.1660    3.6883    4.4299 C.2       1 <0>         0.5557
     18 O1         -0.0227    3.9538    4.4109 O.2       1 <0>        -0.5235
     19 C15         6.8263    1.5690    3.8050 C.2       1 <0>         0.4935
     20 O2          6.7358    0.6513    3.0138 O.co2     1 <0>        -0.6300
     21 C16        -3.6164    1.9368    3.9376 C.3       1 <0>        -0.0866
     22 C17        -3.3932    1.2322    0.9085 C.3       1 <0>        -0.0261
     23 C18        -3.7732   -0.2498    0.9215 C.3       1 <0>        -0.1470
     24 C19        -4.9279   -0.4806   -0.0190 C.2       1 <0>         0.4595
     25 O3         -5.3986    0.4452   -0.6363 O.co2     1 <0>        -0.6440
     26 H2         -0.1565    0.0040    0.0725 H         1 <0>         0.0681
     27 H3          0.6471    1.5920    0.0443 H         1 <0>         0.0594
     28 H4         -0.9976    1.4150   -0.6130 H         1 <0>         0.0690
     29 H5          1.8507    1.0630    2.2028 H         1 <0>         0.1513
     30 H6          4.2927    1.1771    2.9556 H         1 <0>         0.1333
     31 H7          6.6874    3.6440    5.5227 H         1 <0>         0.1379
     32 H8          4.6981    4.9099    6.1823 H         1 <0>         0.1192
     33 H9          1.9251    5.0672    5.7471 H         1 <0>         0.4098
     34 H10        -3.9386    2.9768    3.8854 H         1 <0>         0.0714
     35 H11        -4.3854    1.2962    3.5059 H         1 <0>         0.0850
     36 H12        -3.4542    1.6586    4.9789 H         1 <0>         0.0589
     37 H13        -4.2473    1.8290    1.2284 H         1 <0>         0.0622
     38 H14        -3.1037    1.5242   -0.1010 H         1 <0>         0.0660
     39 H15        -2.9191   -0.8467    0.6015 H         1 <0>         0.0628
     40 H16        -4.0628   -0.5418    1.9309 H         1 <0>         0.0592
     41 O4          8.0261    1.8942    4.3251 O.co2     1 <0>        -0.7585
     42 O5         -5.4333   -1.7148   -0.1709 O.co2     1 <0>        -0.7830
@<TRIPOS>BOND
     1    1    2 1
     2    1   26 1
     3    1   27 1
     4    1   28 1
     5    2    7 2
     6    2    3 1
     7    3    4 2
     8    3   22 1
     9    4    5 1
    10    4   21 1
    11    5    6 1
    12    5    7 1
    13    7    8 1
    14    8    9 2
    15    8   29 1
    16    9   17 1
    17    9   10 1
    18   10   15 ar
    19   10   11 ar
    20   11   12 ar
    21   11   30 1
    22   12   13 ar
    23   12   19 1
    24   13   14 ar
    25   13   31 1
    26   14   15 ar
    27   14   32 1
    28   15   16 1
    29   16   17 am
    30   16   33 1
    31   17   18 2
    32   19   20 2
    33   19   41 1
    34   21   34 1
    35   21   35 1
    36   21   36 1
    37   22   23 1
    38   22   37 1
    39   22   38 1
    40   23   24 1
    41   23   39 1
    42   23   40 1
    43   24   25 2
    44   24   42 1
@<TRIPOS>MOLECULE
ZINC03815541
   45    47     0     0     0
SMALL
USER_CHARGES

@<TRIPOS>ATOM
      1 C1         -0.3077    1.0815    0.1611 C.3       1 <0>        -0.0933
      2 C2         -0.8839    1.3962    1.5175 C.2       1 <0>        -0.0730
      3 C3         -2.2385    1.4635    1.8485 C.2       1 <0>        -0.1583
      4 C4         -2.3324    1.7690    3.1667 C.2       1 <0>         0.0787
      5 N1         -1.0830    1.9065    3.6777 N.pl3     1 <0>        -0.5133
      6 H1         -0.8688    2.1277    4.5975 H         1 <0>         0.4155
      7 C5         -0.1690    1.6793    2.6712 C.2       1 <0>        -0.0423
      8 C6          1.2352    1.7259    2.7927 C.2       1 <0>         0.1161
      9 C7          1.8238    2.6202    3.6663 C.2       1 <0>        -0.2427
     10 C8          3.2532    2.7056    4.0394 C.ar      1 <0>        -0.1004
     11 C9          4.3829    1.9885    3.6586 C.ar      1 <0>         0.0280
     12 C10         5.6137    2.3187    4.1885 C.ar      1 <0>        -0.6972
     13 C11         5.7236    3.3637    5.0911 C.ar      1 <0>         0.0065
     14 C12         4.6102    4.0853    5.4704 C.ar      1 <0>        -0.1565
     15 C13         3.3613    3.7678    4.9474 C.ar      1 <0>         0.1959
     16 N2          2.1035    4.3200    5.1551 N.am      1 <0>        -0.6521
     17 C14         1.1652    3.6875    4.4303 C.2       1 <0>         0.5566
     18 O1         -0.0237    3.9529    4.4106 O.2       1 <0>        -0.5016
     19 S1          7.0472    1.4093    3.7167 S.o2      1 <0>         2.7057
     20 O2          6.7651    0.8363    2.4474 O.2       1 <0>        -0.9621
     21 O3          8.1609    2.2642    3.9361 O.2       1 <0>        -0.9657
     22 N3          7.2004    0.1499    4.7811 N.pl3     1 <0>        -1.2509
     23 C15        -3.6166    1.9354    3.9375 C.3       1 <0>        -0.0931
     24 C16        -3.3931    1.2332    0.9078 C.3       1 <0>        -0.0301
     25 C17        -3.7730   -0.2489    0.9198 C.3       1 <0>        -0.1470
     26 C18        -4.9276   -0.4791   -0.0209 C.2       1 <0>         0.4580
     27 O4         -5.3983    0.4471   -0.6376 O.co2     1 <0>        -0.6420
     28 H2         -0.1563    0.0058    0.0712 H         1 <0>         0.0731
     29 H3          0.6472    1.5939    0.0442 H         1 <0>         0.0600
     30 H4         -0.9974    1.4173   -0.6134 H         1 <0>         0.0748
     31 H5          1.8505    1.0626    2.2029 H         1 <0>         0.1538
     32 H6          4.2964    1.1737    2.9551 H         1 <0>         0.1484
     33 H7          6.6901    3.6164    5.5016 H         1 <0>         0.1492
     34 H8          4.7088    4.8979    6.1749 H         1 <0>         0.1374
     35 H9          1.9253    5.0668    5.7479 H         1 <0>         0.4185
     36 H10         6.5538    0.0372    5.4954 H         1 <0>         0.4170
     37 H11         7.9366   -0.4751    4.6902 H         1 <0>         0.4203
     38 H12        -3.9389    2.9754    3.8863 H         1 <0>         0.0772
     39 H13        -4.3854    1.2950    3.5051 H         1 <0>         0.0903
     40 H14        -3.4543    1.6562    4.9785 H         1 <0>         0.0626
     41 H15        -4.2473    1.8298    1.2281 H         1 <0>         0.0661
     42 H16        -3.1035    1.5259   -0.1014 H         1 <0>         0.0690
     43 H17        -2.9188   -0.8454    0.5995 H         1 <0>         0.0622
     44 H18        -4.0626   -0.5415    1.9290 H         1 <0>         0.0597
     45 O5         -5.4330   -1.7132   -0.1736 O.co2     1 <0>        -0.7790
@<TRIPOS>BOND
     1    1    2 1
     2    1   28 1
     3    1   29 1
     4    1   30 1
     5    2    7 2
     6    2    3 1
     7    3    4 2
     8    3   24 1
     9    4    5 1
    10    4   23 1
    11    5    6 1
    12    5    7 1
    13    7    8 1
    14    8    9 2
    15    8   31 1
    16    9   17 1
    17    9   10 1
    18   10   15 ar
    19   10   11 ar
    20   11   12 ar
    21   11   32 1
    22   12   13 ar
    23   12   19 1
    24   13   14 ar
    25   13   33 1
    26   14   15 ar
    27   14   34 1
    28   15   16 1
    29   16   17 am
    30   16   35 1
    31   17   18 2
    32   19   20 2
    33   19   21 2
    34   19   22 1
    35   22   36 1
    36   22   37 1
    37   23   38 1
    38   23   39 1
    39   23   40 1
    40   24   25 1
    41   24   41 1
    42   24   42 1
    43   25   26 1
    44   25   43 1
    45   25   44 1
    46   26   27 2
    47   26   45 1
@<TRIPOS>MOLECULE
ZINC03815542
   45    47     0     0     0
SMALL
USER_CHARGES

@<TRIPOS>ATOM
      1 C1         -4.5493    2.1167   -6.0775 C.3       1 <0>        -0.1661
      2 C2         -3.1567    1.4877   -5.9994 C.3       1 <0>         0.1883
      3 C3         -2.2980    2.0049   -7.1553 C.3       1 <0>        -0.1552
      4 C4         -3.2785   -0.0344   -6.0957 C.3       1 <0>        -0.1660
      5 N1         -2.5290    1.8478   -4.7256 N.am      1 <0>        -0.7355
      6 C5         -3.1119    1.4935   -3.5632 C.2       1 <0>         0.6925
      7 O1         -4.1586    0.8752   -3.5717 O.2       1 <0>        -0.5021
      8 N2         -2.5345    1.8248   -2.3913 N.am      1 <0>        -0.6599
      9 C6         -3.1345    1.4601   -1.1947 C.ar      1 <0>         0.4880
     10 C7         -2.5164    1.8149    0.0233 C.ar      1 <0>        -0.1789
     11 C8         -3.1095    1.4477    1.2206 C.ar      1 <0>         0.0545
     12 C9         -4.3206    0.7383    1.1651 C.ar      1 <0>        -0.2941
     13 C10        -4.9957    0.3297    2.3281 C.ar      1 <0>         0.2669
     14 N3         -6.1251   -0.3365    2.1979 N.ar      1 <0>        -0.5712
     15 C11        -6.6270   -0.6229    0.9986 C.ar      1 <0>         0.5965
     16 N4         -6.0365   -0.2645   -0.1256 N.ar      1 <0>        -0.5644
     17 C12        -4.8838    0.4163   -0.0975 C.ar      1 <0>         0.4334
     18 N5         -4.2684    0.7899   -1.2208 N.ar      1 <0>        -0.4728
     19 N6         -7.8153   -1.3249    0.9281 N.pl3     1 <0>        -0.8107
     20 C13        -1.2399    2.5690    0.0219 C.ar      1 <0>         0.0027
     21 C14        -1.2505    3.9636    0.0358 C.ar      1 <0>        -0.0770
     22 C15        -0.0581    4.6604    0.0277 C.ar      1 <0>        -0.0749
     23 C16         1.1449    3.9780    0.0125 C.ar      1 <0>        -0.0984
     24 C17         1.1621    2.5949    0.0049 C.ar      1 <0>        -0.0749
     25 C18        -0.0236    1.8867    0.0124 C.ar      1 <0>        -0.0772
     26 Br1         0.0021   -0.0041    0.0020 Br        1 <0>        -0.0230
     27 Br2        -2.8941    4.8985    0.0573 Br        1 <0>        -0.0229
     28 H1         -4.4626    3.2011   -6.0088 H         1 <0>         0.0526
     29 H2         -5.0163    1.8488   -7.0252 H         1 <0>         0.0638
     30 H3         -5.1611    1.7483   -5.2540 H         1 <0>         0.0817
     31 H4         -1.3059    1.5568   -7.0996 H         1 <0>         0.0621
     32 H5         -2.7650    1.7370   -8.1030 H         1 <0>         0.0765
     33 H6         -2.2113    3.0892   -7.0866 H         1 <0>         0.0621
     34 H7         -3.8902   -0.4028   -5.2722 H         1 <0>         0.0817
     35 H8         -3.7455   -0.3022   -7.0435 H         1 <0>         0.0638
     36 H9         -2.2864   -0.4824   -6.0401 H         1 <0>         0.0526
     37 H10        -1.6939    2.3411   -4.7188 H         1 <0>         0.3934
     38 H11        -1.6993    2.3181   -2.3845 H         1 <0>         0.4106
     39 H12        -2.6565    1.7023    2.1674 H         1 <0>         0.1506
     40 H13        -4.5980    0.5567    3.3062 H         1 <0>         0.1805
     41 H14        -8.1985   -1.5444    0.0645 H         1 <0>         0.4185
     42 H15        -8.2662   -1.5982    1.7423 H         1 <0>         0.4169
     43 H16        -0.0650    5.7404    0.0336 H         1 <0>         0.1446
     44 H17         2.0747    4.5273    0.0062 H         1 <0>         0.1457
     45 H18         2.1046    2.0677   -0.0066 H         1 <0>         0.1446
@<TRIPOS>BOND
     1    1    2 1
     2    1   28 1
     3    1   29 1
     4    1   30 1
     5    2    3 1
     6    2    4 1
     7    2    5 1
     8    3   31 1
     9    3   32 1
    10    3   33 1
    11    4   34 1
    12    4   35 1
    13    4   36 1
    14    5    6 am
    15    5   37 1
    16    6    7 2
    17    6    8 am
    18    8    9 1
    19    8   38 1
    20    9   18 ar
    21    9   10 ar
    22   10   11 ar
    23   10   20 1
    24   11   12 ar
    25   11   39 1
    26   12   17 ar
    27   12   13 ar
    28   13   14 ar
    29   13   40 1
    30   14   15 ar
    31   15   16 ar
    32   15   19 1
    33   16   17 ar
    34   17   18 ar
    35   19   41 1
    36   19   42 1
    37   20   25 ar
    38   20   21 ar
    39   21   22 ar
    40   21   27 1
    41   22   23 ar
    42   22   43 1
    43   23   24 ar
    44   23   44 1
    45   24   25 ar
    46   24   45 1
    47   25   26 1
@<TRIPOS>MOLECULE
ZINC03815543
   38    41     0     0     0
SMALL
USER_CHARGES

@<TRIPOS>ATOM
      1 C1         -8.4523    0.3913    6.7310 C.ar      1 <0>        -0.0334
      2 C2         -7.1405    0.7466    6.9431 C.ar      1 <0>        -0.1546
      3 C3         -6.2637    0.8751    5.8678 C.ar      1 <0>         0.1395
      4 C4         -6.7349    0.6433    4.5650 C.ar      1 <0>        -0.1388
      5 C5         -8.0548    0.2784    4.3483 C.ar      1 <0>        -0.0189
      6 C6         -8.9229    0.1537    5.4345 C.ar      1 <0>        -0.1334
      7 C7        -10.3311   -0.2268    5.2166 C.2       1 <0>         0.4924
      8 O1        -10.7374   -0.4327    4.0901 O.co2     1 <0>        -0.6301
      9 C8         -5.5804    0.8532    3.6622 C.2       1 <0>        -0.1147
     10 C9         -5.5568    0.7364    2.2857 C.2       1 <0>         0.0178
     11 C10        -4.3616    0.9792    1.5778 C.2       1 <0>         0.0215
     12 C11        -3.4384    0.0246    1.1734 C.2       1 <0>        -0.1515
     13 C12        -2.4199    0.7006    0.5111 C.2       1 <0>        -0.1620
     14 C13        -2.7194    2.0289    0.5168 C.2       1 <0>         0.0216
     15 N1         -3.8958    2.2090    1.1599 N.pl3     1 <0>        -0.5247
     16 H1         -4.3381    3.0603    1.3032 H         1 <0>         0.4111
     17 C14        -1.8447    3.0904   -0.1065 C.3       1 <0>        -0.0480
     18 C15        -0.4506    2.4955   -0.3372 C.3       1 <0>        -0.1114
     19 C16        -0.5803    1.1566   -1.0684 C.3       1 <0>        -0.1177
     20 C17        -1.1821    0.1127   -0.1199 C.3       1 <0>        -0.0460
     21 C18        -4.4674    1.2189    4.5475 C.2       1 <0>         0.5540
     22 O2         -3.3305    1.4803    4.1969 O.2       1 <0>        -0.4947
     23 N2         -4.9222    1.2151    5.8117 N.am      1 <0>        -0.6537
     24 H2         -9.1241    0.2948    7.5711 H         1 <0>         0.1423
     25 H3         -6.7885    0.9272    7.9480 H         1 <0>         0.1241
     26 H4         -8.4106    0.0970    3.3449 H         1 <0>         0.1350
     27 H5         -6.4538    0.4591    1.7519 H         1 <0>         0.1474
     28 H6         -3.4997   -1.0405    1.3413 H         1 <0>         0.1347
     29 H7         -1.7721    3.9463    0.5645 H         1 <0>         0.0687
     30 H8         -2.2716    3.4052   -1.0588 H         1 <0>         0.0726
     31 H9          0.0408    2.3387    0.6230 H         1 <0>         0.0665
     32 H10         0.1422    3.1829   -0.9406 H         1 <0>         0.0660
     33 H11        -1.2301    1.2774   -1.9352 H         1 <0>         0.0627
     34 H12         0.4048    0.8247   -1.3963 H         1 <0>         0.0625
     35 H13        -1.4464   -0.7839   -0.6807 H         1 <0>         0.0670
     36 H14        -0.4588   -0.1388    0.6558 H         1 <0>         0.0654
     37 H15        -4.3792    1.4244    6.5877 H         1 <0>         0.4135
     38 O3        -11.1670   -0.3461    6.2666 O.co2     1 <0>        -0.7527
@<TRIPOS>BOND
     1    1    6 ar
     2    1    2 ar
     3    1   24 1
     4    2    3 ar
     5    2   25 1
     6    3   23 1
     7    3    4 ar
     8    4    5 ar
     9    4    9 1
    10    5    6 ar
    11    5   26 1
    12    6    7 1
    13    7    8 2
    14    7   38 1
    15    9   10 2
    16    9   21 1
    17   10   11 1
    18   10   27 1
    19   11   15 1
    20   11   12 2
    21   12   13 1
    22   12   28 1
    23   13   20 1
    24   13   14 2
    25   14   15 1
    26   14   17 1
    27   15   16 1
    28   17   18 1
    29   17   29 1
    30   17   30 1
    31   18   19 1
    32   18   31 1
    33   18   32 1
    34   19   20 1
    35   19   33 1
    36   19   34 1
    37   20   35 1
    38   20   36 1
    39   21   22 2
    40   21   23 am
    41   23   37 1
@<TRIPOS>MOLECULE
ZINC03815544
   51    53     0     0     0
SMALL
USER_CHARGES

@<TRIPOS>ATOM
      1 C1         -1.2628   -3.4036    2.2558 C.3       1 <0>        -0.1208
      2 C2         -1.8354   -2.6510    1.0824 C.ar      1 <0>        -0.0818
      3 C3         -2.3323   -3.3446   -0.0067 C.ar      1 <0>        -0.1094
      4 C4         -2.8593   -2.6606   -1.0872 C.ar      1 <0>        -0.1166
      5 C5         -2.8974   -1.2809   -1.0819 C.ar      1 <0>        -0.1016
      6 C6         -2.3926   -0.5767    0.0098 C.ar      1 <0>        -0.0481
      7 C7         -1.8626   -1.2715    1.0960 C.ar      1 <0>        -0.0768
      8 C8         -1.3209   -0.5174    2.2831 C.3       1 <0>        -0.1301
      9 C9         -2.4246    0.9057    0.0185 C.ar      1 <0>        -0.1561
     10 C10        -3.6364    1.5784    0.0279 C.ar      1 <0>         0.0341
     11 C11        -3.6098    2.9823    0.0354 C.ar      1 <0>        -0.2940
     12 C12        -4.7888    3.7474    0.0456 C.ar      1 <0>         0.2635
     13 N1         -4.6855    5.0610    0.0527 N.ar      1 <0>        -0.5711
     14 C13        -3.4983    5.6634    0.0503 C.ar      1 <0>         0.5941
     15 N2         -2.3601    4.9961    0.0409 N.ar      1 <0>        -0.5638
     16 C14        -2.3606    3.6571    0.0331 C.ar      1 <0>         0.4256
     17 N3         -1.2228    2.9607    0.0293 N.ar      1 <0>        -0.4761
     18 C15        -1.2218    1.6431    0.0168 C.ar      1 <0>         0.4710
     19 N4         -0.0111    0.9658    0.0074 N.am      1 <0>        -0.6612
     20 C16         1.1468    1.6555   -0.0000 C.2       1 <0>         0.6897
     21 O1          1.1303    2.8711    0.0067 O.2       1 <0>        -0.5042
     22 N5          2.3230    0.9976   -0.0148 N.am      1 <0>        -0.7355
     23 C17         3.5816    1.7473   -0.0228 C.3       1 <0>         0.1879
     24 C18         3.6627    2.6212    1.2305 C.3       1 <0>        -0.1660
     25 C19         4.7579    0.7690   -0.0392 C.3       1 <0>        -0.1554
     26 C20         3.6388    2.6346   -1.2679 C.3       1 <0>        -0.1664
     27 N6         -3.4563    7.0447    0.0577 N.pl3     1 <0>        -0.8114
     28 H1         -2.0538   -3.6077    2.9775 H         1 <0>         0.0731
     29 H2         -0.8347   -4.3445    1.9101 H         1 <0>         0.0680
     30 H3         -0.4858   -2.8029    2.7285 H         1 <0>         0.0713
     31 H4         -2.3083   -4.4243   -0.0134 H         1 <0>         0.1246
     32 H5         -3.2461   -3.2072   -1.9345 H         1 <0>         0.1264
     33 H6         -3.3132   -0.7479   -1.9242 H         1 <0>         0.1256
     34 H7         -2.1194   -0.3586    3.0078 H         1 <0>         0.0758
     35 H8         -0.5200   -1.0944    2.7454 H         1 <0>         0.0741
     36 H9         -0.9315    0.4462    1.9545 H         1 <0>         0.0676
     37 H10        -4.5723    1.0394    0.0290 H         1 <0>         0.1517
     38 H11        -5.7573    3.2696    0.0473 H         1 <0>         0.1804
     39 H12         0.0021   -0.0041    0.0020 H         1 <0>         0.4159
     40 H13         2.3361    0.0277   -0.0201 H         1 <0>         0.3939
     41 H14         3.6219    1.9891    2.1175 H         1 <0>         0.0527
     42 H15         4.5991    3.1790    1.2245 H         1 <0>         0.0639
     43 H16         2.8247    3.3182    1.2422 H         1 <0>         0.0815
     44 H17         4.7001    0.1464   -0.9321 H         1 <0>         0.0622
     45 H18         5.6943    1.3268   -0.0452 H         1 <0>         0.0765
     46 H19         4.7171    0.1368    0.8478 H         1 <0>         0.0623
     47 H20         2.8008    3.3316   -1.2561 H         1 <0>         0.0815
     48 H21         4.5752    3.1924   -1.2738 H         1 <0>         0.0640
     49 H22         3.5811    2.0120   -2.1607 H         1 <0>         0.0526
     50 H23        -2.6020    7.5040    0.0558 H         1 <0>         0.4183
     51 H24        -4.2813    7.5549    0.0647 H         1 <0>         0.4168
@<TRIPOS>BOND
     1    1    2 1
     2    1   28 1
     3    1   29 1
     4    1   30 1
     5    2    7 ar
     6    2    3 ar
     7    3    4 ar
     8    3   31 1
     9    4    5 ar
    10    4   32 1
    11    5    6 ar
    12    5   33 1
    13    6    7 ar
    14    6    9 1
    15    7    8 1
    16    8   34 1
    17    8   35 1
    18    8   36 1
    19    9   18 ar
    20    9   10 ar
    21   10   11 ar
    22   10   37 1
    23   11   16 ar
    24   11   12 ar
    25   12   13 ar
    26   12   38 1
    27   13   14 ar
    28   14   15 ar
    29   14   27 1
    30   15   16 ar
    31   16   17 ar
    32   17   18 ar
    33   18   19 1
    34   19   20 am
    35   19   39 1
    36   20   21 2
    37   20   22 am
    38   22   23 1
    39   22   40 1
    40   23   24 1
    41   23   25 1
    42   23   26 1
    43   24   41 1
    44   24   42 1
    45   24   43 1
    46   25   44 1
    47   25   45 1
    48   25   46 1
    49   26   47 1
    50   26   48 1
    51   26   49 1
    52   27   50 1
    53   27   51 1
@<TRIPOS>MOLECULE
ZINC03815545
   60    63     0     0     0
SMALL
USER_CHARGES

@<TRIPOS>ATOM
      1 C1          2.5650   -3.0211   -1.9633 C.3       1 <0>        -0.1885
      2 C2          1.1279   -3.4878   -2.2038 C.3       1 <0>        -0.0066
      3 C3         -1.0941   -2.6109   -2.5995 C.3       1 <0>        -0.0080
      4 C4         -0.9453   -2.4469   -4.1134 C.3       1 <0>        -0.1896
      5 C5          0.0372   -2.1444   -0.5102 C.3       1 <0>         0.1673
      6 O1          1.1371   -1.3742   -0.0213 O.3       1 <0>        -0.2869
      7 C6          1.0934   -0.0318   -0.2333 C.ar      1 <0>         0.0600
      8 C7          2.1287    0.7750    0.2154 C.ar      1 <0>        -0.0997
      9 C8          2.0851    2.1384    0.0005 C.ar      1 <0>        -0.0665
     10 C9          1.0043    2.7018   -0.6650 C.ar      1 <0>         0.1604
     11 C10        -0.0318    1.8934   -1.1139 C.ar      1 <0>        -0.1029
     12 C11         0.0132    0.5303   -0.8978 C.ar      1 <0>        -0.1967
     13 N1          0.9590    4.0842   -0.8829 N.pl3     1 <0>        -0.6315
     14 C12         2.1271    4.7868   -1.1057 C.ar      1 <0>         0.5992
     15 N2          3.2682    4.1142   -1.2122 N.ar      1 <0>        -0.5761
     16 C13         4.4114    4.7379   -1.4250 C.ar      1 <0>         0.2583
     17 C14         4.4024    6.1367   -1.5382 C.ar      1 <0>        -0.2617
     18 C15         5.5948    6.8604   -1.7667 C.2       1 <0>         0.0001
     19 C16         5.5340    8.2244   -1.8701 C.2       1 <0>        -0.1354
     20 C17         4.2401    8.8980   -1.7420 C.2       1 <0>         0.5460
     21 O2          4.1769   10.1111   -1.8326 O.2       1 <0>        -0.4945
     22 N3          3.1196    8.1830   -1.5240 N.am      1 <0>        -0.5068
     23 C18         3.1709    6.8160   -1.4194 C.ar      1 <0>         0.4612
     24 N4          2.0680    6.1054   -1.2107 N.ar      1 <0>        -0.5876
     25 C19         1.8330    8.8721   -1.3977 C.3       1 <0>         0.0682
     26 C20         6.7661    9.0116   -2.1099 C.ar      1 <0>        -0.0402
     27 C21         7.2245    9.9062   -1.1433 C.ar      1 <0>        -0.0877
     28 C22         8.3758   10.6322   -1.3700 C.ar      1 <0>        -0.1180
     29 C23         9.0684   10.4829   -2.5582 C.ar      1 <0>        -0.1097
     30 C24         8.6157    9.6009   -3.5231 C.ar      1 <0>        -0.1198
     31 C25         7.4689    8.8650   -3.3055 C.ar      1 <0>        -0.1012
     32 H1          3.2571   -3.8111   -2.2549 H         1 <0>         0.1033
     33 H2          2.7614   -2.1285   -2.5572 H         1 <0>         0.0753
     34 H3          2.7003   -2.7914   -0.9064 H         1 <0>         0.0904
     35 H4          0.8961   -4.3126   -1.5301 H         1 <0>         0.1330
     36 H5          1.0221   -3.8212   -3.2362 H         1 <0>         0.1290
     37 H6         -1.4335   -3.6222   -2.3752 H         1 <0>         0.1372
     38 H7         -1.8231   -1.8918   -2.2260 H         1 <0>         0.1279
     39 H8         -1.9018   -2.6469   -4.5963 H         1 <0>         0.1093
     40 H9         -0.6303   -1.4281   -4.3392 H         1 <0>         0.0805
     41 H10        -0.1978   -3.1487   -4.4832 H         1 <0>         0.0821
     42 H11         0.0047   -3.1021    0.0094 H         1 <0>         0.1740
     43 H12        -0.8924   -1.6034   -0.3332 H         1 <0>         0.1326
     44 H13         2.9690    0.3368    0.7333 H         1 <0>         0.1446
     45 H14         2.8891    2.7669    0.3539 H         1 <0>         0.1535
     46 H15        -0.8729    2.3308   -1.6312 H         1 <0>         0.1385
     47 H16        -0.7927   -0.0985   -1.2465 H         1 <0>         0.1226
     48 H17         0.1073    4.5484   -0.8774 H         1 <0>         0.4300
     49 H18         5.3343    4.1836   -1.5107 H         1 <0>         0.1900
     50 H19         6.5397    6.3453   -1.8579 H         1 <0>         0.1536
     51 H20         1.9836    9.9461   -1.5073 H         1 <0>         0.1028
     52 H21         1.1541    8.5193   -2.1741 H         1 <0>         0.0804
     53 H22         1.4038    8.6636   -0.4177 H         1 <0>         0.0809
     54 H23         6.6820   10.0271   -0.2173 H         1 <0>         0.1207
     55 H24         8.7343   11.3221   -0.6203 H         1 <0>         0.1266
     56 H25         9.9664   11.0569   -2.7331 H         1 <0>         0.1255
     57 H26         9.1608    9.4882   -4.4486 H         1 <0>         0.1266
     58 H27         7.1164    8.1768   -4.0594 H         1 <0>         0.1228
     59 N5          0.2143   -2.3510   -1.9630 N.4       1 <0>        -0.4258
     60 H28         0.6222   -1.5027   -2.3732 H         1 <0>         0.4270
@<TRIPOS>BOND
     1    1    2 1
     2    1   32 1
     3    1   33 1
     4    1   34 1
     5    2   35 1
     6    2   36 1
     7    2   59 1
     8    3    4 1
     9    3   37 1
    10    3   38 1
    11    3   59 1
    12    4   39 1
    13    4   40 1
    14    4   41 1
    15    5    6 1
    16    5   42 1
    17    5   43 1
    18    5   59 1
    19    6    7 1
    20    7   12 ar
    21    7    8 ar
    22    8    9 ar
    23    8   44 1
    24    9   10 ar
    25    9   45 1
    26   10   11 ar
    27   10   13 1
    28   11   12 ar
    29   11   46 1
    30   12   47 1
    31   13   14 1
    32   13   48 1
    33   14   24 ar
    34   14   15 ar
    35   15   16 ar
    36   16   17 ar
    37   16   49 1
    38   17   23 ar
    39   17   18 1
    40   18   19 2
    41   18   50 1
    42   19   20 1
    43   19   26 1
    44   20   21 2
    45   20   22 am
    46   22   23 1
    47   22   25 1
    48   23   24 ar
    49   25   51 1
    50   25   52 1
    51   25   53 1
    52   26   31 ar
    53   26   27 ar
    54   27   28 ar
    55   27   54 1
    56   28   29 ar
    57   28   55 1
    58   29   30 ar
    59   29   56 1
    60   30   31 ar
    61   30   57 1
    62   31   58 1
    63   59   60 1
@<TRIPOS>MOLECULE
ZINC03815546
   51    54     0     0     0
SMALL
USER_CHARGES

@<TRIPOS>ATOM
      1 C1          1.8388   13.1770    1.0881 C.3       1 <0>        -0.0909
      2 C2          0.4961   13.0829    0.4103 C.2       1 <0>        -0.0829
      3 C3         -0.3609   14.1447    0.1155 C.2       1 <0>        -0.1597
      4 C4         -1.4622   13.6371   -0.4924 C.2       1 <0>         0.0418
      5 N1         -1.3273   12.2910   -0.5971 N.pl3     1 <0>        -0.5145
      6 H1         -1.9726   11.6869   -0.9964 H         1 <0>         0.4170
      7 C5         -0.1218   11.9252   -0.0376 C.2       1 <0>        -0.0355
      8 C6          0.3914   10.6153    0.0564 C.2       1 <0>         0.1057
      9 C7         -0.4673    9.5485    0.2445 C.2       1 <0>        -0.2312
     10 C8         -0.1322    8.1081    0.2142 C.ar      1 <0>        -0.0762
     11 C9          1.0555    7.4113    0.0049 C.ar      1 <0>        -0.0703
     12 C10         1.0581    6.0346    0.0368 C.ar      1 <0>        -0.1225
     13 C11        -0.1288    5.3401    0.2787 C.ar      1 <0>        -0.0247
     14 C12        -1.3192    6.0312    0.4829 C.ar      1 <0>        -0.1224
     15 C13        -1.3295    7.4190    0.4580 C.ar      1 <0>         0.1375
     16 N2         -2.3572    8.3385    0.6322 N.am      1 <0>        -0.6537
     17 C14        -1.9095    9.6003    0.5177 C.2       1 <0>         0.5562
     18 O1         -2.5821   10.6105    0.6226 O.2       1 <0>        -0.5109
     19 C15        -0.1219    3.8574    0.3123 C.ar      1 <0>        -0.0005
     20 C16        -1.3039    3.1579    0.5529 C.ar      1 <0>        -0.1481
     21 C17        -1.2958    1.7780    0.5779 C.ar      1 <0>        -0.0772
     22 C18        -0.1160    1.0860    0.3758 C.ar      1 <0>        -0.2092
     23 C19         1.0649    1.7746    0.1352 C.ar      1 <0>         0.1296
     24 C20         1.0652    3.1595    0.1030 C.ar      1 <0>        -0.1420
     25 O2          2.2211    1.0900   -0.0685 O.3       1 <0>        -0.3171
     26 C21         2.1476   -0.3363   -0.0209 C.3       1 <0>         0.0272
     27 C22        -0.1075   15.5988    0.4196 C.3       1 <0>        -0.0303
     28 C23         0.7237   16.2178   -0.7059 C.3       1 <0>        -0.1472
     29 C24         0.9772   17.6719   -0.4018 C.2       1 <0>         0.4577
     30 O3          0.5380   18.1627    0.6111 O.co2     1 <0>        -0.6426
     31 H2          2.6166   13.3118    0.3365 H         1 <0>         0.0710
     32 H3          1.8423   14.0266    1.7710 H         1 <0>         0.0734
     33 H4          2.0286   12.2607    1.6471 H         1 <0>         0.0582
     34 H5         -2.3074   14.2119   -0.8410 H         1 <0>         0.1677
     35 H6          1.4553   10.4455   -0.0185 H         1 <0>         0.1507
     36 H7          1.9728    7.9497   -0.1825 H         1 <0>         0.1325
     37 H8          1.9778    5.4922   -0.1256 H         1 <0>         0.1330
     38 H9         -2.2345    5.4877    0.6651 H         1 <0>         0.1291
     39 H10        -3.2797    8.0998    0.8135 H         1 <0>         0.4147
     40 H11        -2.2261    3.6957    0.7159 H         1 <0>         0.1272
     41 H12        -2.2127    1.2374    0.7604 H         1 <0>         0.1268
     42 H13        -0.1141    0.0063    0.4009 H         1 <0>         0.1278
     43 H14         1.9833    3.6966   -0.0841 H         1 <0>         0.1365
     44 H15         1.7909   -0.6492    0.9604 H         1 <0>         0.0556
     45 H16         1.4586   -0.6903   -0.7878 H         1 <0>         0.0555
     46 H17         3.1371   -0.7573   -0.1991 H         1 <0>         0.1007
     47 H18        -1.0590   16.1244    0.4998 H         1 <0>         0.0652
     48 H19         0.4351   15.6839    1.3611 H         1 <0>         0.0682
     49 H20         1.6753   15.6922   -0.7862 H         1 <0>         0.0622
     50 H21         0.1811   16.1327   -1.6474 H         1 <0>         0.0603
     51 O4          1.6908   18.4218   -1.2563 O.co2     1 <0>        -0.7797
@<TRIPOS>BOND
     1    1    2 1
     2    1   31 1
     3    1   32 1
     4    1   33 1
     5    2    7 2
     6    2    3 1
     7    3    4 2
     8    3   27 1
     9    4    5 1
    10    4   34 1
    11    5    6 1
    12    5    7 1
    13    7    8 1
    14    8    9 2
    15    8   35 1
    16    9   17 1
    17    9   10 1
    18   10   15 ar
    19   10   11 ar
    20   11   12 ar
    21   11   36 1
    22   12   13 ar
    23   12   37 1
    24   13   14 ar
    25   13   19 1
    26   14   15 ar
    27   14   38 1
    28   15   16 1
    29   16   17 am
    30   16   39 1
    31   17   18 2
    32   19   24 ar
    33   19   20 ar
    34   20   21 ar
    35   20   40 1
    36   21   22 ar
    37   21   41 1
    38   22   23 ar
    39   22   42 1
    40   23   24 ar
    41   23   25 1
    42   24   43 1
    43   25   26 1
    44   26   44 1
    45   26   45 1
    46   26   46 1
    47   27   28 1
    48   27   47 1
    49   27   48 1
    50   28   29 1
    51   28   49 1
    52   28   50 1
    53   29   30 2
    54   29   51 1
@<TRIPOS>MOLECULE
ZINC03815547
   49    51     0     0     0
SMALL
USER_CHARGES

@<TRIPOS>ATOM
      1 C1         -3.0991    6.9016   -5.4309 C.3       1 <0>        -0.1665
      2 C2         -3.9806    6.0031   -4.5612 C.3       1 <0>         0.1876
      3 C3         -4.7105    4.9923   -5.4480 C.3       1 <0>        -0.1554
      4 C4         -5.0051    6.8611   -3.8161 C.3       1 <0>        -0.1662
      5 N1         -3.1449    5.2891   -3.5927 N.am      1 <0>        -0.7355
      6 C5         -2.4054    5.9797   -2.7024 C.2       1 <0>         0.6895
      7 O1         -2.4317    7.1951   -2.7031 O.2       1 <0>        -0.5040
      8 N2         -1.6365    5.3229   -1.8114 N.am      1 <0>        -0.6635
      9 C6         -0.8752    6.0337   -0.8950 C.ar      1 <0>         0.4728
     10 C7         -0.0758    5.3302    0.0310 C.ar      1 <0>        -0.1633
     11 C8          0.6905    6.0366    0.9442 C.ar      1 <0>         0.0396
     12 C9          0.6303    7.4394    0.9087 C.ar      1 <0>        -0.2956
     13 C10         1.3731    8.2370    1.7961 C.ar      1 <0>         0.2653
     14 N3          1.2661    9.5470    1.7036 N.ar      1 <0>        -0.5711
     15 C11         0.4770   10.1158    0.7947 C.ar      1 <0>         0.5953
     16 N4         -0.2423    9.4169   -0.0627 N.ar      1 <0>        -0.5642
     17 C12        -0.2015    8.0787   -0.0476 C.ar      1 <0>         0.4281
     18 N5         -0.9193    7.3504   -0.9047 N.ar      1 <0>        -0.4759
     19 N6          0.4080   11.4952    0.7476 N.pl3     1 <0>        -0.8108
     20 C13        -0.0513    3.8477    0.0228 C.ar      1 <0>         0.0009
     21 C14        -1.2459    3.1285    0.0308 C.ar      1 <0>        -0.1647
     22 C15        -1.2204    1.7487    0.0174 C.ar      1 <0>        -0.0686
     23 C16        -0.0126    1.0758    0.0080 C.ar      1 <0>        -0.2058
     24 C17         1.1811    1.7840    0.0004 C.ar      1 <0>         0.1371
     25 C18         1.1651    3.1692    0.0075 C.ar      1 <0>        -0.1372
     26 O2          2.3659    1.1184   -0.0145 O.3       1 <0>        -0.3152
     27 C19         2.3078   -0.3094   -0.0216 C.3       1 <0>         0.0257
     28 H1         -2.3692    6.2903   -5.9618 H         1 <0>         0.0527
     29 H2         -3.7209    7.4328   -6.1515 H         1 <0>         0.0640
     30 H3         -2.5791    7.6217   -4.7992 H         1 <0>         0.0816
     31 H4         -5.3385    4.3522   -4.8284 H         1 <0>         0.0623
     32 H5         -5.3323    5.5235   -6.1686 H         1 <0>         0.0765
     33 H6         -3.9806    4.3810   -5.9788 H         1 <0>         0.0622
     34 H7         -4.4852    7.5812   -3.1843 H         1 <0>         0.0816
     35 H8         -5.6269    7.3923   -4.5367 H         1 <0>         0.0640
     36 H9         -5.6332    6.2210   -3.1965 H         1 <0>         0.0527
     37 H10        -3.1239    4.3193   -3.5921 H         1 <0>         0.3941
     38 H11        -1.6155    4.3531   -1.8108 H         1 <0>         0.4160
     39 H12         1.3145    5.5242    1.6614 H         1 <0>         0.1539
     40 H13         2.0165    7.7863    2.5374 H         1 <0>         0.1814
     41 H14        -0.1610   11.9303    0.0935 H         1 <0>         0.4185
     42 H15         0.9284   12.0284    1.3687 H         1 <0>         0.4170
     43 H16        -2.1910    3.6511    0.0422 H         1 <0>         0.1270
     44 H17        -2.1464    1.1929    0.0187 H         1 <0>         0.1311
     45 H18         0.0021   -0.0041    0.0020 H         1 <0>         0.1315
     46 H19         2.0932    3.7215    0.0009 H         1 <0>         0.1358
     47 H20         1.7882   -0.6564    0.8715 H         1 <0>         0.0577
     48 H21         1.7712   -0.6468   -0.9084 H         1 <0>         0.0573
     49 H22         3.3198   -0.7142   -0.0335 H         1 <0>         0.1028
@<TRIPOS>BOND
     1    1    2 1
     2    1   28 1
     3    1   29 1
     4    1   30 1
     5    2    3 1
     6    2    4 1
     7    2    5 1
     8    3   31 1
     9    3   32 1
    10    3   33 1
    11    4   34 1
    12    4   35 1
    13    4   36 1
    14    5    6 am
    15    5   37 1
    16    6    7 2
    17    6    8 am
    18    8    9 1
    19    8   38 1
    20    9   18 ar
    21    9   10 ar
    22   10   11 ar
    23   10   20 1
    24   11   12 ar
    25   11   39 1
    26   12   17 ar
    27   12   13 ar
    28   13   14 ar
    29   13   40 1
    30   14   15 ar
    31   15   16 ar
    32   15   19 1
    33   16   17 ar
    34   17   18 ar
    35   19   41 1
    36   19   42 1
    37   20   25 ar
    38   20   21 ar
    39   21   22 ar
    40   21   43 1
    41   22   23 ar
    42   22   44 1
    43   23   24 ar
    44   23   45 1
    45   24   25 ar
    46   24   26 1
    47   25   46 1
    48   26   27 1
    49   27   47 1
    50   27   48 1
    51   27   49 1
@<TRIPOS>MOLECULE
ZINC03815548
   38    40     0     0     0
SMALL
USER_CHARGES

@<TRIPOS>ATOM
      1 C1         -3.6392   -2.1996    0.0235 C.ar      1 <0>        -0.0880
      2 C2         -3.0388   -1.8501    1.2196 C.ar      1 <0>        -0.1066
      3 C3         -1.8559   -1.1371    1.2197 C.ar      1 <0>        -0.0070
      4 C4         -1.2668   -0.7689    0.0095 C.ar      1 <0>        -0.0085
      5 C5         -1.8809   -1.1192   -1.1935 C.ar      1 <0>        -0.0065
      6 C6         -3.0607   -1.8372   -1.1796 C.ar      1 <0>        -0.1068
      7 Cl1        -1.1599   -0.6597   -2.7044 Cl        1 <0>        -0.0508
      8 C7          0.0021   -0.0041    0.0020 C.2       1 <0>        -0.1692
      9 C8          1.2038   -0.6598   -0.0129 C.2       1 <0>         0.0343
     10 C9          2.3976    0.0973   -0.0202 C.ar      1 <0>        -0.2859
     11 C10         3.6543   -0.5268   -0.0350 C.ar      1 <0>         0.2703
     12 N1          4.7354    0.2300   -0.0404 N.ar      1 <0>        -0.5828
     13 C11         4.6469    1.5558   -0.0329 C.ar      1 <0>         0.6153
     14 N2          3.4846    2.1894   -0.0189 N.ar      1 <0>        -0.6036
     15 C12         2.3442    1.5076   -0.0122 C.ar      1 <0>         0.4702
     16 N3          1.1354    2.1562    0.0028 N.am      1 <0>        -0.5026
     17 C13        -0.0178    1.4603    0.0101 C.2       1 <0>         0.5588
     18 O1         -1.0826    2.0519    0.0183 O.2       1 <0>        -0.5016
     19 C14         1.0984    3.6207    0.0105 C.3       1 <0>         0.1058
     20 C15         1.0990    4.1233    1.4556 C.3       1 <0>        -0.1312
     21 C16         1.0604    5.6528    1.4636 C.3       1 <0>         0.0830
     22 O2          1.0610    6.1223    2.8133 O.3       1 <0>        -0.5733
     23 N4          5.8098    2.2999   -0.0395 N.pl3     1 <0>        -0.8056
     24 Cl2        -1.1040   -0.6995    2.7219 Cl        1 <0>        -0.0496
     25 H1         -4.5640   -2.7574    0.0289 H         1 <0>         0.1450
     26 H2         -3.4958   -2.1357    2.1556 H         1 <0>         0.1434
     27 H3         -3.5347   -2.1129   -2.1101 H         1 <0>         0.1434
     28 H4          1.2392   -1.7392   -0.0187 H         1 <0>         0.1494
     29 H5          3.7350   -1.6038   -0.0412 H         1 <0>         0.1862
     30 H6          1.9741    4.0090   -0.5096 H         1 <0>         0.1032
     31 H7          0.1948    3.9640   -0.4932 H         1 <0>         0.0997
     32 H8          0.2233    3.7351    1.9756 H         1 <0>         0.0753
     33 H9          2.0026    3.7801    1.9593 H         1 <0>         0.0749
     34 H10         1.9361    6.0411    0.9435 H         1 <0>         0.0496
     35 H11         0.1568    5.9961    0.9599 H         1 <0>         0.0499
     36 H12         1.0373    7.0856    2.8947 H         1 <0>         0.3828
     37 H13         5.7656    3.2689   -0.0339 H         1 <0>         0.4185
     38 H14         6.6710    1.8537   -0.0498 H         1 <0>         0.4208
@<TRIPOS>BOND
     1    1    6 ar
     2    1    2 ar
     3    1   25 1
     4    2    3 ar
     5    2   26 1
     6    3    4 ar
     7    3   24 1
     8    4    5 ar
     9    4    8 1
    10    5    6 ar
    11    5    7 1
    12    6   27 1
    13    8   17 1
    14    8    9 2
    15    9   10 1
    16    9   28 1
    17   10   15 ar
    18   10   11 ar
    19   11   12 ar
    20   11   29 1
    21   12   13 ar
    22   13   14 ar
    23   13   23 1
    24   14   15 ar
    25   15   16 1
    26   16   17 am
    27   16   19 1
    28   17   18 2
    29   19   20 1
    30   19   30 1
    31   19   31 1
    32   20   21 1
    33   20   32 1
    34   20   33 1
    35   21   22 1
    36   21   34 1
    37   21   35 1
    38   22   36 1
    39   23   37 1
    40   23   38 1
@<TRIPOS>MOLECULE
ZINC03815549
   59    62     0     0     0
SMALL
USER_CHARGES

@<TRIPOS>ATOM
      1 C1         -0.0127    1.0858    0.0080 C.3       1 <0>         0.0696
      2 N1         -0.6984    1.5583    1.2133 N.am      1 <0>        -0.5063
      3 C2          0.0218    1.7881    2.3583 C.ar      1 <0>         0.4673
      4 C3         -0.6235    2.2439    3.5282 C.ar      1 <0>        -0.2630
      5 C4         -2.0194    2.4676    3.5294 C.2       1 <0>         0.0142
      6 C5         -2.7298    2.2356    2.3823 C.2       1 <0>        -0.1402
      7 C6         -2.0286    1.7679    1.1846 C.2       1 <0>         0.5520
      8 O1         -2.6522    1.5637    0.1583 O.2       1 <0>        -0.4866
      9 C7         -4.1939    2.4601    2.3515 C.ar      1 <0>        -0.0227
     10 C8         -5.0689    1.4224    2.6753 C.ar      1 <0>        -0.0052
     11 C9         -6.4326    1.6397    2.6493 C.ar      1 <0>        -0.1041
     12 C10        -6.9318    2.8795    2.2930 C.ar      1 <0>        -0.0815
     13 C11        -6.0700    3.9109    1.9658 C.ar      1 <0>        -0.1039
     14 C12        -4.7041    3.7084    1.9930 C.ar      1 <0>        -0.0053
     15 Cl1        -3.6242    5.0039    1.5815 Cl        1 <0>        -0.0517
     16 Cl2        -4.4446   -0.1363    3.1163 Cl        1 <0>        -0.0521
     17 C13         0.1494    2.4670    4.6774 C.ar      1 <0>         0.2651
     18 N2          1.4487    2.2418    4.6184 N.ar      1 <0>        -0.5866
     19 C14         2.0222    1.8129    3.4995 C.ar      1 <0>         0.6033
     20 N3          1.3346    1.5883    2.3904 N.ar      1 <0>        -0.5976
     21 N4          3.3853    1.5938    3.4927 N.pl3     1 <0>        -0.7022
     22 C15         4.1719    1.8338    4.7051 C.3       1 <0>         0.1438
     23 C16         5.6431    1.5165    4.4297 C.3       1 <0>        -0.1686
     24 C17         6.4645    1.7672    5.6959 C.3       1 <0>        -0.0010
     25 C18         8.0672    0.0284    5.1734 C.3       1 <0>        -0.0331
     26 C19         9.5342   -0.2345    4.8251 C.3       1 <0>        -0.0263
     27 C20        10.1965    1.6499    6.1923 C.3       1 <0>        -0.0268
     28 C21         8.7295    1.9127    6.5407 C.3       1 <0>        -0.0261
     29 C22        11.7991   -0.0889    5.6699 C.3       1 <0>        -0.0463
     30 H1          0.0021   -0.0041    0.0020 H         1 <0>         0.0757
     31 H2          1.0099    1.4631    0.0003 H         1 <0>         0.0926
     32 H3         -0.5399    1.4469   -0.8751 H         1 <0>         0.0953
     33 H4         -2.5179    2.8160    4.4219 H         1 <0>         0.1537
     34 H5         -7.1108    0.8386    2.9036 H         1 <0>         0.1465
     35 H6         -7.9991    3.0429    2.2698 H         1 <0>         0.1490
     36 H7         -6.4662    4.8765    1.6881 H         1 <0>         0.1466
     37 H8         -0.3088    2.8160    5.5909 H         1 <0>         0.1891
     38 H9          3.8222    1.2809    2.6851 H         1 <0>         0.4165
     39 H10         4.0746    2.8785    5.0004 H         1 <0>         0.0828
     40 H11         3.8063    1.1937    5.5080 H         1 <0>         0.0818
     41 H12         5.7404    0.4718    4.1343 H         1 <0>         0.0952
     42 H13         6.0087    2.1566    3.6267 H         1 <0>         0.0998
     43 H14         6.3673    2.8119    5.9912 H         1 <0>         0.1487
     44 H15         6.0990    1.1271    6.4988 H         1 <0>         0.1466
     45 H16         7.7972   -0.5401    6.0634 H         1 <0>         0.1583
     46 H17         7.4350   -0.2781    4.3401 H         1 <0>         0.1744
     47 H18         9.7966    0.3126    3.9196 H         1 <0>         0.1559
     48 H19         9.6838   -1.3017    4.6614 H         1 <0>         0.1755
     49 H20        10.4664    2.2184    5.3024 H         1 <0>         0.1559
     50 H21        10.8287    1.9567    7.0255 H         1 <0>         0.1761
     51 H22         8.5801    2.9800    6.7041 H         1 <0>         0.1763
     52 H23         8.4671    1.3656    7.4461 H         1 <0>         0.1576
     53 H24        12.3997    0.1932    6.5346 H         1 <0>         0.1365
     54 H25        11.9116   -1.1568    5.4822 H         1 <0>         0.1362
     55 H26        12.1342    0.4707    4.7966 H         1 <0>         0.1329
     56 N5          7.8854    1.4764    5.4086 N.4       1 <0>        -0.4062
     57 H27         8.1670    1.9896    4.5651 H         1 <0>         0.4383
     58 N6         10.3782    0.2019    5.9571 N.4       1 <0>        -0.4065
     59 H28        10.0966   -0.3112    6.8007 H         1 <0>         0.4407
@<TRIPOS>BOND
     1    1    2 1
     2    1   30 1
     3    1   31 1
     4    1   32 1
     5    2    7 am
     6    2    3 1
     7    3   20 ar
     8    3    4 ar
     9    4    5 1
    10    4   17 ar
    11    5    6 2
    12    5   33 1
    13    6    7 1
    14    6    9 1
    15    7    8 2
    16    9   14 ar
    17    9   10 ar
    18   10   11 ar
    19   10   16 1
    20   11   12 ar
    21   11   34 1
    22   12   13 ar
    23   12   35 1
    24   13   14 ar
    25   13   36 1
    26   14   15 1
    27   17   18 ar
    28   17   37 1
    29   18   19 ar
    30   19   20 ar
    31   19   21 1
    32   21   22 1
    33   21   38 1
    34   22   23 1
    35   22   39 1
    36   22   40 1
    37   23   24 1
    38   23   41 1
    39   23   42 1
    40   24   43 1
    41   24   44 1
    42   24   56 1
    43   25   26 1
    44   25   45 1
    45   25   46 1
    46   25   56 1
    47   26   47 1
    48   26   48 1
    49   26   58 1
    50   27   28 1
    51   27   49 1
    52   27   50 1
    53   27   58 1
    54   28   51 1
    55   28   52 1
    56   28   56 1
    57   29   53 1
    58   29   54 1
    59   29   55 1
    60   29   58 1
    61   56   57 1
    62   58   59 1
@<TRIPOS>MOLECULE
ZINC03815550
   33    35     0     0     0
SMALL
USER_CHARGES

@<TRIPOS>ATOM
      1 C1          0.0021   -0.0041    0.0020 C.3       1 <0>         0.0428
      2 N1         -0.0178    1.4608    0.0101 N.am      1 <0>        -0.5109
      3 C2         -1.2216    2.1269    0.0194 C.ar      1 <0>         0.3245
      4 C3         -2.4255    1.4324    0.0320 C.ar      1 <0>        -0.2547
      5 C4         -3.6131    2.1500    0.0463 C.ar      1 <0>         0.4802
      6 C5         -2.5054    4.1825    0.0466 C.ar      1 <0>         0.2305
      7 C6         -1.2621    3.5384    0.0322 C.ar      1 <0>        -0.1579
      8 C7         -0.0566    4.2794    0.0247 C.2       1 <0>        -0.0162
      9 C8          1.1365    3.6096    0.0101 C.2       1 <0>        -0.0953
     10 C9          1.1430    2.1450    0.0027 C.2       1 <0>         0.5427
     11 O1          2.2020    1.5430   -0.0099 O.2       1 <0>        -0.4542
     12 C10         2.4133    4.3610    0.0015 C.ar      1 <0>        -0.0420
     13 C11         3.0084    4.7175   -1.2093 C.ar      1 <0>        -0.0026
     14 C12         4.1956    5.4234   -1.2103 C.ar      1 <0>        -0.1021
     15 C13         4.8007    5.7666   -0.0147 C.ar      1 <0>        -0.0740
     16 C14         4.2192    5.4109    1.1890 C.ar      1 <0>        -0.1021
     17 C15         3.0290    4.7103    1.2040 C.ar      1 <0>        -0.0026
     18 Cl1         2.3008    4.2649    2.7157 Cl        1 <0>        -0.0479
     19 Cl2         2.2543    4.2815   -2.7109 Cl        1 <0>        -0.0479
     20 N2         -4.8205    1.4669    0.0541 N.pl3     1 <0>        -0.8192
     21 H1          1.0345   -0.3534   -0.0097 H         1 <0>         0.1180
     22 H2         -0.4983   -0.3791    0.8948 H         1 <0>         0.0937
     23 H3         -0.5153   -0.3696   -0.8850 H         1 <0>         0.0936
     24 H4         -2.4366    0.3525    0.0263 H         1 <0>         0.1877
     25 H5         -2.5521    5.2614    0.0521 H         1 <0>         0.2109
     26 H6         -0.0780    5.3592    0.0300 H         1 <0>         0.1679
     27 H7          4.6545    5.7045   -2.1467 H         1 <0>         0.1497
     28 H8          5.7314    6.3144   -0.0210 H         1 <0>         0.1519
     29 H9          4.6967    5.6818    2.1190 H         1 <0>         0.1498
     30 H10        -5.6562    1.9591    0.0644 H         1 <0>         0.4232
     31 H11        -4.8289    0.4969    0.0493 H         1 <0>         0.4388
     32 N3         -3.6891    3.5189    0.0539 N.ar      1 <0>        -0.5505
     33 H12        -4.5890    4.0130    0.0644 H         1 <0>         0.4740
@<TRIPOS>BOND
     1    1    2 1
     2    1   21 1
     3    1   22 1
     4    1   23 1
     5    2   10 am
     6    2    3 1
     7    3    7 ar
     8    3    4 ar
     9    4    5 ar
    10    4   24 1
    11    5   20 1
    12    5   32 ar
    13    6    7 ar
    14    6   25 1
    15    6   32 ar
    16    7    8 1
    17    8    9 2
    18    8   26 1
    19    9   10 1
    20    9   12 1
    21   10   11 2
    22   12   17 ar
    23   12   13 ar
    24   13   14 ar
    25   13   19 1
    26   14   15 ar
    27   14   27 1
    28   15   16 ar
    29   15   28 1
    30   16   17 ar
    31   16   29 1
    32   17   18 1
    33   20   30 1
    34   20   31 1
    35   32   33 1
@<TRIPOS>MOLECULE
ZINC03815551
   64    67     0     0     0
SMALL
USER_CHARGES

@<TRIPOS>ATOM
      1 C1         10.5426    6.7002   -2.7490 C.3       1 <0>        -0.1868
      2 C2         11.3397    5.9980   -1.6479 C.3       1 <0>        -0.0152
      3 C3         10.6726    7.7016   -0.0618 C.3       1 <0>        -0.0123
      4 C4         12.0877    8.2022    0.2344 C.3       1 <0>        -0.1883
      5 C5          9.3671    5.6743   -0.2817 C.3       1 <0>        -0.0074
      6 C6          9.4728    4.1488   -0.3335 C.3       1 <0>        -0.1506
      7 C7          8.0716    3.5379   -0.2667 C.3       1 <0>         0.0625
      8 O1          8.1704    2.1132   -0.3151 O.3       1 <0>        -0.3118
      9 C8          7.0065    1.4116   -0.2654 C.ar      1 <0>         0.1079
     10 C9          7.0304    0.0253   -0.3081 C.ar      1 <0>        -0.1177
     11 C10         5.8490   -0.6879   -0.2582 C.ar      1 <0>        -0.0975
     12 C11         4.6367   -0.0168   -0.1651 C.ar      1 <0>         0.1338
     13 C12         4.6133    1.3713   -0.1281 C.ar      1 <0>        -0.1066
     14 C13         5.7961    2.0827   -0.1724 C.ar      1 <0>        -0.1823
     15 N1          3.4386   -0.7390   -0.1143 N.pl3     1 <0>        -0.6554
     16 C14         2.4392   -0.3635    0.7720 C.ar      1 <0>         0.4378
     17 C15         2.7008    0.6207    1.7156 C.ar      1 <0>        -0.2923
     18 C16         1.6927    0.9894    2.5979 C.ar      1 <0>         0.2696
     19 C17         0.4413    0.3425    2.4940 C.ar      1 <0>        -0.2274
     20 C18        -0.6074    0.6874    3.3791 C.2       1 <0>         0.0259
     21 C19        -0.3927    1.6579    4.3196 C.2       1 <0>        -0.1621
     22 C20         0.9170    2.3087    4.4007 C.2       1 <0>         0.5548
     23 O2          1.1158    3.1694    5.2395 O.2       1 <0>        -0.5118
     24 N2          1.9026    1.9595    3.5509 N.am      1 <0>        -0.6310
     25 H1          2.7937    2.4089    3.6133 H         1 <0>         0.4227
     26 C21        -1.4756    2.0426    5.2545 C.ar      1 <0>        -0.0133
     27 C22        -2.3558    3.0729    4.9214 C.ar      1 <0>        -0.0067
     28 C23        -3.3668    3.4228    5.7949 C.ar      1 <0>        -0.1063
     29 C24        -3.5011    2.7618    7.0026 C.ar      1 <0>        -0.0863
     30 C25        -2.6281    1.7438    7.3416 C.ar      1 <0>        -0.1058
     31 C26        -1.6163    1.3802    6.4746 C.ar      1 <0>        -0.0072
     32 Cl1        -0.5218    0.1023    6.9020 Cl        1 <0>        -0.0503
     33 Cl2        -2.1849    3.9082    3.4091 Cl        1 <0>        -0.0524
     34 C27         0.2635   -0.6399    1.5123 C.ar      1 <0>         0.2337
     35 N3          1.2503   -0.9526    0.7009 N.ar      1 <0>        -0.5473
     36 H2          9.4977    6.3954   -2.6918 H         1 <0>         0.0788
     37 H3         10.6139    7.7798   -2.6171 H         1 <0>         0.0817
     38 H4         10.9484    6.4256   -3.7227 H         1 <0>         0.1068
     39 H5         12.3619    6.3765   -1.6417 H         1 <0>         0.1309
     40 H6         11.3509    4.9244   -1.8357 H         1 <0>         0.1301
     41 H7         10.2733    8.2315   -0.9266 H         1 <0>         0.1338
     42 H8         10.0343    7.8840    0.8027 H         1 <0>         0.1291
     43 H9         12.0469    9.2484    0.5377 H         1 <0>         0.1067
     44 H10        12.5227    7.6078    1.0379 H         1 <0>         0.0800
     45 H11        12.7017    8.1072   -0.6612 H         1 <0>         0.0803
     46 H12         8.7764    6.0265   -1.1274 H         1 <0>         0.1361
     47 H13         8.8842    5.9736    0.6485 H         1 <0>         0.1334
     48 H14        10.0634    3.7966    0.5122 H         1 <0>         0.0992
     49 H15         9.9557    3.8495   -1.2637 H         1 <0>         0.0990
     50 H16         7.4810    3.8901   -1.1124 H         1 <0>         0.0723
     51 H17         7.5887    3.8373    0.6635 H         1 <0>         0.0727
     52 H18         7.9733   -0.4964   -0.3809 H         1 <0>         0.1396
     53 H19         5.8678   -1.7672   -0.2911 H         1 <0>         0.1409
     54 H20         3.6707    1.8940   -0.0603 H         1 <0>         0.1355
     55 H21         5.7784    3.1620   -0.1392 H         1 <0>         0.1307
     56 H22         3.3070   -1.5019   -0.6988 H         1 <0>         0.4216
     57 H23         3.6713    1.0921    1.7627 H         1 <0>         0.1472
     58 H24        -1.5661    0.1951    3.3098 H         1 <0>         0.1484
     59 H25        -4.0515    4.2170    5.5363 H         1 <0>         0.1441
     60 H26        -4.2908    3.0420    7.6840 H         1 <0>         0.1464
     61 H27        -2.7381    1.2319    8.2862 H         1 <0>         0.1445
     62 H28        -0.6879   -1.1427    1.4208 H         1 <0>         0.1786
     63 N4         10.7284    6.2483   -0.3256 N.4       1 <0>        -0.3945
     64 H29        11.3029    5.7999    0.3977 H         1 <0>         0.4296
@<TRIPOS>BOND
     1    1    2 1
     2    1   36 1
     3    1   37 1
     4    1   38 1
     5    2   39 1
     6    2   40 1
     7    2   63 1
     8    3    4 1
     9    3   41 1
    10    3   42 1
    11    3   63 1
    12    4   43 1
    13    4   44 1
    14    4   45 1
    15    5    6 1
    16    5   46 1
    17    5   47 1
    18    5   63 1
    19    6    7 1
    20    6   48 1
    21    6   49 1
    22    7    8 1
    23    7   50 1
    24    7   51 1
    25    8    9 1
    26    9   14 ar
    27    9   10 ar
    28   10   11 ar
    29   10   52 1
    30   11   12 ar
    31   11   53 1
    32   12   13 ar
    33   12   15 1
    34   13   14 ar
    35   13   54 1
    36   14   55 1
    37   15   16 1
    38   15   56 1
    39   16   35 ar
    40   16   17 ar
    41   17   18 ar
    42   17   57 1
    43   18   24 1
    44   18   19 ar
    45   19   20 1
    46   19   34 ar
    47   20   21 2
    48   20   58 1
    49   21   22 1
    50   21   26 1
    51   22   23 2
    52   22   24 am
    53   24   25 1
    54   26   31 ar
    55   26   27 ar
    56   27   28 ar
    57   27   33 1
    58   28   29 ar
    59   28   59 1
    60   29   30 ar
    61   29   60 1
    62   30   31 ar
    63   30   61 1
    64   31   32 1
    65   34   35 ar
    66   34   62 1
    67   63   64 1
@<TRIPOS>MOLECULE
ZINC03815552
   42    44     0     0     0
SMALL
USER_CHARGES

@<TRIPOS>ATOM
      1 C1          4.4167    7.5322   -1.0306 C.3       1 <0>        -0.0927
      2 C2          5.0479    6.3437   -0.3523 C.2       1 <0>        -0.0766
      3 C3          6.4023    6.1796   -0.0563 C.2       1 <0>        -0.1599
      4 C4          6.5549    4.9769    0.5520 C.2       1 <0>         0.0472
      5 N1          5.3419    4.3781    0.6557 N.pl3     1 <0>        -0.5157
      6 H1          5.1711    3.5108    1.0551 H         1 <0>         0.4171
      7 C5          4.3933    5.2064    0.0953 C.2       1 <0>        -0.0407
      8 C6          3.0104    4.9474    0.0001 C.2       1 <0>         0.1154
      9 C7          2.5610    3.6543   -0.1880 C.2       1 <0>        -0.2396
     10 C8          1.1614    3.1748   -0.1594 C.ar      1 <0>        -0.1014
     11 C9         -0.0599    3.8080    0.0482 C.ar      1 <0>         0.0286
     12 C10        -1.2268    3.0720    0.0137 C.ar      1 <0>        -0.6972
     13 C11        -1.1816    1.7094   -0.2315 C.ar      1 <0>         0.0070
     14 C12         0.0250    1.0709   -0.4334 C.ar      1 <0>        -0.1565
     15 C13         1.2116    1.7955   -0.4029 C.ar      1 <0>         0.1964
     16 N2          2.5355    1.4108   -0.5755 N.am      1 <0>        -0.6522
     17 C14         3.3689    2.4587   -0.4602 C.2       1 <0>         0.5570
     18 O1          4.5823    2.4230   -0.5638 O.2       1 <0>        -0.5011
     19 S1         -2.7768    3.8678    0.2758 S.o2      1 <0>         2.7055
     20 O2         -3.6749    2.8666    0.7346 O.2       1 <0>        -0.9657
     21 O3         -2.5068    5.0479    1.0199 O.2       1 <0>        -0.9621
     22 N3         -3.3318    4.3587   -1.2052 N.pl3     1 <0>        -1.2507
     23 C15         7.5014    7.1652   -0.3592 C.3       1 <0>        -0.0308
     24 C16         7.5848    8.1980    0.7665 C.3       1 <0>        -0.1476
     25 C17         8.6838    9.1837    0.4635 C.2       1 <0>         0.4578
     26 O4          9.3336    9.0715   -0.5489 O.co2     1 <0>        -0.6427
     27 H2          4.1185    8.2633   -0.2792 H         1 <0>         0.0732
     28 H3          5.1358    7.9853   -1.7131 H         1 <0>         0.0746
     29 H4          3.5394    7.2076   -1.5901 H         1 <0>         0.0589
     30 H5          7.4899    4.5650    0.9019 H         1 <0>         0.1692
     31 H6          2.3025    5.7597    0.0743 H         1 <0>         0.1539
     32 H7         -0.0945    4.8710    0.2359 H         1 <0>         0.1487
     33 H8         -2.0992    1.1407   -0.2614 H         1 <0>         0.1493
     34 H9          0.0475    0.0074   -0.6198 H         1 <0>         0.1377
     35 H10         2.8217    0.5018   -0.7562 H         1 <0>         0.4188
     36 H11        -2.8079    4.1824   -2.0022 H         1 <0>         0.4173
     37 H12        -4.1808    4.8225   -1.2756 H         1 <0>         0.4204
     38 H13         8.4514    6.6369   -0.4387 H         1 <0>         0.0659
     39 H14         7.2868    7.6706   -1.3008 H         1 <0>         0.0689
     40 H15         6.6347    8.7264    0.8460 H         1 <0>         0.0626
     41 H16         7.7994    7.6926    1.7081 H         1 <0>         0.0605
     42 O5          8.9407   10.1861    1.3184 O.co2     1 <0>        -0.7789
@<TRIPOS>BOND
     1    1    2 1
     2    1   27 1
     3    1   28 1
     4    1   29 1
     5    2    7 2
     6    2    3 1
     7    3    4 2
     8    3   23 1
     9    4    5 1
    10    4   30 1
    11    5    6 1
    12    5    7 1
    13    7    8 1
    14    8    9 2
    15    8   31 1
    16    9   17 1
    17    9   10 1
    18   10   15 ar
    19   10   11 ar
    20   11   12 ar
    21   11   32 1
    22   12   13 ar
    23   12   19 1
    24   13   14 ar
    25   13   33 1
    26   14   15 ar
    27   14   34 1
    28   15   16 1
    29   16   17 am
    30   16   35 1
    31   17   18 2
    32   19   20 2
    33   19   21 2
    34   19   22 1
    35   22   36 1
    36   22   37 1
    37   23   24 1
    38   23   38 1
    39   23   39 1
    40   24   25 1
    41   24   40 1
    42   24   41 1
    43   25   26 2
    44   25   42 1
@<TRIPOS>MOLECULE
ZINC03815553
   40    42     0     0     0
SMALL
USER_CHARGES

@<TRIPOS>ATOM
      1 C1          1.1862    5.6504    1.4655 C.3       1 <0>        -0.1422
      2 C2          1.0991    4.1229    1.4563 C.3       1 <0>        -0.1048
      3 C3         -0.1910    3.6814    2.1504 C.3       1 <0>        -0.1442
      4 C4          1.0982    3.6208    0.0110 C.3       1 <0>         0.1055
      5 N1          1.1353    2.1563    0.0028 N.am      1 <0>        -0.5016
      6 C5          2.3442    1.5078   -0.0123 C.ar      1 <0>         0.4704
      7 C6          2.3976    0.0971   -0.0204 C.ar      1 <0>        -0.2871
      8 C7          1.2037   -0.6599   -0.0130 C.2       1 <0>         0.0324
      9 C8          0.0021   -0.0041    0.0020 C.2       1 <0>        -0.1702
     10 C9         -0.0178    1.4603    0.0101 C.2       1 <0>         0.5589
     11 O1         -1.0826    2.0518    0.0183 O.2       1 <0>        -0.4986
     12 C10        -1.2669   -0.7688    0.0096 C.ar      1 <0>        -0.0073
     13 C11        -1.8811   -1.1191   -1.1934 C.ar      1 <0>        -0.0067
     14 C12        -3.0611   -1.8367   -1.1795 C.ar      1 <0>        -0.1068
     15 C13        -3.6396   -2.1990    0.0237 C.ar      1 <0>        -0.0884
     16 C14        -3.0388   -1.8500    1.2198 C.ar      1 <0>        -0.1069
     17 C15        -1.8559   -1.1370    1.2198 C.ar      1 <0>        -0.0069
     18 Cl1        -1.1039   -0.6995    2.7220 Cl        1 <0>        -0.0504
     19 Cl2        -1.1601   -0.6597   -2.7043 Cl        1 <0>        -0.0506
     20 C16         3.6539   -0.5268   -0.0352 C.ar      1 <0>         0.2690
     21 N2          4.7353    0.2302   -0.0411 N.ar      1 <0>        -0.5839
     22 C17         4.6469    1.5556   -0.0332 C.ar      1 <0>         0.6145
     23 N3          3.4843    2.1894   -0.0191 N.ar      1 <0>        -0.6028
     24 N4          5.8098    2.2997   -0.0394 N.pl3     1 <0>        -0.8062
     25 H1          0.3286    6.0664    0.9369 H         1 <0>         0.0586
     26 H2          1.1869    6.0081    2.4952 H         1 <0>         0.0604
     27 H3          2.1053    5.9649    0.9711 H         1 <0>         0.0579
     28 H4          1.9568    3.7069    1.9849 H         1 <0>         0.0719
     29 H5         -0.2530    2.5932    2.1438 H         1 <0>         0.0499
     30 H6         -0.1903    4.0391    3.1800 H         1 <0>         0.0521
     31 H7         -1.0486    4.0975    1.6217 H         1 <0>         0.0636
     32 H8          1.9738    4.0094   -0.5091 H         1 <0>         0.1002
     33 H9          0.1945    3.9643   -0.4923 H         1 <0>         0.0973
     34 H10         1.2390   -1.7393   -0.0188 H         1 <0>         0.1481
     35 H11        -3.5352   -2.1123   -2.1099 H         1 <0>         0.1431
     36 H12        -4.5645   -2.7565    0.0292 H         1 <0>         0.1448
     37 H13        -3.4956   -2.1359    2.1558 H         1 <0>         0.1431
     38 H14         3.7347   -1.6038   -0.0414 H         1 <0>         0.1852
     39 H15         5.7657    3.2687   -0.0334 H         1 <0>         0.4184
     40 H16         6.6710    1.8535   -0.0497 H         1 <0>         0.4204
@<TRIPOS>BOND
     1    1    2 1
     2    1   25 1
     3    1   26 1
     4    1   27 1
     5    2    3 1
     6    2    4 1
     7    2   28 1
     8    3   29 1
     9    3   30 1
    10    3   31 1
    11    4    5 1
    12    4   32 1
    13    4   33 1
    14    5   10 am
    15    5    6 1
    16    6   23 ar
    17    6    7 ar
    18    7    8 1
    19    7   20 ar
    20    8    9 2
    21    8   34 1
    22    9   10 1
    23    9   12 1
    24   10   11 2
    25   12   17 ar
    26   12   13 ar
    27   13   14 ar
    28   13   19 1
    29   14   15 ar
    30   14   35 1
    31   15   16 ar
    32   15   36 1
    33   16   17 ar
    34   16   37 1
    35   17   18 1
    36   20   21 ar
    37   20   38 1
    38   21   22 ar
    39   22   23 ar
    40   22   24 1
    41   24   39 1
    42   24   40 1
@<TRIPOS>MOLECULE
ZINC03815554
   37    39     0     0     0
SMALL
USER_CHARGES

@<TRIPOS>ATOM
      1 C1          1.0604    5.6524    1.4649 C.3       1 <0>        -0.1463
      2 C2          1.0991    4.1229    1.4563 C.3       1 <0>        -0.1334
      3 C3          1.0982    3.6208    0.0110 C.3       1 <0>         0.1014
      4 N1          1.1353    2.1563    0.0028 N.am      1 <0>        -0.5036
      5 C4          2.3442    1.5078   -0.0123 C.ar      1 <0>         0.4703
      6 C5          2.3976    0.0971   -0.0204 C.ar      1 <0>        -0.2867
      7 C6          1.2037   -0.6599   -0.0130 C.2       1 <0>         0.0336
      8 C7          0.0021   -0.0041    0.0020 C.2       1 <0>        -0.1698
      9 C8         -0.0178    1.4603    0.0101 C.2       1 <0>         0.5583
     10 O1         -1.0826    2.0518    0.0183 O.2       1 <0>        -0.5027
     11 C9         -1.2669   -0.7688    0.0096 C.ar      1 <0>        -0.0079
     12 C10        -1.8811   -1.1191   -1.1934 C.ar      1 <0>        -0.0067
     13 C11        -3.0611   -1.8367   -1.1795 C.ar      1 <0>        -0.1067
     14 C12        -3.6396   -2.1990    0.0237 C.ar      1 <0>        -0.0883
     15 C13        -3.0388   -1.8500    1.2198 C.ar      1 <0>        -0.1067
     16 C14        -1.8559   -1.1370    1.2198 C.ar      1 <0>        -0.0069
     17 Cl1        -1.1039   -0.6995    2.7220 Cl        1 <0>        -0.0506
     18 Cl2        -1.1601   -0.6597   -2.7043 Cl        1 <0>        -0.0505
     19 C15         3.6539   -0.5268   -0.0352 C.ar      1 <0>         0.2695
     20 N2          4.7353    0.2302   -0.0411 N.ar      1 <0>        -0.5836
     21 C16         4.6469    1.5556   -0.0332 C.ar      1 <0>         0.6146
     22 N3          3.4843    2.1894   -0.0191 N.ar      1 <0>        -0.6030
     23 N4          5.8098    2.2997   -0.0394 N.pl3     1 <0>        -0.8060
     24 H1          1.0610    6.0101    2.4946 H         1 <0>         0.0602
     25 H2          1.9360    6.0409    0.9448 H         1 <0>         0.0581
     26 H3          0.1566    5.9958    0.9615 H         1 <0>         0.0585
     27 H4          0.2236    3.7344    1.9765 H         1 <0>         0.0665
     28 H5          2.0029    3.7795    1.9597 H         1 <0>         0.0661
     29 H6          1.9738    4.0094   -0.5091 H         1 <0>         0.1007
     30 H7          0.1945    3.9643   -0.4923 H         1 <0>         0.0970
     31 H8          1.2390   -1.7393   -0.0188 H         1 <0>         0.1487
     32 H9         -3.5352   -2.1123   -2.1099 H         1 <0>         0.1434
     33 H10        -4.5645   -2.7565    0.0292 H         1 <0>         0.1450
     34 H11        -3.4956   -2.1359    2.1558 H         1 <0>         0.1433
     35 H12         3.7347   -1.6038   -0.0414 H         1 <0>         0.1857
     36 H13         5.7657    3.2687   -0.0334 H         1 <0>         0.4184
     37 H14         6.6710    1.8535   -0.0497 H         1 <0>         0.4206
@<TRIPOS>BOND
     1    1    2 1
     2    1   24 1
     3    1   25 1
     4    1   26 1
     5    2    3 1
     6    2   27 1
     7    2   28 1
     8    3    4 1
     9    3   29 1
    10    3   30 1
    11    4    9 am
    12    4    5 1
    13    5   22 ar
    14    5    6 ar
    15    6    7 1
    16    6   19 ar
    17    7    8 2
    18    7   31 1
    19    8    9 1
    20    8   11 1
    21    9   10 2
    22   11   16 ar
    23   11   12 ar
    24   12   13 ar
    25   12   18 1
    26   13   14 ar
    27   13   32 1
    28   14   15 ar
    29   14   33 1
    30   15   16 ar
    31   15   34 1
    32   16   17 1
    33   19   20 ar
    34   19   35 1
    35   20   21 ar
    36   21   22 ar
    37   21   23 1
    38   23   36 1
    39   23   37 1
@<TRIPOS>MOLECULE
ZINC03815555
   52    55     0     0     0
SMALL
USER_CHARGES

@<TRIPOS>ATOM
      1 C1        -10.6671    6.5980   -1.3483 C.3       1 <0>         0.0250
      2 O1         -9.4574    5.8811   -1.6030 O.3       1 <0>        -0.3101
      3 C2         -8.4207    6.0983   -0.7516 C.ar      1 <0>         0.1769
      4 C3         -7.2190    5.4353   -0.9413 C.ar      1 <0>        -0.1734
      5 C4         -6.1565    5.6585   -0.0678 C.ar      1 <0>         0.0400
      6 C5         -6.3083    6.5443    0.9970 C.ar      1 <0>        -0.1996
      7 C6         -7.5108    7.2083    1.1777 C.ar      1 <0>         0.1769
      8 C7         -8.5666    6.9838    0.3062 C.ar      1 <0>        -0.2970
      9 O2         -7.6578    8.0769    2.2124 O.3       1 <0>        -0.3110
     10 C8         -8.9258    8.7229    2.3421 C.3       1 <0>         0.0248
     11 C9         -4.8692    4.9504   -0.2675 C.ar      1 <0>        -0.1587
     12 C10        -4.8497    3.5769   -0.4454 C.ar      1 <0>         0.0309
     13 C11        -3.6039    2.9528   -0.6313 C.ar      1 <0>        -0.2384
     14 C12        -3.4929    1.5674   -0.8181 C.ar      1 <0>         0.2212
     15 N1         -2.3129    1.0172   -0.9880 N.ar      1 <0>        -0.5396
     16 C13        -1.1868    1.7269   -0.9923 C.ar      1 <0>         0.4132
     17 C14        -1.1936    3.0956   -0.8112 C.ar      1 <0>        -0.2411
     18 C15        -2.4248    3.7457   -0.6295 C.ar      1 <0>         0.2381
     19 N2         -2.4995    5.0673   -0.4531 N.ar      1 <0>        -0.4819
     20 C16        -3.6561    5.6718   -0.2779 C.ar      1 <0>         0.4481
     21 N3         -3.6828    7.0483   -0.0990 N.am      1 <0>        -0.6616
     22 C17        -2.5329    7.7513   -0.1064 C.2       1 <0>         0.6921
     23 O3         -1.4723    7.1800   -0.2697 O.2       1 <0>        -0.4987
     24 N4         -2.5589    9.0875    0.0673 N.am      1 <0>        -0.6834
     25 C18        -1.3608    9.8030    0.1710 C.ar      1 <0>         0.1641
     26 C19        -0.2527    9.2212    0.7727 C.ar      1 <0>        -0.1197
     27 C20         0.9301    9.9280    0.8683 C.ar      1 <0>        -0.0989
     28 C21         1.0082   11.2178    0.3758 C.ar      1 <0>        -0.1362
     29 C22        -0.0951   11.8020   -0.2188 C.ar      1 <0>        -0.1000
     30 C23        -1.2790   11.0985   -0.3226 C.ar      1 <0>        -0.1472
     31 N5          0.0260    1.0735   -1.1780 N.pl3     1 <0>        -0.8464
     32 H1        -11.0418    6.3382   -0.3583 H         1 <0>         0.0572
     33 H2        -10.4708    7.6693   -1.3930 H         1 <0>         0.0568
     34 H3        -11.4113    6.3333   -2.0995 H         1 <0>         0.1048
     35 H4         -7.1060    4.7460   -1.7650 H         1 <0>         0.1385
     36 H5         -5.4881    6.7164    1.6782 H         1 <0>         0.1351
     37 H6         -9.5044    7.4993    0.4519 H         1 <0>         0.1377
     38 H7         -9.7041    7.9718    2.4774 H         1 <0>         0.0573
     39 H8         -8.9083    9.3877    3.2058 H         1 <0>         0.1047
     40 H9         -9.1323    9.3020    1.4420 H         1 <0>         0.0572
     41 H10        -5.7643    3.0025   -0.4412 H         1 <0>         0.1527
     42 H11        -4.3801    0.9516   -0.8219 H         1 <0>         0.1702
     43 H12        -0.2703    3.6558   -0.8131 H         1 <0>         0.1421
     44 H13        -4.5291    7.5041    0.0313 H         1 <0>         0.4175
     45 H14        -3.4081    9.5533    0.1205 H         1 <0>         0.4068
     46 H15        -0.3145    8.2156    1.1618 H         1 <0>         0.1359
     47 H16         1.7934    9.4745    1.3324 H         1 <0>         0.1256
     48 H17         1.9328   11.7701    0.4561 H         1 <0>         0.1232
     49 H18        -0.0308   12.8094   -0.6028 H         1 <0>         0.1263
     50 H19        -2.1405   11.5555   -0.7868 H         1 <0>         0.1245
     51 H20         0.0446    0.1117   -1.3024 H         1 <0>         0.4056
     52 H21         0.8533    1.5798   -1.1872 H         1 <0>         0.4114
@<TRIPOS>BOND
     1    1    2 1
     2    1   32 1
     3    1   33 1
     4    1   34 1
     5    2    3 1
     6    3    8 ar
     7    3    4 ar
     8    4    5 ar
     9    4   35 1
    10    5    6 ar
    11    5   11 1
    12    6    7 ar
    13    6   36 1
    14    7    8 ar
    15    7    9 1
    16    8   37 1
    17    9   10 1
    18   10   38 1
    19   10   39 1
    20   10   40 1
    21   11   20 ar
    22   11   12 ar
    23   12   13 ar
    24   12   41 1
    25   13   18 ar
    26   13   14 ar
    27   14   15 ar
    28   14   42 1
    29   15   16 ar
    30   16   17 ar
    31   16   31 1
    32   17   18 ar
    33   17   43 1
    34   18   19 ar
    35   19   20 ar
    36   20   21 1
    37   21   22 am
    38   21   44 1
    39   22   23 2
    40   22   24 am
    41   24   25 1
    42   24   45 1
    43   25   30 ar
    44   25   26 ar
    45   26   27 ar
    46   26   46 1
    47   27   28 ar
    48   27   47 1
    49   28   29 ar
    50   28   48 1
    51   29   30 ar
    52   29   49 1
    53   30   50 1
    54   31   51 1
    55   31   52 1
@<TRIPOS>MOLECULE
ZINC03815556
   44    47     0     0     0
SMALL
USER_CHARGES

@<TRIPOS>ATOM
      1 C1         -1.0612    5.4742    7.0888 C.3       1 <0>         0.0695
      2 N1         -2.4560    5.0620    7.2641 N.am      1 <0>        -0.5057
      3 C2         -3.0219    4.1848    6.3737 C.ar      1 <0>         0.4688
      4 C3         -4.3648    3.7774    6.5283 C.ar      1 <0>        -0.2761
      5 C4         -5.1384    4.2707    7.6036 C.2       1 <0>         0.0309
      6 C5         -4.5651    5.1453    8.4873 C.2       1 <0>        -0.1636
      7 C6         -3.1697    5.5475    8.2981 C.2       1 <0>         0.5571
      8 O1         -2.6518    6.3249    9.0799 O.2       1 <0>        -0.5007
      9 C7         -5.3495    5.6803    9.6247 C.ar      1 <0>        -0.0103
     10 C8         -6.0758    6.8630    9.4802 C.ar      1 <0>        -0.0062
     11 C9         -6.8088    7.3538   10.5430 C.ar      1 <0>        -0.1064
     12 C10        -6.8159    6.6809   11.7516 C.ar      1 <0>        -0.0873
     13 C11        -6.0939    5.5108   11.9030 C.ar      1 <0>        -0.1064
     14 C12        -5.3606    5.0067   10.8467 C.ar      1 <0>        -0.0064
     15 Cl1        -4.4542    3.5387   11.0391 Cl        1 <0>        -0.0503
     16 Cl2        -6.0629    7.7124    7.9663 Cl        1 <0>        -0.0498
     17 C13        -4.9055    2.8799    5.5953 C.ar      1 <0>         0.2678
     18 N2         -4.1386    2.4569    4.6078 N.ar      1 <0>        -0.5753
     19 C14        -2.8769    2.8578    4.4967 C.ar      1 <0>         0.6090
     20 N3         -2.3228    3.7034    5.3522 N.ar      1 <0>        -0.5936
     21 N4         -2.1168    2.3794    3.4473 N.pl3     1 <0>        -0.6094
     22 C15        -2.7097    1.5834    2.4589 C.ar      1 <0>         0.0775
     23 C16        -4.0688    1.6746    2.2034 C.ar      1 <0>         0.1319
     24 N5         -4.6315    0.9267    1.2733 N.ar      1 <0>        -0.4849
     25 C17        -3.9351    0.0687    0.5525 C.ar      1 <0>         0.1188
     26 C18        -2.5750   -0.0779    0.7408 C.ar      1 <0>        -0.2407
     27 C19        -1.9395    0.6848    1.7145 C.ar      1 <0>         0.1399
     28 O2         -0.6043    0.5640    1.9328 O.3       1 <0>        -0.3144
     29 C20         0.1025   -0.3793    1.1250 C.3       1 <0>         0.0266
     30 H1         -1.0218    6.3656    6.4627 H         1 <0>         0.0750
     31 H2         -0.6222    5.6941    8.0620 H         1 <0>         0.0924
     32 H3         -0.5018    4.6698    6.6112 H         1 <0>         0.0952
     33 H4         -6.1660    3.9619    7.7265 H         1 <0>         0.1516
     34 H5         -7.3744    8.2670   10.4314 H         1 <0>         0.1438
     35 H6         -7.3875    7.0711   12.5807 H         1 <0>         0.1453
     36 H7         -6.1033    4.9905   12.8493 H         1 <0>         0.1437
     37 H8         -5.9290    2.5459    5.6806 H         1 <0>         0.1911
     38 H9         -1.1725    2.5948    3.3947 H         1 <0>         0.4314
     39 H10        -4.6740    2.3651    2.7720 H         1 <0>         0.1869
     40 H11        -4.4353   -0.5240   -0.1991 H         1 <0>         0.1615
     41 H12        -2.0127   -0.7794    0.1423 H         1 <0>         0.1446
     42 H13        -0.3114   -1.3752    1.2831 H         1 <0>         0.0608
     43 H14         1.1570   -0.3760    1.4010 H         1 <0>         0.1059
     44 H15         0.0010   -0.1063    0.0746 H         1 <0>         0.0609
@<TRIPOS>BOND
     1    1    2 1
     2    1   30 1
     3    1   31 1
     4    1   32 1
     5    2    7 am
     6    2    3 1
     7    3   20 ar
     8    3    4 ar
     9    4    5 1
    10    4   17 ar
    11    5    6 2
    12    5   33 1
    13    6    7 1
    14    6    9 1
    15    7    8 2
    16    9   14 ar
    17    9   10 ar
    18   10   11 ar
    19   10   16 1
    20   11   12 ar
    21   11   34 1
    22   12   13 ar
    23   12   35 1
    24   13   14 ar
    25   13   36 1
    26   14   15 1
    27   17   18 ar
    28   17   37 1
    29   18   19 ar
    30   19   20 ar
    31   19   21 1
    32   21   22 1
    33   21   38 1
    34   22   27 ar
    35   22   23 ar
    36   23   24 ar
    37   23   39 1
    38   24   25 ar
    39   25   26 ar
    40   25   40 1
    41   26   27 ar
    42   26   41 1
    43   27   28 1
    44   28   29 1
    45   29   42 1
    46   29   43 1
    47   29   44 1
@<TRIPOS>MOLECULE
ZINC03815556
   45    48     0     0     0
SMALL
USER_CHARGES

@<TRIPOS>ATOM
      1 C1         -1.0612    5.4742    7.0888 C.3       1 <0>         0.0652
      2 N1         -2.4560    5.0620    7.2641 N.am      1 <0>        -0.5031
      3 C2         -3.0219    4.1848    6.3737 C.ar      1 <0>         0.4694
      4 C3         -4.3648    3.7774    6.5283 C.ar      1 <0>        -0.2471
      5 C4         -5.1384    4.2707    7.6036 C.2       1 <0>         0.0071
      6 C5         -4.5651    5.1453    8.4873 C.2       1 <0>        -0.1291
      7 C6         -3.1697    5.5475    8.2981 C.2       1 <0>         0.5508
      8 O1         -2.6518    6.3249    9.0799 O.2       1 <0>        -0.4800
      9 C7         -5.3495    5.6803    9.6247 C.ar      1 <0>        -0.0260
     10 C8         -6.0758    6.8630    9.4802 C.ar      1 <0>        -0.0045
     11 C9         -6.8088    7.3538   10.5430 C.ar      1 <0>        -0.1040
     12 C10        -6.8159    6.6809   11.7516 C.ar      1 <0>        -0.0805
     13 C11        -6.0939    5.5108   11.9030 C.ar      1 <0>        -0.1038
     14 C12        -5.3606    5.0067   10.8467 C.ar      1 <0>        -0.0047
     15 Cl1        -4.4542    3.5387   11.0391 Cl        1 <0>        -0.0498
     16 Cl2        -6.0629    7.7124    7.9663 Cl        1 <0>        -0.0505
     17 C13        -4.9055    2.8799    5.5953 C.ar      1 <0>         0.2641
     18 N2         -4.1386    2.4569    4.6078 N.ar      1 <0>        -0.5993
     19 C14        -2.8769    2.8578    4.4967 C.ar      1 <0>         0.5939
     20 N3         -2.3228    3.7034    5.3522 N.ar      1 <0>        -0.5740
     21 N4         -2.1168    2.3794    3.4473 N.pl3     1 <0>        -0.6096
     22 C15        -2.7097    1.5834    2.4589 C.ar      1 <0>         0.1428
     23 C16        -4.0688    1.6746    2.2034 C.ar      1 <0>         0.1371
     24 C17        -3.9351    0.0687    0.5525 C.ar      1 <0>         0.1599
     25 C18        -2.5750   -0.0779    0.7408 C.ar      1 <0>        -0.2032
     26 C19        -1.9395    0.6848    1.7145 C.ar      1 <0>         0.2265
     27 O2         -0.6043    0.5640    1.9328 O.3       1 <0>        -0.2810
     28 C20         0.1025   -0.3793    1.1250 C.3       1 <0>         0.0097
     29 H1         -1.0218    6.3656    6.4627 H         1 <0>         0.0800
     30 H2         -0.6222    5.6941    8.0620 H         1 <0>         0.0980
     31 H3         -0.5018    4.6698    6.6112 H         1 <0>         0.0968
     32 H4         -6.1660    3.9619    7.7265 H         1 <0>         0.1575
     33 H5         -7.3744    8.2670   10.4314 H         1 <0>         0.1469
     34 H6         -7.3875    7.0711   12.5807 H         1 <0>         0.1491
     35 H7         -6.1033    4.9905   12.8493 H         1 <0>         0.1470
     36 H8         -5.9290    2.5459    5.6806 H         1 <0>         0.1972
     37 H9         -1.1725    2.5948    3.3947 H         1 <0>         0.4468
     38 H10        -4.6740    2.3651    2.7720 H         1 <0>         0.2204
     39 H11        -4.4353   -0.5240   -0.1991 H         1 <0>         0.2023
     40 H12        -2.0127   -0.7794    0.1423 H         1 <0>         0.1935
     41 H13        -0.3114   -1.3752    1.2831 H         1 <0>         0.0791
     42 H14         1.1570   -0.3760    1.4010 H         1 <0>         0.1282
     43 H15         0.0010   -0.1063    0.0746 H         1 <0>         0.0794
     44 N5         -4.7109    0.9336    1.2601 N.ar      1 <0>        -0.4800
     45 H16        -5.7200    1.0220    1.0924 H         1 <0>         0.4818
@<TRIPOS>BOND
     1    1    2 1
     2    1   29 1
     3    1   30 1
     4    1   31 1
     5    2    7 am
     6    2    3 1
     7    3   20 ar
     8    3    4 ar
     9    4    5 1
    10    4   17 ar
    11    5    6 2
    12    5   32 1
    13    6    7 1
    14    6    9 1
    15    7    8 2
    16    9   14 ar
    17    9   10 ar
    18   10   11 ar
    19   10   16 1
    20   11   12 ar
    21   11   33 1
    22   12   13 ar
    23   12   34 1
    24   13   14 ar
    25   13   35 1
    26   14   15 1
    27   17   18 ar
    28   17   36 1
    29   18   19 ar
    30   19   20 ar
    31   19   21 1
    32   21   22 1
    33   21   37 1
    34   22   26 ar
    35   22   23 ar
    36   23   38 1
    37   23   44 ar
    38   24   25 ar
    39   24   39 1
    40   24   44 ar
    41   25   26 ar
    42   25   40 1
    43   26   27 1
    44   27   28 1
    45   28   41 1
    46   28   42 1
    47   28   43 1
    48   44   45 1
@<TRIPOS>MOLECULE
ZINC03815557
   34    36     0     0     0
SMALL
USER_CHARGES

@<TRIPOS>ATOM
      1 C1         -1.7150   -0.9970   -1.4288 C.3       1 <0>        -0.1624
      2 C2         -1.2609   -0.7464    0.0106 C.3       1 <0>         0.0978
      3 N1          0.0021   -0.0041    0.0020 N.am      1 <0>        -0.5036
      4 C3          1.1914   -0.6878   -0.0130 C.ar      1 <0>         0.4704
      5 C4          2.4173    0.0122   -0.0210 C.ar      1 <0>        -0.2868
      6 C5          2.4293    1.4259   -0.0135 C.2       1 <0>         0.0337
      7 C6          1.2376    2.0995    0.0015 C.2       1 <0>        -0.1699
      8 C7         -0.0162    1.3427    0.0094 C.2       1 <0>         0.5584
      9 O1         -1.0810    1.9342    0.0177 O.2       1 <0>        -0.5032
     10 C8          1.2165    3.5810    0.0102 C.ar      1 <0>        -0.0080
     11 C9          1.2124    4.2746    1.2210 C.ar      1 <0>        -0.0069
     12 C10         1.1975    5.6557    1.2220 C.ar      1 <0>        -0.1067
     13 C11         1.1760    6.3511    0.0264 C.ar      1 <0>        -0.0883
     14 C12         1.1746    5.6694   -1.1773 C.ar      1 <0>        -0.1067
     15 C13         1.1947    4.2885   -1.1923 C.ar      1 <0>        -0.0068
     16 Cl1         1.1923    3.4349   -2.7040 Cl        1 <0>        -0.0506
     17 Cl2         1.2326    3.4037    2.7226 Cl        1 <0>        -0.0506
     18 C14         3.6108   -0.7247   -0.0368 C.ar      1 <0>         0.2695
     19 N2          3.5395   -2.0428   -0.0436 N.ar      1 <0>        -0.5837
     20 C15         2.3674   -2.6681   -0.0358 C.ar      1 <0>         0.6146
     21 N3          1.2151   -2.0159   -0.0209 N.ar      1 <0>        -0.6036
     22 N4          2.3502   -4.0486   -0.0440 N.pl3     1 <0>        -0.8060
     23 H1         -1.8577   -0.0429   -1.9361 H         1 <0>         0.0604
     24 H2         -0.9560   -1.5774   -1.9533 H         1 <0>         0.0595
     25 H3         -2.6547   -1.5493   -1.4224 H         1 <0>         0.0764
     26 H4         -1.1181   -1.7005    0.5179 H         1 <0>         0.1006
     27 H5         -2.0199   -0.1660    0.5352 H         1 <0>         0.0970
     28 H6          3.3644    1.9662   -0.0193 H         1 <0>         0.1488
     29 H7          1.1985    6.1939    2.1584 H         1 <0>         0.1434
     30 H8          1.1599    7.4309    0.0327 H         1 <0>         0.1450
     31 H9          1.1581    6.2182   -2.1073 H         1 <0>         0.1433
     32 H10         4.5679   -0.2243   -0.0436 H         1 <0>         0.1857
     33 H11         1.5041   -4.5231   -0.0389 H         1 <0>         0.4185
     34 H12         3.1840   -4.5440   -0.0550 H         1 <0>         0.4206
@<TRIPOS>BOND
     1    1    2 1
     2    1   23 1
     3    1   24 1
     4    1   25 1
     5    2    3 1
     6    2   26 1
     7    2   27 1
     8    3    8 am
     9    3    4 1
    10    4   21 ar
    11    4    5 ar
    12    5    6 1
    13    5   18 ar
    14    6    7 2
    15    6   28 1
    16    7    8 1
    17    7   10 1
    18    8    9 2
    19   10   15 ar
    20   10   11 ar
    21   11   12 ar
    22   11   17 1
    23   12   13 ar
    24   12   29 1
    25   13   14 ar
    26   13   30 1
    27   14   15 ar
    28   14   31 1
    29   15   16 1
    30   18   19 ar
    31   18   32 1
    32   19   20 ar
    33   20   21 ar
    34   20   22 1
    35   22   33 1
    36   22   34 1
@<TRIPOS>MOLECULE
ZINC03815558
   56    59     0     0     0
SMALL
USER_CHARGES

@<TRIPOS>ATOM
      1 C1          0.0021   -0.0041    0.0020 C.3       1 <0>         0.0427
      2 N1         -0.0178    1.4608    0.0101 N.am      1 <0>        -0.5090
      3 C2         -1.2216    2.1269    0.0194 C.ar      1 <0>         0.3280
      4 C3         -2.4255    1.4324    0.0320 C.ar      1 <0>        -0.2554
      5 C4         -3.6131    2.1500    0.0463 C.ar      1 <0>         0.4692
      6 C5         -2.5054    4.1825    0.0466 C.ar      1 <0>         0.2328
      7 C6         -1.2621    3.5384    0.0322 C.ar      1 <0>        -0.1496
      8 C7         -0.0566    4.2794    0.0247 C.2       1 <0>        -0.0244
      9 C8          1.1365    3.6096    0.0101 C.2       1 <0>        -0.0825
     10 C9          1.1430    2.1450    0.0027 C.2       1 <0>         0.5395
     11 O1          2.2020    1.5430   -0.0099 O.2       1 <0>        -0.4447
     12 C10         2.4133    4.3610    0.0015 C.ar      1 <0>        -0.0496
     13 C11         3.0084    4.7175   -1.2093 C.ar      1 <0>        -0.0018
     14 C12         4.1956    5.4234   -1.2103 C.ar      1 <0>        -0.1006
     15 C13         4.8007    5.7666   -0.0147 C.ar      1 <0>        -0.0701
     16 C14         4.2192    5.4109    1.1890 C.ar      1 <0>        -0.1006
     17 C15         3.0290    4.7103    1.2040 C.ar      1 <0>        -0.0018
     18 Cl1         2.3008    4.2649    2.7157 Cl        1 <0>        -0.0489
     19 Cl2         2.2543    4.2815   -2.7109 Cl        1 <0>        -0.0490
     20 N2         -4.8205    1.4669    0.0541 N.pl3     1 <0>        -0.7129
     21 C16        -4.8333    0.0019    0.0468 C.3       1 <0>         0.1153
     22 C17        -6.2801   -0.4955    0.0578 C.3       1 <0>        -0.1687
     23 C18        -6.2935   -2.0254    0.0502 C.3       1 <0>        -0.0008
     24 C19        -8.3479   -2.1604    1.3262 C.3       1 <0>        -0.0431
     25 C20        -9.8065   -2.6224    1.2711 C.3       1 <0>         0.0336
     26 O2         -9.8467   -4.0263    1.0011 O.3       1 <0>        -0.3525
     27 C21        -9.2083   -4.3954   -0.2243 C.3       1 <0>         0.0329
     28 C22        -7.7436   -3.9513   -0.1843 C.3       1 <0>        -0.0385
     29 H1          1.0345   -0.3534   -0.0097 H         1 <0>         0.1207
     30 H2         -0.4983   -0.3791    0.8948 H         1 <0>         0.0921
     31 H3         -0.5153   -0.3696   -0.8850 H         1 <0>         0.0919
     32 H4         -2.4366    0.3525    0.0263 H         1 <0>         0.1839
     33 H5         -2.5521    5.2614    0.0521 H         1 <0>         0.2139
     34 H6         -0.0780    5.3592    0.0300 H         1 <0>         0.1708
     35 H7          4.6545    5.7045   -2.1467 H         1 <0>         0.1515
     36 H8          5.7314    6.3144   -0.0210 H         1 <0>         0.1541
     37 H9          4.6967    5.6818    2.1190 H         1 <0>         0.1515
     38 H10        -5.6562    1.9591    0.0644 H         1 <0>         0.4212
     39 H11        -4.3310   -0.3613   -0.8498 H         1 <0>         0.0976
     40 H12        -4.3143   -0.3703    0.9301 H         1 <0>         0.0975
     41 H13        -6.7824   -0.1322    0.9544 H         1 <0>         0.1017
     42 H14        -6.7990   -0.1232   -0.8255 H         1 <0>         0.1024
     43 H15        -5.7912   -2.3887   -0.8464 H         1 <0>         0.1390
     44 H16        -5.7745   -2.3977    0.9335 H         1 <0>         0.1397
     45 H17        -7.8392   -2.6586    2.1514 H         1 <0>         0.1432
     46 H18        -8.3134   -1.0811    1.4749 H         1 <0>         0.1377
     47 H19       -10.3290   -2.0845    0.4800 H         1 <0>         0.0821
     48 H20       -10.2882   -2.4219    2.2280 H         1 <0>         0.1439
     49 H21        -9.7134   -3.9091   -1.0588 H         1 <0>         0.0831
     50 H22        -9.2573   -5.4772   -0.3488 H         1 <0>         0.1460
     51 H23        -7.2680   -4.1794   -1.1382 H         1 <0>         0.1439
     52 H24        -7.2253   -4.4782    0.6168 H         1 <0>         0.1435
     53 N3         -3.6891    3.5189    0.0539 N.ar      1 <0>        -0.5478
     54 H25        -4.5890    4.0130    0.0644 H         1 <0>         0.4739
     55 N4         -7.6972   -2.4911    0.0412 N.4       1 <0>        -0.3965
     56 H26        -8.2005   -2.0194   -0.7193 H         1 <0>         0.4282
@<TRIPOS>BOND
     1    1    2 1
     2    1   29 1
     3    1   30 1
     4    1   31 1
     5    2   10 am
     6    2    3 1
     7    3    7 ar
     8    3    4 ar
     9    4    5 ar
    10    4   32 1
    11    5   20 1
    12    5   53 ar
    13    6    7 ar
    14    6   33 1
    15    6   53 ar
    16    7    8 1
    17    8    9 2
    18    8   34 1
    19    9   10 1
    20    9   12 1
    21   10   11 2
    22   12   17 ar
    23   12   13 ar
    24   13   14 ar
    25   13   19 1
    26   14   15 ar
    27   14   35 1
    28   15   16 ar
    29   15   36 1
    30   16   17 ar
    31   16   37 1
    32   17   18 1
    33   20   21 1
    34   20   38 1
    35   21   22 1
    36   21   39 1
    37   21   40 1
    38   22   23 1
    39   22   41 1
    40   22   42 1
    41   23   43 1
    42   23   44 1
    43   23   55 1
    44   24   25 1
    45   24   45 1
    46   24   46 1
    47   24   55 1
    48   25   26 1
    49   25   47 1
    50   25   48 1
    51   26   27 1
    52   27   28 1
    53   27   49 1
    54   27   50 1
    55   28   51 1
    56   28   52 1
    57   28   55 1
    58   53   54 1
    59   55   56 1
@<TRIPOS>MOLECULE
ZINC03815559
   48    50     0     0     0
SMALL
USER_CHARGES

@<TRIPOS>ATOM
      1 C1         -2.2664    2.6406    5.7207 C.3       1 <0>         0.0715
      2 N1         -1.0652    1.8152    5.8687 N.am      1 <0>        -0.5071
      3 C2         -0.4094    1.3640    4.7512 C.ar      1 <0>         0.4699
      4 C3          0.7497    0.5679    4.8763 C.ar      1 <0>        -0.2948
      5 C4          1.2453    0.2291    6.1562 C.2       1 <0>         0.0420
      6 C5          0.5843    0.6839    7.2655 C.2       1 <0>        -0.1816
      7 C6         -0.6156    1.5073    7.1005 C.2       1 <0>         0.5597
      8 O1         -1.2098    1.9161    8.0821 O.2       1 <0>        -0.5106
      9 C7          1.0781    0.3458    8.6209 C.ar      1 <0>        -0.0023
     10 C8          0.6245   -0.8061    9.2648 C.ar      1 <0>        -0.0074
     11 C9          1.0925   -1.1181   10.5262 C.ar      1 <0>        -0.1077
     12 C10         2.0012   -0.2863   11.1554 C.ar      1 <0>        -0.0909
     13 C11         2.4509    0.8598   10.5247 C.ar      1 <0>        -0.1077
     14 C12         1.9945    1.1808    9.2613 C.ar      1 <0>        -0.0075
     15 Cl1         2.5591    2.6202    8.4720 Cl        1 <0>        -0.0500
     16 Cl2        -0.5209   -1.8478    8.4796 Cl        1 <0>        -0.0500
     17 C13         1.3899    0.1267    3.7087 C.ar      1 <0>         0.2701
     18 N2          0.8797    0.4693    2.5405 N.ar      1 <0>        -0.5765
     19 C14        -0.2103    1.2245    2.4609 C.ar      1 <0>         0.6146
     20 N3         -0.8488    1.6644    3.5342 N.ar      1 <0>        -0.6076
     21 N4         -0.6984    1.5583    1.2133 N.pl3     1 <0>        -0.6788
     22 C15        -0.0127    1.0858    0.0080 C.3       1 <0>         0.1310
     23 C16        -0.7527    1.5927   -1.2315 C.3       1 <0>        -0.1333
     24 C17        -0.0366    1.0992   -2.4903 C.3       1 <0>        -0.1144
     25 C18        -0.7766    1.6061   -3.7298 C.3       1 <0>        -0.0982
     26 C19        -0.0604    1.1126   -4.9886 C.3       1 <0>        -0.1584
     27 C20        -0.7893    1.6119   -6.2095 C.2       1 <0>         0.4566
     28 O2         -1.7799    2.2925   -6.0856 O.co2     1 <0>        -0.6428
     29 H1         -3.1464    1.9984    5.6843 H         1 <0>         0.0726
     30 H2         -2.3472    3.3201    6.5692 H         1 <0>         0.0896
     31 H3         -2.1993    3.2176    4.7983 H         1 <0>         0.0951
     32 H4          2.1320   -0.3790    6.2574 H         1 <0>         0.1469
     33 H5          0.7451   -2.0112   11.0242 H         1 <0>         0.1421
     34 H6          2.3610   -0.5326   12.1435 H         1 <0>         0.1435
     35 H7          3.1601    1.5053   11.0215 H         1 <0>         0.1421
     36 H8          2.2790   -0.4839    3.7644 H         1 <0>         0.1841
     37 H9         -1.4954    2.1056    1.1349 H         1 <0>         0.4178
     38 H10         0.0021   -0.0041    0.0020 H         1 <0>         0.0737
     39 H11         1.0099    1.4631    0.0003 H         1 <0>         0.0736
     40 H12        -1.7753    1.2154   -1.2238 H         1 <0>         0.0701
     41 H13        -0.7675    2.6825   -1.2255 H         1 <0>         0.0701
     42 H14         0.9860    1.4765   -2.4981 H         1 <0>         0.0619
     43 H15        -0.0218    0.0093   -2.4963 H         1 <0>         0.0620
     44 H16        -1.7991    1.2288   -3.7221 H         1 <0>         0.0602
     45 H17        -0.7913    2.6960   -3.7239 H         1 <0>         0.0602
     46 H18         0.9622    1.4899   -4.9964 H         1 <0>         0.0625
     47 H19        -0.0456    0.0228   -4.9946 H         1 <0>         0.0625
     48 O3         -0.3380    1.3004   -7.4347 O.co2     1 <0>        -0.7786
@<TRIPOS>BOND
     1    1    2 1
     2    1   29 1
     3    1   30 1
     4    1   31 1
     5    2    7 am
     6    2    3 1
     7    3   20 ar
     8    3    4 ar
     9    4    5 1
    10    4   17 ar
    11    5    6 2
    12    5   32 1
    13    6    7 1
    14    6    9 1
    15    7    8 2
    16    9   14 ar
    17    9   10 ar
    18   10   11 ar
    19   10   16 1
    20   11   12 ar
    21   11   33 1
    22   12   13 ar
    23   12   34 1
    24   13   14 ar
    25   13   35 1
    26   14   15 1
    27   17   18 ar
    28   17   36 1
    29   18   19 ar
    30   19   20 ar
    31   19   21 1
    32   21   22 1
    33   21   37 1
    34   22   23 1
    35   22   38 1
    36   22   39 1
    37   23   24 1
    38   23   40 1
    39   23   41 1
    40   24   25 1
    41   24   42 1
    42   24   43 1
    43   25   26 1
    44   25   44 1
    45   25   45 1
    46   26   27 1
    47   26   46 1
    48   26   47 1
    49   27   28 2
    50   27   48 1
@<TRIPOS>MOLECULE
ZINC03815560
   40    42     0     0     0
SMALL
USER_CHARGES

@<TRIPOS>ATOM
      1 C1          1.0613    6.1545    2.9102 C.3       1 <0>        -0.1516
      2 C2          1.0604    5.6524    1.4649 C.3       1 <0>        -0.1183
      3 C3          1.0991    4.1229    1.4563 C.3       1 <0>        -0.1290
      4 C4          1.0982    3.6208    0.0110 C.3       1 <0>         0.1014
      5 N1          1.1353    2.1563    0.0028 N.am      1 <0>        -0.5032
      6 C5          2.3442    1.5078   -0.0123 C.ar      1 <0>         0.4704
      7 C6          2.3976    0.0971   -0.0204 C.ar      1 <0>        -0.2868
      8 C7          1.2037   -0.6599   -0.0130 C.2       1 <0>         0.0334
      9 C8          0.0021   -0.0041    0.0020 C.2       1 <0>        -0.1697
     10 C9         -0.0178    1.4603    0.0101 C.2       1 <0>         0.5583
     11 O1         -1.0826    2.0518    0.0183 O.2       1 <0>        -0.5026
     12 C10        -1.2669   -0.7688    0.0096 C.ar      1 <0>        -0.0079
     13 C11        -1.8811   -1.1191   -1.1934 C.ar      1 <0>        -0.0067
     14 C12        -3.0611   -1.8367   -1.1795 C.ar      1 <0>        -0.1067
     15 C13        -3.6396   -2.1990    0.0237 C.ar      1 <0>        -0.0883
     16 C14        -3.0388   -1.8500    1.2198 C.ar      1 <0>        -0.1068
     17 C15        -1.8559   -1.1370    1.2198 C.ar      1 <0>        -0.0069
     18 Cl1        -1.1039   -0.6995    2.7220 Cl        1 <0>        -0.0505
     19 Cl2        -1.1601   -0.6597   -2.7043 Cl        1 <0>        -0.0505
     20 C16         3.6539   -0.5268   -0.0352 C.ar      1 <0>         0.2694
     21 N2          4.7353    0.2302   -0.0411 N.ar      1 <0>        -0.5837
     22 C17         4.6469    1.5556   -0.0332 C.ar      1 <0>         0.6146
     23 N3          3.4843    2.1894   -0.0191 N.ar      1 <0>        -0.6027
     24 N4          5.8098    2.2997   -0.0394 N.pl3     1 <0>        -0.8061
     25 H1          1.0337    7.2441    2.9163 H         1 <0>         0.0568
     26 H2          0.1857    5.7659    3.4303 H         1 <0>         0.0542
     27 H3          1.9650    5.8110    3.4136 H         1 <0>         0.0531
     28 H4          1.9360    6.0409    0.9448 H         1 <0>         0.0651
     29 H5          0.1566    5.9958    0.9615 H         1 <0>         0.0654
     30 H6          0.2236    3.7344    1.9765 H         1 <0>         0.0669
     31 H7          2.0029    3.7795    1.9597 H         1 <0>         0.0666
     32 H8          1.9738    4.0094   -0.5091 H         1 <0>         0.1006
     33 H9          0.1945    3.9643   -0.4923 H         1 <0>         0.0968
     34 H10         1.2390   -1.7393   -0.0188 H         1 <0>         0.1486
     35 H11        -3.5352   -2.1123   -2.1099 H         1 <0>         0.1433
     36 H12        -4.5645   -2.7565    0.0292 H         1 <0>         0.1449
     37 H13        -3.4956   -2.1359    2.1558 H         1 <0>         0.1433
     38 H14         3.7347   -1.6038   -0.0414 H         1 <0>         0.1856
     39 H15         5.7657    3.2687   -0.0334 H         1 <0>         0.4184
     40 H16         6.6710    1.8535   -0.0497 H         1 <0>         0.4205
@<TRIPOS>BOND
     1    1    2 1
     2    1   25 1
     3    1   26 1
     4    1   27 1
     5    2    3 1
     6    2   28 1
     7    2   29 1
     8    3    4 1
     9    3   30 1
    10    3   31 1
    11    4    5 1
    12    4   32 1
    13    4   33 1
    14    5   10 am
    15    5    6 1
    16    6   23 ar
    17    6    7 ar
    18    7    8 1
    19    7   20 ar
    20    8    9 2
    21    8   34 1
    22    9   10 1
    23    9   12 1
    24   10   11 2
    25   12   17 ar
    26   12   13 ar
    27   13   14 ar
    28   13   19 1
    29   14   15 ar
    30   14   35 1
    31   15   16 ar
    32   15   36 1
    33   16   17 ar
    34   16   37 1
    35   17   18 1
    36   20   21 ar
    37   20   38 1
    38   21   22 ar
    39   22   23 ar
    40   22   24 1
    41   24   39 1
    42   24   40 1
@<TRIPOS>MOLECULE
ZINC03815561
   46    49     0     0     0
SMALL
USER_CHARGES

@<TRIPOS>ATOM
      1 C1         -6.4457   -5.3852   -1.9617 C.3       1 <0>         0.0712
      2 N1         -5.4740   -5.6566   -3.0240 N.am      1 <0>        -0.5070
      3 C2         -4.2850   -4.9724   -3.0475 C.ar      1 <0>         0.4692
      4 C3         -3.3377   -5.2222   -4.0639 C.ar      1 <0>        -0.2873
      5 C4         -3.6067   -6.1813   -5.0670 C.2       1 <0>         0.0356
      6 C5         -4.7958   -6.8591   -5.0353 C.2       1 <0>        -0.1717
      7 C6         -5.7569   -6.5755   -3.9673 C.2       1 <0>         0.5580
      8 O1         -6.8172   -7.1739   -3.9316 O.2       1 <0>        -0.5050
      9 C7         -5.1078   -7.8701   -6.0725 C.ar      1 <0>        -0.0072
     10 C8         -5.7664   -7.4926   -7.2433 C.ar      1 <0>        -0.0069
     11 C9         -6.0499   -8.4391   -8.2084 C.ar      1 <0>        -0.1068
     12 C10        -5.6915   -9.7605   -8.0117 C.ar      1 <0>        -0.0886
     13 C11        -5.0430  -10.1423   -6.8510 C.ar      1 <0>        -0.1067
     14 C12        -4.7493   -9.2049   -5.8802 C.ar      1 <0>        -0.0070
     15 Cl1        -3.9365   -9.6862   -4.4237 Cl        1 <0>        -0.0504
     16 Cl2        -6.2230   -5.8358   -7.4890 Cl        1 <0>        -0.0508
     17 C13        -2.1346   -4.5007   -4.0518 C.ar      1 <0>         0.2691
     18 N2         -1.9394   -3.6138   -3.0939 N.ar      1 <0>        -0.5777
     19 C14        -2.8517   -3.4088   -2.1502 C.ar      1 <0>         0.6145
     20 N3         -4.0013   -4.0650   -2.1199 N.ar      1 <0>        -0.6053
     21 N4         -2.5939   -2.4732   -1.1682 N.pl3     1 <0>        -0.6859
     22 C15        -1.3303   -1.7320   -1.1762 C.3       1 <0>         0.1429
     23 C16        -1.2977   -0.7666    0.0103 C.3       1 <0>        -0.0826
     24 C17         0.0021   -0.0041    0.0020 C.ar      1 <0>         0.1301
     25 C18        -0.0167    1.3780    0.0096 C.ar      1 <0>        -0.1664
     26 C19         1.1846    2.0699    0.0019 C.ar      1 <0>        -0.0721
     27 C20         2.3651    1.3426   -0.0128 C.ar      1 <0>        -0.1744
     28 C21         2.3054   -0.0380   -0.0197 C.ar      1 <0>         0.1050
     29 N5          1.1441   -0.6630   -0.0120 N.ar      1 <0>        -0.4795
     30 H1         -7.1181   -4.5882   -2.2792 H         1 <0>         0.0731
     31 H2         -7.0224   -6.2874   -1.7577 H         1 <0>         0.0908
     32 H3         -5.9196   -5.0782   -1.0578 H         1 <0>         0.0945
     33 H4         -2.8850   -6.3767   -5.8463 H         1 <0>         0.1484
     34 H5         -6.5563   -8.1476   -9.1166 H         1 <0>         0.1432
     35 H6         -5.9192  -10.4975   -8.7676 H         1 <0>         0.1448
     36 H7         -4.7661  -11.1757   -6.7035 H         1 <0>         0.1433
     37 H8         -1.3859   -4.6643   -4.8128 H         1 <0>         0.1849
     38 H9         -3.2494   -2.3068   -0.4728 H         1 <0>         0.4167
     39 H10        -1.2455   -1.1685   -2.1055 H         1 <0>         0.0717
     40 H11        -0.4981   -2.4316   -1.0984 H         1 <0>         0.0862
     41 H12        -1.3825   -1.3301    0.9396 H         1 <0>         0.0919
     42 H13        -2.1299   -0.0670   -0.0675 H         1 <0>         0.0876
     43 H14        -0.9553    1.9121    0.0170 H         1 <0>         0.1356
     44 H15         1.2007    3.1498    0.0075 H         1 <0>         0.1362
     45 H16         3.3192    1.8486   -0.0192 H         1 <0>         0.1366
     46 H17         3.2203   -0.6118   -0.0312 H         1 <0>         0.1583
@<TRIPOS>BOND
     1    1    2 1
     2    1   30 1
     3    1   31 1
     4    1   32 1
     5    2    7 am
     6    2    3 1
     7    3   20 ar
     8    3    4 ar
     9    4    5 1
    10    4   17 ar
    11    5    6 2
    12    5   33 1
    13    6    7 1
    14    6    9 1
    15    7    8 2
    16    9   14 ar
    17    9   10 ar
    18   10   11 ar
    19   10   16 1
    20   11   12 ar
    21   11   34 1
    22   12   13 ar
    23   12   35 1
    24   13   14 ar
    25   13   36 1
    26   14   15 1
    27   17   18 ar
    28   17   37 1
    29   18   19 ar
    30   19   20 ar
    31   19   21 1
    32   21   22 1
    33   21   38 1
    34   22   23 1
    35   22   39 1
    36   22   40 1
    37   23   24 1
    38   23   41 1
    39   23   42 1
    40   24   29 ar
    41   24   25 ar
    42   25   26 ar
    43   25   43 1
    44   26   27 ar
    45   26   44 1
    46   27   28 ar
    47   27   45 1
    48   28   29 ar
    49   28   46 1
@<TRIPOS>MOLECULE
ZINC03815562
   52    54     0     0     0
SMALL
USER_CHARGES

@<TRIPOS>ATOM
      1 C1          3.7287   -0.8774   -0.0355 C.3       1 <0>        -0.1541
      2 C2          2.3082   -0.3092   -0.0198 C.3       1 <0>         0.0539
      3 O1          2.3663    1.1186   -0.0136 O.3       1 <0>        -0.3141
      4 C3          1.1815    1.7842    0.0004 C.ar      1 <0>         0.1407
      5 C4         -0.0126    1.0758    0.0080 C.ar      1 <0>        -0.2064
      6 C5         -1.2200    1.7485    0.0173 C.ar      1 <0>        -0.0682
      7 C6         -1.2456    3.1287    0.0298 C.ar      1 <0>        -0.1654
      8 C7         -0.0513    3.8477    0.0223 C.ar      1 <0>         0.0013
      9 C8          1.1655    3.1690    0.0075 C.ar      1 <0>        -0.1380
     10 C9         -0.0758    5.3302    0.0305 C.ar      1 <0>        -0.1633
     11 C10         0.6904    6.0368    0.9442 C.ar      1 <0>         0.0397
     12 C11         0.6302    7.4391    0.9088 C.ar      1 <0>        -0.2956
     13 C12         1.3727    8.2369    1.7964 C.ar      1 <0>         0.2654
     14 N1          1.2657    9.5468    1.7038 N.ar      1 <0>        -0.5712
     15 C13         0.4768   10.1157    0.7946 C.ar      1 <0>         0.5954
     16 N2         -0.2421    9.4168   -0.0631 N.ar      1 <0>        -0.5644
     17 C14        -0.2014    8.0786   -0.0481 C.ar      1 <0>         0.4281
     18 N3         -0.9187    7.3504   -0.9053 N.ar      1 <0>        -0.4759
     19 C15        -0.8746    6.0335   -0.8955 C.ar      1 <0>         0.4727
     20 N4         -1.6356    5.3227   -1.8122 N.am      1 <0>        -0.6634
     21 C16        -2.4041    5.9795   -2.7035 C.2       1 <0>         0.6895
     22 O2         -2.4305    7.1949   -2.7042 O.2       1 <0>        -0.5041
     23 N5         -3.1433    5.2889   -3.5941 N.am      1 <0>        -0.7356
     24 C17        -3.9786    6.0029   -4.5629 C.3       1 <0>         0.1877
     25 C18        -3.0967    6.9013   -5.4323 C.3       1 <0>        -0.1665
     26 C19        -4.7082    4.9920   -5.4500 C.3       1 <0>        -0.1554
     27 C20        -5.0034    6.8609   -3.8182 C.3       1 <0>        -0.1662
     28 N6          0.4079   11.4951    0.7475 N.pl3     1 <0>        -0.8107
     29 H1          4.2650   -0.5394    0.8512 H         1 <0>         0.0675
     30 H2          3.6844   -1.9664   -0.0402 H         1 <0>         0.0801
     31 H3          4.2487   -0.5310   -0.9287 H         1 <0>         0.0673
     32 H4          1.7882   -0.6556    0.8733 H         1 <0>         0.0638
     33 H5          1.7719   -0.6472   -0.9065 H         1 <0>         0.0634
     34 H6          0.0021   -0.0041    0.0020 H         1 <0>         0.1307
     35 H7         -2.1460    1.1927    0.0187 H         1 <0>         0.1309
     36 H8         -2.1906    3.6514    0.0413 H         1 <0>         0.1268
     37 H9          2.0935    3.7213    0.0012 H         1 <0>         0.1354
     38 H10         1.3141    5.5244    1.6617 H         1 <0>         0.1538
     39 H11         2.0158    7.7863    2.5380 H         1 <0>         0.1813
     40 H12        -1.6145    4.3529   -1.8116 H         1 <0>         0.4161
     41 H13        -3.1222    4.3191   -3.5935 H         1 <0>         0.3941
     42 H14        -2.3667    6.2901   -5.9629 H         1 <0>         0.0527
     43 H15        -3.7183    7.4325   -6.1532 H         1 <0>         0.0640
     44 H16        -2.5770    7.6215   -4.8004 H         1 <0>         0.0816
     45 H17        -5.3364    4.3519   -4.8306 H         1 <0>         0.0623
     46 H18        -5.3297    5.5232   -6.1708 H         1 <0>         0.0765
     47 H19        -3.9781    4.3808   -5.9805 H         1 <0>         0.0622
     48 H20        -4.4837    7.5810   -3.1862 H         1 <0>         0.0817
     49 H21        -5.6249    7.3921   -4.5391 H         1 <0>         0.0640
     50 H22        -5.6317    6.2208   -3.1988 H         1 <0>         0.0527
     51 H23        -0.1608   11.9302    0.0931 H         1 <0>         0.4185
     52 H24         0.9281   12.0282    1.3688 H         1 <0>         0.4170
@<TRIPOS>BOND
     1    1    2 1
     2    1   29 1
     3    1   30 1
     4    1   31 1
     5    2    3 1
     6    2   32 1
     7    2   33 1
     8    3    4 1
     9    4    9 ar
    10    4    5 ar
    11    5    6 ar
    12    5   34 1
    13    6    7 ar
    14    6   35 1
    15    7    8 ar
    16    7   36 1
    17    8    9 ar
    18    8   10 1
    19    9   37 1
    20   10   19 ar
    21   10   11 ar
    22   11   12 ar
    23   11   38 1
    24   12   17 ar
    25   12   13 ar
    26   13   14 ar
    27   13   39 1
    28   14   15 ar
    29   15   16 ar
    30   15   28 1
    31   16   17 ar
    32   17   18 ar
    33   18   19 ar
    34   19   20 1
    35   20   21 am
    36   20   40 1
    37   21   22 2
    38   21   23 am
    39   23   24 1
    40   23   41 1
    41   24   25 1
    42   24   26 1
    43   24   27 1
    44   25   42 1
    45   25   43 1
    46   25   44 1
    47   26   45 1
    48   26   46 1
    49   26   47 1
    50   27   48 1
    51   27   49 1
    52   27   50 1
    53   28   51 1
    54   28   52 1
@<TRIPOS>MOLECULE
ZINC03815563
   40    42     0     0     0
SMALL
USER_CHARGES

@<TRIPOS>ATOM
      1 C1         -0.0187    1.5258    0.0104 C.3       1 <0>        -0.1641
      2 C2          0.0021   -0.0041    0.0020 C.3       1 <0>         0.1491
      3 C3          0.7182   -0.4975   -1.2568 C.3       1 <0>        -0.1639
      4 N1         -1.3723   -0.5112    0.0124 N.pl3     1 <0>        -0.6807
      5 C4         -2.0446   -0.6587    1.2092 C.ar      1 <0>         0.6143
      6 N2         -1.4204   -0.3386    2.3377 N.ar      1 <0>        -0.5787
      7 C5         -2.0204   -0.4560    3.5073 C.ar      1 <0>         0.2684
      8 C6         -3.3371   -0.9398    3.5411 C.ar      1 <0>        -0.2881
      9 C7         -4.0299   -1.0932    4.7638 C.2       1 <0>         0.0354
     10 C8         -5.3134   -1.5692    4.7441 C.2       1 <0>        -0.1715
     11 C9         -5.9352   -1.9072    3.4620 C.2       1 <0>         0.5577
     12 O1         -7.0769   -2.3310    3.4353 O.2       1 <0>        -0.5049
     13 N3         -5.2512   -1.7513    2.3122 N.am      1 <0>        -0.5070
     14 C10        -3.9648   -1.2745    2.3222 C.ar      1 <0>         0.4691
     15 N4         -3.2858   -1.1190    1.1908 N.ar      1 <0>        -0.6064
     16 C11        -5.8876   -2.0940    1.0379 C.3       1 <0>         0.0713
     17 C12        -6.0663   -1.7413    6.0085 C.ar      1 <0>        -0.0075
     18 C13        -6.0095   -2.9529    6.6985 C.ar      1 <0>        -0.0069
     19 C14        -6.7103   -3.1053    7.8788 C.ar      1 <0>        -0.1068
     20 C15        -7.4752   -2.0636    8.3721 C.ar      1 <0>        -0.0884
     21 C16        -7.5395   -0.8617    7.6905 C.ar      1 <0>        -0.1068
     22 C17        -6.8398   -0.6945    6.5116 C.ar      1 <0>        -0.0069
     23 Cl1        -6.9227    0.8144    5.6571 Cl        1 <0>        -0.0507
     24 Cl2        -5.0559   -4.2638    6.0774 Cl        1 <0>        -0.0506
     25 H1          1.0039    1.9031    0.0027 H         1 <0>         0.0693
     26 H2         -0.5459    1.8868   -0.8726 H         1 <0>         0.0556
     27 H3         -0.5289    1.8773    0.9072 H         1 <0>         0.0613
     28 H4          0.5293   -0.3651    0.8851 H         1 <0>         0.0967
     29 H5          1.7408   -0.1202   -1.2645 H         1 <0>         0.0782
     30 H6          0.7330   -1.5874   -1.2628 H         1 <0>         0.0630
     31 H7          0.1910   -0.1364   -2.1398 H         1 <0>         0.0623
     32 H8         -1.8100   -0.7432   -0.8215 H         1 <0>         0.4153
     33 H9         -1.5072   -0.1894    4.4194 H         1 <0>         0.1848
     34 H10        -3.5541   -0.8380    5.6992 H         1 <0>         0.1483
     35 H11        -5.6899   -3.1398    0.8027 H         1 <0>         0.0732
     36 H12        -6.9633   -1.9359    1.1149 H         1 <0>         0.0909
     37 H13        -5.4830   -1.4612    0.2480 H         1 <0>         0.0943
     38 H14        -6.6640   -4.0411    8.4160 H         1 <0>         0.1433
     39 H15        -8.0249   -2.1895    9.2932 H         1 <0>         0.1450
     40 H16        -8.1386   -0.0523    8.0809 H         1 <0>         0.1433
@<TRIPOS>BOND
     1    1    2 1
     2    1   25 1
     3    1   26 1
     4    1   27 1
     5    2    3 1
     6    2    4 1
     7    2   28 1
     8    3   29 1
     9    3   30 1
    10    3   31 1
    11    4    5 1
    12    4   32 1
    13    5   15 ar
    14    5    6 ar
    15    6    7 ar
    16    7    8 ar
    17    7   33 1
    18    8   14 ar
    19    8    9 1
    20    9   10 2
    21    9   34 1
    22   10   11 1
    23   10   17 1
    24   11   12 2
    25   11   13 am
    26   13   14 1
    27   13   16 1
    28   14   15 ar
    29   16   35 1
    30   16   36 1
    31   16   37 1
    32   17   22 ar
    33   17   18 ar
    34   18   19 ar
    35   18   24 1
    36   19   20 ar
    37   19   38 1
    38   20   21 ar
    39   20   39 1
    40   21   22 ar
    41   21   40 1
    42   22   23 1
@<TRIPOS>MOLECULE
ZINC03815564
   40    43     0     0     0
SMALL
USER_CHARGES

@<TRIPOS>ATOM
      1 C1         -0.0556    4.2475    0.0250 C.ar      1 <0>        -0.0875
      2 C2          1.1533    3.5753    0.0103 C.ar      1 <0>        -0.1067
      3 C3          1.1790    2.1944    0.0026 C.ar      1 <0>        -0.0070
      4 C4         -0.0180    1.4774    0.0102 C.ar      1 <0>        -0.0089
      5 C5         -1.2341    2.1616    0.0196 C.ar      1 <0>        -0.0063
      6 C6         -1.2458    3.5427    0.0322 C.ar      1 <0>        -0.1067
      7 Cl1        -2.7289    1.2789    0.0213 Cl        1 <0>        -0.0504
      8 C7          0.0021   -0.0041    0.0020 C.2       1 <0>        -0.1680
      9 C8          0.0284   -0.7010    1.1802 C.2       1 <0>         0.0337
     10 C9          0.0415   -2.1140    1.1403 C.ar      1 <0>        -0.2850
     11 C10         0.0635   -2.8746    2.3193 C.ar      1 <0>         0.2708
     12 N1          0.0809   -4.1906    2.2218 N.ar      1 <0>        -0.5820
     13 C11         0.0778   -4.7927    1.0374 C.ar      1 <0>         0.6159
     14 N2          0.0574   -4.1181   -0.1015 N.ar      1 <0>        -0.6041
     15 C12         0.0390   -2.7896   -0.0989 C.ar      1 <0>         0.4712
     16 N3          0.0182   -2.0828   -1.2745 N.am      1 <0>        -0.5001
     17 C13         0.0000   -0.7361   -1.2664 C.2       1 <0>         0.5604
     18 O1         -0.0187   -0.1239   -2.3194 O.2       1 <0>        -0.5006
     19 C14         0.0164   -2.8002   -2.5519 C.3       1 <0>         0.1427
     20 C15         1.4364   -3.0270   -3.0027 C.ar      1 <0>        -0.0694
     21 C16         2.0838   -2.0981   -3.8030 C.ar      1 <0>        -0.1455
     22 C17         3.3876   -2.3381   -4.1935 C.ar      1 <0>         0.0953
     23 N4          4.0114   -3.4388   -3.8216 N.ar      1 <0>        -0.4778
     24 C18         3.4254   -4.3459   -3.0648 C.ar      1 <0>         0.0915
     25 C19         2.1245   -4.1721   -2.6319 C.ar      1 <0>        -0.1457
     26 N5          0.0962   -6.1725    0.9927 N.pl3     1 <0>        -0.8055
     27 Cl2         2.6972    1.3528   -0.0171 Cl        1 <0>        -0.0497
     28 H1         -0.0702    5.3274    0.0307 H         1 <0>         0.1451
     29 H2          2.0790    4.1315    0.0044 H         1 <0>         0.1433
     30 H3         -2.1863    4.0735    0.0433 H         1 <0>         0.1435
     31 H4          0.0352   -0.1792    2.1257 H         1 <0>         0.1494
     32 H5          0.0657   -2.3932    3.2861 H         1 <0>         0.1862
     33 H6         -0.4834   -3.7610   -2.4282 H         1 <0>         0.1138
     34 H7         -0.5123   -2.2093   -3.2997 H         1 <0>         0.1102
     35 H8          1.5767   -1.1969   -4.1146 H         1 <0>         0.1415
     36 H9          3.9000   -1.6179   -4.8141 H         1 <0>         0.1575
     37 H10         3.9683   -5.2351   -2.7804 H         1 <0>         0.1555
     38 H11         1.6498   -4.9190   -2.0128 H         1 <0>         0.1398
     39 H12         0.1109   -6.6842    1.8166 H         1 <0>         0.4212
     40 H13         0.0943   -6.6301    0.1375 H         1 <0>         0.4183
@<TRIPOS>BOND
     1    1    6 ar
     2    1    2 ar
     3    1   28 1
     4    2    3 ar
     5    2   29 1
     6    3    4 ar
     7    3   27 1
     8    4    5 ar
     9    4    8 1
    10    5    6 ar
    11    5    7 1
    12    6   30 1
    13    8   17 1
    14    8    9 2
    15    9   10 1
    16    9   31 1
    17   10   15 ar
    18   10   11 ar
    19   11   12 ar
    20   11   32 1
    21   12   13 ar
    22   13   14 ar
    23   13   26 1
    24   14   15 ar
    25   15   16 1
    26   16   17 am
    27   16   19 1
    28   17   18 2
    29   19   20 1
    30   19   33 1
    31   19   34 1
    32   20   25 ar
    33   20   21 ar
    34   21   22 ar
    35   21   35 1
    36   22   23 ar
    37   22   36 1
    38   23   24 ar
    39   24   25 ar
    40   24   37 1
    41   25   38 1
    42   26   39 1
    43   26   40 1
@<TRIPOS>MOLECULE
ZINC03815565
   39    41     0     0     0
SMALL
USER_CHARGES

@<TRIPOS>ATOM
      1 C1          4.4362    7.7127    0.2354 C.3       1 <0>        -0.0884
      2 C2          5.0823    6.3520    0.1890 C.2       1 <0>        -0.0974
      3 C3          6.4507    6.0808    0.2437 C.2       1 <0>        -0.1610
      4 C4          6.6138    4.7361    0.1729 C.2       1 <0>         0.0250
      5 N1          5.3944    4.1482    0.0805 N.pl3     1 <0>        -0.5138
      6 H1          5.2291    3.1943    0.0201 H         1 <0>         0.4161
      7 C5          4.4301    5.1331    0.0835 C.2       1 <0>        -0.0162
      8 C6          3.0361    4.9367    0.0006 C.2       1 <0>         0.0766
      9 C7          2.5287    3.8944   -0.7511 C.2       1 <0>        -0.2018
     10 C8          1.1210    3.4433   -0.8323 C.ar      1 <0>        -0.1102
     11 C9         -0.0514    3.8796   -0.2335 C.ar      1 <0>        -0.0316
     12 C10        -1.2539    3.2310   -0.5188 C.ar      1 <0>        -0.1312
     13 C11        -1.2667    2.1507   -1.4092 C.ar      1 <0>        -0.0466
     14 C12        -0.1017    1.7173   -1.9971 C.ar      1 <0>        -0.1527
     15 C13         1.1059    2.3563   -1.7212 C.ar      1 <0>         0.1254
     16 N2          2.3933    2.1239   -2.1763 N.am      1 <0>        -0.6497
     17 C14         3.2685    2.9926   -1.6431 C.2       1 <0>         0.5559
     18 O1          4.4665    3.0263   -1.8614 O.2       1 <0>        -0.5234
     19 C15        -2.5076    3.6857    0.1111 C.2       1 <0>         0.4935
     20 O2         -2.4948    4.6264    0.8800 O.co2     1 <0>        -0.6299
     21 C16         7.5526    7.1022    0.3604 C.3       1 <0>        -0.0269
     22 C17         7.7661    7.4561    1.8335 C.3       1 <0>        -0.1474
     23 C18         8.8680    8.4775    1.9502 C.2       1 <0>         0.4591
     24 O3          9.4254    8.8809    0.9570 O.co2     1 <0>        -0.6445
     25 H2          4.2275    7.9807    1.2711 H         1 <0>         0.0682
     26 H3          5.1096    8.4498   -0.2021 H         1 <0>         0.0690
     27 H4          3.5041    7.6918   -0.3293 H         1 <0>         0.0591
     28 H5          7.5607    4.2172    0.1913 H         1 <0>         0.1627
     29 H6          2.3651    5.6011    0.5248 H         1 <0>         0.1514
     30 H7         -0.0340    4.7158    0.4497 H         1 <0>         0.1335
     31 H8         -2.1980    1.6518   -1.6332 H         1 <0>         0.1380
     32 H9         -0.1231    0.8805   -2.6795 H         1 <0>         0.1194
     33 H10         2.6328    1.4222   -2.8017 H         1 <0>         0.4101
     34 H11         8.4741    6.6911   -0.0518 H         1 <0>         0.0619
     35 H12         7.2760    7.9999   -0.1925 H         1 <0>         0.0660
     36 H13         6.8445    7.8671    2.2457 H         1 <0>         0.0633
     37 H14         8.0427    6.5584    2.3864 H         1 <0>         0.0599
     38 O4         -3.6672    3.0579   -0.1660 O.co2     1 <0>        -0.7584
     39 O5          9.2303    8.9390    3.1574 O.co2     1 <0>        -0.7829
@<TRIPOS>BOND
     1    1    2 1
     2    1   25 1
     3    1   26 1
     4    1   27 1
     5    2    7 2
     6    2    3 1
     7    3    4 2
     8    3   21 1
     9    4    5 1
    10    4   28 1
    11    5    6 1
    12    5    7 1
    13    7    8 1
    14    8    9 2
    15    8   29 1
    16    9   17 1
    17    9   10 1
    18   10   15 ar
    19   10   11 ar
    20   11   12 ar
    21   11   30 1
    22   12   13 ar
    23   12   19 1
    24   13   14 ar
    25   13   31 1
    26   14   15 ar
    27   14   32 1
    28   15   16 1
    29   16   17 am
    30   16   33 1
    31   17   18 2
    32   19   20 2
    33   19   38 1
    34   21   22 1
    35   21   34 1
    36   21   35 1
    37   22   23 1
    38   22   36 1
    39   22   37 1
    40   23   24 2
    41   23   39 1
@<TRIPOS>MOLECULE
ZINC03815566
   57    59     0     0     0
SMALL
USER_CHARGES

@<TRIPOS>ATOM
      1 C1          0.0648   -2.8547    2.4884 C.3       1 <0>        -0.1174
      2 C2          0.0421   -2.0899    1.1900 C.ar      1 <0>        -0.0859
      3 C3          0.0400   -2.7724   -0.0132 C.ar      1 <0>        -0.1042
      4 C4          0.0188   -2.0771   -1.2089 C.ar      1 <0>        -0.0860
      5 C5          0.0001   -0.6971   -1.2074 C.ar      1 <0>        -0.0669
      6 C6          0.0021   -0.0041    0.0020 C.ar      1 <0>        -0.0521
      7 C7          0.0288   -0.7100    1.2037 C.ar      1 <0>        -0.0667
      8 C8          0.0379    0.0321    2.5152 C.3       1 <0>        -0.1178
      9 C9         -0.0180    1.4785    0.0102 C.ar      1 <0>        -0.1482
     10 C10        -1.2244    2.1610    0.0196 C.ar      1 <0>         0.0319
     11 C11        -1.1865    3.5646    0.0326 C.ar      1 <0>        -0.2934
     12 C12        -2.3593    4.3390    0.0480 C.ar      1 <0>         0.2627
     13 N1         -2.2456    5.6517    0.0540 N.ar      1 <0>        -0.5712
     14 C13        -1.0536    6.2447    0.0458 C.ar      1 <0>         0.5937
     15 N2          0.0792    5.5683    0.0308 N.ar      1 <0>        -0.5640
     16 C14         0.0680    4.2294    0.0237 C.ar      1 <0>         0.4253
     17 N3          1.2001    3.5239    0.0091 N.ar      1 <0>        -0.4766
     18 C15         1.1905    2.2063    0.0025 C.ar      1 <0>         0.4712
     19 N4          2.3958    1.5194   -0.0127 N.am      1 <0>        -0.6596
     20 C16         3.5592    2.1998   -0.0201 C.2       1 <0>         0.6905
     21 O1          3.5524    3.4154   -0.0135 O.2       1 <0>        -0.5048
     22 N5          4.7300    1.5324   -0.0349 N.am      1 <0>        -0.7359
     23 C17         5.9946    2.2720   -0.0430 C.3       1 <0>         0.1880
     24 C18         6.0827    3.1453    1.2102 C.3       1 <0>        -0.1660
     25 C19         7.1630    1.2843   -0.0595 C.3       1 <0>        -0.1553
     26 C20         6.0588    3.1588   -1.2882 C.3       1 <0>        -0.1660
     27 N6         -1.0006    7.6256    0.0527 N.pl3     1 <0>        -0.8118
     28 C21        -0.0230    0.0589   -2.5108 C.3       1 <0>        -0.1203
     29 C22         0.0166   -2.8278   -2.5155 C.3       1 <0>        -0.1189
     30 H1          1.0977   -3.0251    2.7917 H         1 <0>         0.0709
     31 H2         -0.4497   -2.2793    3.2580 H         1 <0>         0.0695
     32 H3         -0.4374   -3.8128    2.3545 H         1 <0>         0.0673
     33 H4          0.0546   -3.8523   -0.0192 H         1 <0>         0.1237
     34 H5         -0.9873    0.1974    2.8463 H         1 <0>         0.0736
     35 H6          0.5705   -0.5566    3.2622 H         1 <0>         0.0707
     36 H7          0.5372    0.9924    2.3859 H         1 <0>         0.0628
     37 H8         -2.1646    1.6295    0.0207 H         1 <0>         0.1499
     38 H9         -3.3316    3.8689    0.0545 H         1 <0>         0.1796
     39 H10         2.4011    0.5494   -0.0180 H         1 <0>         0.4149
     40 H11         4.7354    0.5624   -0.0402 H         1 <0>         0.3938
     41 H12         6.0370    2.5136    2.0972 H         1 <0>         0.0525
     42 H13         7.0236    3.6956    1.2041 H         1 <0>         0.0638
     43 H14         5.2504    3.8490    1.2219 H         1 <0>         0.0815
     44 H15         7.1002    0.6621   -0.9523 H         1 <0>         0.0621
     45 H16         8.1039    1.8346   -0.0655 H         1 <0>         0.0765
     46 H17         7.1172    0.6525    0.8275 H         1 <0>         0.0621
     47 H18         5.2265    3.8624   -1.2764 H         1 <0>         0.0815
     48 H19         6.9997    3.7090   -1.2942 H         1 <0>         0.0638
     49 H20         5.9961    2.5366   -2.1810 H         1 <0>         0.0524
     50 H21        -0.1426    8.0780    0.0465 H         1 <0>         0.4181
     51 H22        -1.8214    8.1424    0.0636 H         1 <0>         0.4166
     52 H23         0.9989    0.2555   -2.8350 H         1 <0>         0.0696
     53 H24        -0.5360   -0.5357   -3.2668 H         1 <0>         0.0738
     54 H25        -0.5488    1.0038   -2.3735 H         1 <0>         0.0656
     55 H26         1.0436   -2.9949   -2.8403 H         1 <0>         0.0711
     56 H27        -0.4830   -3.7874   -2.3824 H         1 <0>         0.0667
     57 H28        -0.5123   -2.2442   -3.2690 H         1 <0>         0.0713
@<TRIPOS>BOND
     1    1    2 1
     2    1   30 1
     3    1   31 1
     4    1   32 1
     5    2    7 ar
     6    2    3 ar
     7    3    4 ar
     8    3   33 1
     9    4    5 ar
    10    4   29 1
    11    5    6 ar
    12    5   28 1
    13    6    7 ar
    14    6    9 1
    15    7    8 1
    16    8   34 1
    17    8   35 1
    18    8   36 1
    19    9   18 ar
    20    9   10 ar
    21   10   11 ar
    22   10   37 1
    23   11   16 ar
    24   11   12 ar
    25   12   13 ar
    26   12   38 1
    27   13   14 ar
    28   14   15 ar
    29   14   27 1
    30   15   16 ar
    31   16   17 ar
    32   17   18 ar
    33   18   19 1
    34   19   20 am
    35   19   39 1
    36   20   21 2
    37   20   22 am
    38   22   23 1
    39   22   40 1
    40   23   24 1
    41   23   25 1
    42   23   26 1
    43   24   41 1
    44   24   42 1
    45   24   43 1
    46   25   44 1
    47   25   45 1
    48   25   46 1
    49   26   47 1
    50   26   48 1
    51   26   49 1
    52   27   50 1
    53   27   51 1
    54   28   52 1
    55   28   53 1
    56   28   54 1
    57   29   55 1
    58   29   56 1
    59   29   57 1
@<TRIPOS>MOLECULE
ZINC03815567
   46    48     0     0     0
SMALL
USER_CHARGES

@<TRIPOS>ATOM
      1 C1          2.3295    5.8132    3.5207 C.3       1 <0>        -0.0460
      2 C2          0.7870    7.5765    2.9091 C.3       1 <0>        -0.0423
      3 C3          1.0604    5.6524    1.4649 C.3       1 <0>         0.0004
      4 C4          1.0991    4.1229    1.4563 C.3       1 <0>        -0.1659
      5 C5          1.0982    3.6208    0.0110 C.3       1 <0>         0.1088
      6 N1          1.1353    2.1563    0.0028 N.am      1 <0>        -0.5073
      7 C6          2.3442    1.5078   -0.0123 C.ar      1 <0>         0.4638
      8 C7          2.3976    0.0971   -0.0204 C.ar      1 <0>        -0.2808
      9 C8          1.2037   -0.6599   -0.0130 C.2       1 <0>         0.0363
     10 C9          0.0021   -0.0041    0.0020 C.2       1 <0>        -0.1656
     11 C10        -0.0178    1.4603    0.0101 C.2       1 <0>         0.5610
     12 O1         -1.0826    2.0518    0.0183 O.2       1 <0>        -0.5023
     13 C11        -1.2669   -0.7688    0.0096 C.ar      1 <0>        -0.0159
     14 C12        -1.8811   -1.1191   -1.1934 C.ar      1 <0>        -0.0066
     15 C13        -3.0611   -1.8367   -1.1795 C.ar      1 <0>        -0.1039
     16 C14        -3.6396   -2.1990    0.0237 C.ar      1 <0>        -0.0833
     17 C15        -3.0388   -1.8500    1.2198 C.ar      1 <0>        -0.1055
     18 C16        -1.8559   -1.1370    1.2198 C.ar      1 <0>        -0.0063
     19 Cl1        -1.1039   -0.6995    2.7220 Cl        1 <0>        -0.0566
     20 Cl2        -1.1601   -0.6597   -2.7043 Cl        1 <0>        -0.0487
     21 C17         3.6539   -0.5268   -0.0352 C.ar      1 <0>         0.2758
     22 N2          4.7353    0.2302   -0.0411 N.ar      1 <0>        -0.5770
     23 C18         4.6469    1.5556   -0.0332 C.ar      1 <0>         0.6168
     24 N3          3.4843    2.1894   -0.0191 N.ar      1 <0>        -0.6119
     25 N4          5.8098    2.2997   -0.0394 N.pl3     1 <0>        -0.8039
     26 H1          3.1523    6.2872    2.9856 H         1 <0>         0.1245
     27 H2          2.3032    6.1812    4.5464 H         1 <0>         0.1234
     28 H3          2.4739    4.7328    3.5259 H         1 <0>         0.1190
     29 H4         -0.1900    7.7780    2.4697 H         1 <0>         0.1228
     30 H5          0.7934    7.9071    3.9477 H         1 <0>         0.1233
     31 H6          1.5540    8.1143    2.3518 H         1 <0>         0.1239
     32 H7          1.9360    6.0409    0.9448 H         1 <0>         0.1358
     33 H8          0.1566    5.9958    0.9615 H         1 <0>         0.1343
     34 H9          0.2236    3.7344    1.9765 H         1 <0>         0.0924
     35 H10         2.0029    3.7795    1.9597 H         1 <0>         0.0925
     36 H11         1.9738    4.0094   -0.5091 H         1 <0>         0.1107
     37 H12         0.1945    3.9643   -0.4923 H         1 <0>         0.1073
     38 H13         1.2390   -1.7393   -0.0188 H         1 <0>         0.1528
     39 H14        -3.5352   -2.1123   -2.1099 H         1 <0>         0.1460
     40 H15        -4.5645   -2.7565    0.0292 H         1 <0>         0.1479
     41 H16        -3.4956   -2.1359    2.1558 H         1 <0>         0.1450
     42 H17         3.7347   -1.6038   -0.0414 H         1 <0>         0.1900
     43 H18         5.7657    3.2687   -0.0334 H         1 <0>         0.4168
     44 H19         6.6710    1.8535   -0.0497 H         1 <0>         0.4245
     45 N5          1.0402    6.1209    2.8666 N.4       1 <0>        -0.3980
     46 H20         0.2873    5.6366    3.3694 H         1 <0>         0.4319
@<TRIPOS>BOND
     1    1   26 1
     2    1   27 1
     3    1   28 1
     4    1   45 1
     5    2   29 1
     6    2   30 1
     7    2   31 1
     8    2   45 1
     9    3    4 1
    10    3   32 1
    11    3   33 1
    12    3   45 1
    13    4    5 1
    14    4   34 1
    15    4   35 1
    16    5    6 1
    17    5   36 1
    18    5   37 1
    19    6   11 am
    20    6    7 1
    21    7   24 ar
    22    7    8 ar
    23    8    9 1
    24    8   21 ar
    25    9   10 2
    26    9   38 1
    27   10   11 1
    28   10   13 1
    29   11   12 2
    30   13   18 ar
    31   13   14 ar
    32   14   15 ar
    33   14   20 1
    34   15   16 ar
    35   15   39 1
    36   16   17 ar
    37   16   40 1
    38   17   18 ar
    39   17   41 1
    40   18   19 1
    41   21   22 ar
    42   21   42 1
    43   22   23 ar
    44   23   24 ar
    45   23   25 1
    46   25   43 1
    47   25   44 1
    48   45   46 1
@<TRIPOS>MOLECULE
ZINC03815570
   73    75     0     0     0
SMALL
USER_CHARGES

@<TRIPOS>ATOM
      1 C1         10.4154    3.1902    4.0493 C.3       1 <0>        -0.1898
      2 C2         10.1932    4.6512    3.6533 C.3       1 <0>        -0.0110
      3 C3          9.3176    5.2546    5.8286 C.3       1 <0>        -0.0122
      4 C4          7.9979    5.3085    6.6007 C.3       1 <0>        -0.1894
      5 C5          8.6486    6.5038    3.8653 C.3       1 <0>         0.0001
      6 C6          7.9016    6.3259    2.5419 C.3       1 <0>         0.0254
      7 O1          6.6859    5.6114    2.7735 O.3       1 <0>        -0.3245
      8 C7          5.9454    5.2836    1.6821 C.ar      1 <0>         0.1054
      9 C8          6.3183    5.7443    0.4265 C.ar      1 <0>        -0.1850
     10 C9          5.5682    5.4136   -0.6863 C.ar      1 <0>        -0.0834
     11 C10         4.4438    4.6233   -0.5558 C.ar      1 <0>        -0.0774
     12 C11         4.0625    4.1566    0.7012 C.ar      1 <0>        -0.0126
     13 C12         4.8160    4.4947    1.8233 C.ar      1 <0>        -0.0826
     14 C13         4.4065    3.9984    3.1860 C.3       1 <0>        -0.1097
     15 C14         2.8550    3.3080    0.8444 C.ar      1 <0>        -0.1679
     16 C15         2.9550    1.9287    0.7504 C.ar      1 <0>         0.0410
     17 C16         1.7807    1.1723    0.8936 C.ar      1 <0>        -0.2980
     18 C17         1.7867   -0.2309    0.8127 C.ar      1 <0>         0.2647
     19 N1          0.6455   -0.8736    0.9566 N.ar      1 <0>        -0.5676
     20 C18        -0.4949   -0.2219    1.1742 C.ar      1 <0>         0.5992
     21 N2         -0.5597    1.0932    1.2590 N.ar      1 <0>        -0.5642
     22 C19         0.5469    1.8353    1.1261 C.ar      1 <0>         0.4308
     23 N3          0.5065    3.1663    1.2075 N.ar      1 <0>        -0.4731
     24 C20         1.5946    3.8977    1.0765 C.ar      1 <0>         0.4726
     25 N4          1.4988    5.2786    1.1694 N.am      1 <0>        -0.6616
     26 C21         0.3021    5.8577    1.3913 C.2       1 <0>         0.6887
     27 O2         -0.6933    5.1699    1.5101 O.2       1 <0>        -0.5000
     28 N5          0.2090    7.1992    1.4816 N.am      1 <0>        -0.7347
     29 C22        -1.0917    7.8286    1.7228 C.3       1 <0>         0.1877
     30 C23        -1.6618    7.3283    3.0515 C.3       1 <0>        -0.1660
     31 C24        -0.9201    9.3478    1.7812 C.3       1 <0>        -0.1555
     32 C25        -2.0516    7.4670    0.5875 C.3       1 <0>        -0.1671
     33 N6         -1.6588   -0.9531    1.3167 N.pl3     1 <0>        -0.8069
     34 C26         3.6293    4.2647   -1.7719 C.3       1 <0>        -0.1216
     35 H1         11.2714    2.7921    3.5044 H         1 <0>         0.1072
     36 H2         10.6064    3.1292    5.1207 H         1 <0>         0.0814
     37 H3          9.5266    2.6083    3.8050 H         1 <0>         0.0803
     38 H4         10.0021    4.7122    2.5819 H         1 <0>         0.1257
     39 H5         11.0819    5.2331    3.8975 H         1 <0>         0.1329
     40 H6          9.8800    4.3713    6.1315 H         1 <0>         0.1321
     41 H7          9.9018    6.1490    6.0447 H         1 <0>         0.1314
     42 H8          7.4459    4.3821    6.4419 H         1 <0>         0.0813
     43 H9          8.2038    5.4311    7.6640 H         1 <0>         0.1063
     44 H10         7.4037    6.1508    6.2462 H         1 <0>         0.0797
     45 H11         9.5402    7.1088    3.7007 H         1 <0>         0.1507
     46 H12         7.9992    7.0021    4.5850 H         1 <0>         0.1411
     47 H13         8.5252    5.7658    1.8452 H         1 <0>         0.0855
     48 H14         7.6731    7.3043    2.1193 H         1 <0>         0.1089
     49 H15         7.1968    6.3631    0.3192 H         1 <0>         0.1295
     50 H16         5.8624    5.7748   -1.6607 H         1 <0>         0.1345
     51 H17         4.9386    3.0742    3.4112 H         1 <0>         0.0719
     52 H18         4.6518    4.7508    3.9356 H         1 <0>         0.0694
     53 H19         3.3327    3.8113    3.1970 H         1 <0>         0.0696
     54 H20         3.9069    1.4505    0.5729 H         1 <0>         0.1496
     55 H21         2.7058   -0.7700    0.6362 H         1 <0>         0.1802
     56 H22         2.2930    5.8274    1.0747 H         1 <0>         0.4115
     57 H23         1.0033    7.7479    1.3868 H         1 <0>         0.3922
     58 H24        -0.9779    7.5859    3.8603 H         1 <0>         0.0515
     59 H25        -2.6296    7.7966    3.2310 H         1 <0>         0.0660
     60 H26        -1.7840    6.2460    3.0099 H         1 <0>         0.0813
     61 H27        -0.5140    9.7042    0.8345 H         1 <0>         0.0623
     62 H28        -1.8879    9.8161    1.9606 H         1 <0>         0.0785
     63 H29        -0.2363    9.6054    2.5899 H         1 <0>         0.0610
     64 H30        -2.1738    6.3847    0.5460 H         1 <0>         0.0815
     65 H31        -3.0194    7.9353    0.7670 H         1 <0>         0.0660
     66 H32        -1.6454    7.8234   -0.3591 H         1 <0>         0.0530
     67 H33        -2.5008   -0.4984    1.4755 H         1 <0>         0.4204
     68 H34        -1.6338   -1.9210    1.2579 H         1 <0>         0.4189
     69 H35         2.8577    5.0187   -1.9276 H         1 <0>         0.0747
     70 H36         4.2795    4.2244   -2.6458 H         1 <0>         0.0737
     71 H37         3.1615    3.2917   -1.6220 H         1 <0>         0.0711
     72 N7          9.0175    5.1697    4.3838 N.4       1 <0>        -0.3995
     73 H38         8.2284    4.5277    4.2443 H         1 <0>         0.4328
@<TRIPOS>BOND
     1    1    2 1
     2    1   35 1
     3    1   36 1
     4    1   37 1
     5    2   38 1
     6    2   39 1
     7    2   72 1
     8    3    4 1
     9    3   40 1
    10    3   41 1
    11    3   72 1
    12    4   42 1
    13    4   43 1
    14    4   44 1
    15    5    6 1
    16    5   45 1
    17    5   46 1
    18    5   72 1
    19    6    7 1
    20    6   47 1
    21    6   48 1
    22    7    8 1
    23    8   13 ar
    24    8    9 ar
    25    9   10 ar
    26    9   49 1
    27   10   11 ar
    28   10   50 1
    29   11   12 ar
    30   11   34 1
    31   12   13 ar
    32   12   15 1
    33   13   14 1
    34   14   51 1
    35   14   52 1
    36   14   53 1
    37   15   24 ar
    38   15   16 ar
    39   16   17 ar
    40   16   54 1
    41   17   22 ar
    42   17   18 ar
    43   18   19 ar
    44   18   55 1
    45   19   20 ar
    46   20   21 ar
    47   20   33 1
    48   21   22 ar
    49   22   23 ar
    50   23   24 ar
    51   24   25 1
    52   25   26 am
    53   25   56 1
    54   26   27 2
    55   26   28 am
    56   28   29 1
    57   28   57 1
    58   29   30 1
    59   29   31 1
    60   29   32 1
    61   30   58 1
    62   30   59 1
    63   30   60 1
    64   31   61 1
    65   31   62 1
    66   31   63 1
    67   32   64 1
    68   32   65 1
    69   32   66 1
    70   33   67 1
    71   33   68 1
    72   34   69 1
    73   34   70 1
    74   34   71 1
    75   72   73 1
@<TRIPOS>MOLECULE
ZINC03815571
   37    39     0     0     0
SMALL
USER_CHARGES

@<TRIPOS>ATOM
      1 C1         -0.7527    1.5927   -1.2315 C.3       1 <0>        -0.1690
      2 C2         -0.0127    1.0858    0.0080 C.3       1 <0>         0.1284
      3 N1         -0.6984    1.5583    1.2133 N.pl3     1 <0>        -0.6857
      4 C3         -0.2103    1.2245    2.4609 C.ar      1 <0>         0.6118
      5 N2          0.8799    0.4691    2.5405 N.ar      1 <0>        -0.5796
      6 C4          1.3900    0.1267    3.7085 C.ar      1 <0>         0.2690
      7 C5          0.7496    0.5680    4.8764 C.ar      1 <0>        -0.2875
      8 C6          1.2450    0.2287    6.1563 C.2       1 <0>         0.0352
      9 C7          0.5843    0.6839    7.2657 C.2       1 <0>        -0.1711
     10 C8         -0.6153    1.5076    7.1005 C.2       1 <0>         0.5577
     11 O1         -1.2090    1.9171    8.0822 O.2       1 <0>        -0.5047
     12 N3         -1.0650    1.8151    5.8687 N.am      1 <0>        -0.5070
     13 C9         -0.4092    1.3638    4.7513 C.ar      1 <0>         0.4689
     14 N4         -0.8487    1.6643    3.5340 N.ar      1 <0>        -0.6059
     15 C10        -2.2665    2.6401    5.7206 C.3       1 <0>         0.0711
     16 C11         1.0781    0.3457    8.6210 C.ar      1 <0>        -0.0076
     17 C12         0.6242   -0.8059    9.2651 C.ar      1 <0>        -0.0068
     18 C13         1.0918   -1.1176   10.5267 C.ar      1 <0>        -0.1067
     19 C14         2.0005   -0.2859   11.1559 C.ar      1 <0>        -0.0884
     20 C15         2.4509    0.8597   10.5249 C.ar      1 <0>        -0.1067
     21 C16         1.9949    1.1805    9.2612 C.ar      1 <0>        -0.0069
     22 Cl1         2.5605    2.6193    8.4715 Cl        1 <0>        -0.0506
     23 Cl2        -0.5217   -1.8473    8.4801 Cl        1 <0>        -0.0506
     24 H1         -1.7753    1.2154   -1.2238 H         1 <0>         0.0633
     25 H2         -0.7675    2.6825   -1.2255 H         1 <0>         0.0633
     26 H3         -0.2425    1.2411   -2.1283 H         1 <0>         0.0799
     27 H4          0.0021   -0.0041    0.0020 H         1 <0>         0.0727
     28 H5          1.0099    1.4631    0.0003 H         1 <0>         0.0726
     29 H6         -1.4954    2.1056    1.1349 H         1 <0>         0.4168
     30 H7          2.2791   -0.4839    3.7643 H         1 <0>         0.1853
     31 H8          2.1315   -0.3797    6.2573 H         1 <0>         0.1486
     32 H9         -3.1463    1.9977    5.6845 H         1 <0>         0.0733
     33 H10        -2.3475    3.3197    6.5689 H         1 <0>         0.0911
     34 H11        -2.1997    3.2169    4.7981 H         1 <0>         0.0944
     35 H12         0.7443   -2.0108   11.0247 H         1 <0>         0.1433
     36 H13         2.3597   -0.5318   12.1443 H         1 <0>         0.1450
     37 H14         3.1604    1.5050   11.0215 H         1 <0>         0.1433
@<TRIPOS>BOND
     1    1    2 1
     2    1   24 1
     3    1   25 1
     4    1   26 1
     5    2    3 1
     6    2   27 1
     7    2   28 1
     8    3    4 1
     9    3   29 1
    10    4   14 ar
    11    4    5 ar
    12    5    6 ar
    13    6    7 ar
    14    6   30 1
    15    7   13 ar
    16    7    8 1
    17    8    9 2
    18    8   31 1
    19    9   10 1
    20    9   16 1
    21   10   11 2
    22   10   12 am
    23   12   13 1
    24   12   15 1
    25   13   14 ar
    26   15   32 1
    27   15   33 1
    28   15   34 1
    29   16   21 ar
    30   16   17 ar
    31   17   18 ar
    32   17   23 1
    33   18   19 ar
    34   18   35 1
    35   19   20 ar
    36   19   36 1
    37   20   21 ar
    38   20   37 1
    39   21   22 1
@<TRIPOS>MOLECULE
ZINC04617831
   58    62     0     0     0
SMALL
USER_CHARGES

@<TRIPOS>ATOM
      1 C1         -7.0635   -9.2112   -0.0249 C.3       1 <0>         0.0249
      2 O1         -6.5564   -8.1002    0.7171 O.3       1 <0>        -0.3042
      3 C2         -7.1394   -7.8420    1.9166 C.ar      1 <0>         0.1429
      4 C3         -8.1743   -8.6422    2.3734 C.ar      1 <0>        -0.2096
      5 C4         -8.7703   -8.3751    3.5913 C.ar      1 <0>        -0.0790
      6 C5         -8.3357   -7.3121    4.3635 C.ar      1 <0>        -0.1582
      7 C6         -7.3029   -6.5098    3.9232 C.ar      1 <0>        -0.0686
      8 C7         -6.6943   -6.7703    2.6970 C.ar      1 <0>        -0.0761
      9 C8         -5.5843   -5.9116    2.2192 C.ar      1 <0>        -0.0151
     10 C9         -4.3982   -6.4960    1.7699 C.ar      1 <0>        -0.1053
     11 C10        -3.3652   -5.7015    1.3249 C.ar      1 <0>        -0.0709
     12 C11        -3.5083   -4.3161    1.3184 C.ar      1 <0>        -0.0770
     13 C12        -4.6935   -3.7197    1.7738 C.ar      1 <0>         0.1315
     14 C13        -5.7302   -4.5275    2.2203 C.ar      1 <0>        -0.1239
     15 N1         -4.5776   -2.3384    1.6707 N.am      1 <0>        -0.6529
     16 C14        -3.3790   -1.9834    1.1778 C.2       1 <0>         0.5582
     17 O2         -2.9965   -0.8443    0.9776 O.2       1 <0>        -0.5190
     18 C15        -2.6110   -3.2089    0.9217 C.2       1 <0>        -0.2317
     19 C16        -1.3291   -3.3068    0.4142 C.2       1 <0>         0.1073
     20 C17        -0.5540   -2.1437    0.2277 C.2       1 <0>        -0.0320
     21 C18         0.3715   -1.9272   -0.7841 C.2       1 <0>        -0.0582
     22 C19         0.8977   -0.6555   -0.5869 C.2       1 <0>        -0.1742
     23 C20         0.3062   -0.1185    0.5157 C.2       1 <0>         0.0633
     24 N2         -0.5769   -1.0122    1.0172 N.pl3     1 <0>        -0.5061
     25 H1         -1.1328   -0.8800    1.8010 H         1 <0>         0.4152
     26 C21         0.6203    1.2582    1.0519 C.3       1 <0>        -0.0509
     27 C22         1.9448    1.7264    0.4380 C.3       1 <0>        -0.1117
     28 C23         1.8979    1.5449   -1.0811 C.3       1 <0>        -0.1179
     29 C24         1.9398    0.0497   -1.4191 C.3       1 <0>        -0.0478
     30 C25         0.7365   -2.8878   -1.8864 C.3       1 <0>        -0.0396
     31 C26         1.8987   -3.7715   -1.4289 C.3       1 <0>        -0.1457
     32 C27         2.2636   -4.7321   -2.5312 C.2       1 <0>         0.4591
     33 O3          1.6564   -4.7120   -3.5756 O.co2     1 <0>        -0.6410
     34 H2         -8.1200   -9.0521   -0.2409 H         1 <0>         0.0544
     35 H3         -6.5117   -9.3058   -0.9601 H         1 <0>         0.1031
     36 H4         -6.9457  -10.1232    0.5603 H         1 <0>         0.0557
     37 H5         -8.5182   -9.4731    1.7752 H         1 <0>         0.1295
     38 H6         -9.5794   -8.9987    3.9420 H         1 <0>         0.1240
     39 H7         -8.8067   -7.1095    5.3140 H         1 <0>         0.1248
     40 H8         -6.9668   -5.6806    4.5282 H         1 <0>         0.1306
     41 H9         -4.2912   -7.5707    1.7711 H         1 <0>         0.1287
     42 H10        -2.4475   -6.1522    0.9768 H         1 <0>         0.1326
     43 H11        -6.6501   -4.0819    2.5690 H         1 <0>         0.1237
     44 H12        -5.2733   -1.7109    1.9219 H         1 <0>         0.4126
     45 H13        -0.9211   -4.2740    0.1605 H         1 <0>         0.1539
     46 H14        -0.1763    1.9496    0.7772 H         1 <0>         0.0778
     47 H15         0.7131    1.2169    2.1372 H         1 <0>         0.0703
     48 H16         2.1022    2.7789    0.6734 H         1 <0>         0.0663
     49 H17         2.7641    1.1362    0.8486 H         1 <0>         0.0678
     50 H18         2.7550    2.0439   -1.5334 H         1 <0>         0.0643
     51 H19         0.9773    1.9798   -1.4703 H         1 <0>         0.0620
     52 H20         2.9268   -0.3513   -1.1885 H         1 <0>         0.0703
     53 H21         1.7230   -0.0936   -2.4777 H         1 <0>         0.0720
     54 H22        -0.1243   -3.5133   -2.1230 H         1 <0>         0.0675
     55 H23         1.0332   -2.3276   -2.7731 H         1 <0>         0.0742
     56 H24         2.7594   -3.1460   -1.1923 H         1 <0>         0.0644
     57 H25         1.6019   -4.3317   -0.5422 H         1 <0>         0.0608
     58 O4          3.2632   -5.6100   -2.3527 O.co2     1 <0>        -0.7775
@<TRIPOS>BOND
     1    1    2 1
     2    1   34 1
     3    1   35 1
     4    1   36 1
     5    2    3 1
     6    3    8 ar
     7    3    4 ar
     8    4    5 ar
     9    4   37 1
    10    5    6 ar
    11    5   38 1
    12    6    7 ar
    13    6   39 1
    14    7    8 ar
    15    7   40 1
    16    8    9 1
    17    9   14 ar
    18    9   10 ar
    19   10   11 ar
    20   10   41 1
    21   11   12 ar
    22   11   42 1
    23   12   18 1
    24   12   13 ar
    25   13   14 ar
    26   13   15 1
    27   14   43 1
    28   15   16 am
    29   15   44 1
    30   16   17 2
    31   16   18 1
    32   18   19 2
    33   19   20 1
    34   19   45 1
    35   20   24 1
    36   20   21 2
    37   21   22 1
    38   21   30 1
    39   22   29 1
    40   22   23 2
    41   23   24 1
    42   23   26 1
    43   24   25 1
    44   26   27 1
    45   26   46 1
    46   26   47 1
    47   27   28 1
    48   27   48 1
    49   27   49 1
    50   28   29 1
    51   28   50 1
    52   28   51 1
    53   29   52 1
    54   29   53 1
    55   30   31 1
    56   30   54 1
    57   30   55 1
    58   31   32 1
    59   31   56 1
    60   31   57 1
    61   32   33 2
    62   32   58 1
@<TRIPOS>MOLECULE
ZINC04617837
   58    62     0     0     0
SMALL
USER_CHARGES

@<TRIPOS>ATOM
      1 C1        -10.9671   -8.5001    4.4873 C.3       1 <0>         0.0267
      2 O1         -9.7815   -9.1612    4.0408 O.3       1 <0>        -0.3175
      3 C2         -8.7648   -8.3743    3.6009 C.ar      1 <0>         0.1264
      4 C3         -7.5848   -8.9530    3.1532 C.ar      1 <0>        -0.1479
      5 C4         -6.5512   -8.1571    2.7062 C.ar      1 <0>        -0.0671
      6 C5         -6.6921   -6.7700    2.7041 C.ar      1 <0>        -0.0769
      7 C6         -7.8763   -6.1918    3.1593 C.ar      1 <0>        -0.0702
      8 C7         -8.9080   -6.9934    3.6005 C.ar      1 <0>        -0.2065
      9 C8         -5.5824   -5.9113    2.2245 C.ar      1 <0>        -0.0156
     10 C9         -4.3966   -6.4957    1.7748 C.ar      1 <0>        -0.1278
     11 C10        -3.3640   -5.7014    1.3287 C.ar      1 <0>        -0.0662
     12 C11        -3.5072   -4.3159    1.3216 C.ar      1 <0>        -0.0787
     13 C12        -4.6924   -3.7195    1.7771 C.ar      1 <0>         0.1368
     14 C13        -5.7286   -4.5274    2.2247 C.ar      1 <0>        -0.1313
     15 N1         -4.5767   -2.3383    1.6733 N.am      1 <0>        -0.6533
     16 C14        -3.3783   -1.9833    1.1799 C.2       1 <0>         0.5583
     17 O2         -2.9961   -0.8442    0.9790 O.2       1 <0>        -0.5177
     18 C15        -2.6103   -3.2089    0.9242 C.2       1 <0>        -0.2340
     19 C16        -1.3284   -3.3068    0.4163 C.2       1 <0>         0.1097
     20 C17        -0.5536   -2.1437    0.2290 C.2       1 <0>        -0.0334
     21 C18         0.3715   -1.9275   -0.7833 C.2       1 <0>        -0.0567
     22 C19         0.8976   -0.6556   -0.5869 C.2       1 <0>        -0.1745
     23 C20         0.3065   -0.1182    0.5158 C.2       1 <0>         0.0647
     24 N2         -0.5763   -1.0119    1.0180 N.pl3     1 <0>        -0.5064
     25 H1         -1.1322   -0.8792    1.8018 H         1 <0>         0.4152
     26 C21         0.6212    1.2584    1.0518 C.3       1 <0>        -0.0512
     27 C22         1.9458    1.7260    0.4375 C.3       1 <0>        -0.1118
     28 C23         1.8973    1.5448   -1.0824 C.3       1 <0>        -0.1180
     29 C24         1.9393    0.0494   -1.4198 C.3       1 <0>        -0.0480
     30 C25         0.7357   -2.8883   -1.8857 C.3       1 <0>        -0.0399
     31 C26         1.8985   -3.7716   -1.4288 C.3       1 <0>        -0.1457
     32 C27         2.2627   -4.7325   -2.5311 C.2       1 <0>         0.4589
     33 O3          1.6547   -4.7128   -3.5751 O.co2     1 <0>        -0.6409
     34 H2        -10.7239   -7.8422    5.3216 H         1 <0>         0.0556
     35 H3        -11.3846   -7.9117    3.6702 H         1 <0>         0.0558
     36 H4        -11.6970   -9.2422    4.8106 H         1 <0>         0.0999
     37 H5         -7.4765  -10.0275    3.1547 H         1 <0>         0.1337
     38 H6         -5.6335   -8.6078    2.3584 H         1 <0>         0.1370
     39 H7         -7.9868   -5.1175    3.1631 H         1 <0>         0.1277
     40 H8         -9.8269   -6.5462    3.9501 H         1 <0>         0.1289
     41 H9         -4.2893   -7.5704    1.7771 H         1 <0>         0.1321
     42 H10        -2.4463   -6.1521    0.9805 H         1 <0>         0.1344
     43 H11        -6.6485   -4.0817    2.5736 H         1 <0>         0.1254
     44 H12        -5.2724   -1.7108    1.9247 H         1 <0>         0.4129
     45 H13        -0.9204   -4.2741    0.1629 H         1 <0>         0.1544
     46 H14        -0.1752    1.9501    0.7771 H         1 <0>         0.0781
     47 H15         0.7142    1.2172    2.1370 H         1 <0>         0.0705
     48 H16         2.1036    2.7785    0.6727 H         1 <0>         0.0665
     49 H17         2.7649    1.1356    0.8480 H         1 <0>         0.0680
     50 H18         2.7541    2.0436   -1.5352 H         1 <0>         0.0645
     51 H19         0.9764    1.9793   -1.4714 H         1 <0>         0.0621
     52 H20         2.9264   -0.3514   -1.1895 H         1 <0>         0.0706
     53 H21         1.7219   -0.0944   -2.4782 H         1 <0>         0.0722
     54 H22        -0.1251   -3.5140   -2.1215 H         1 <0>         0.0677
     55 H23         1.0317   -2.3283   -2.7727 H         1 <0>         0.0745
     56 H24         2.7593   -3.1459   -1.1930 H         1 <0>         0.0645
     57 H25         1.6025   -4.3317   -0.5417 H         1 <0>         0.0608
     58 O4          3.2626   -5.6102   -2.3532 O.co2     1 <0>        -0.7772
@<TRIPOS>BOND
     1    1    2 1
     2    1   34 1
     3    1   35 1
     4    1   36 1
     5    2    3 1
     6    3    8 ar
     7    3    4 ar
     8    4    5 ar
     9    4   37 1
    10    5    6 ar
    11    5   38 1
    12    6    7 ar
    13    6    9 1
    14    7    8 ar
    15    7   39 1
    16    8   40 1
    17    9   14 ar
    18    9   10 ar
    19   10   11 ar
    20   10   41 1
    21   11   12 ar
    22   11   42 1
    23   12   18 1
    24   12   13 ar
    25   13   14 ar
    26   13   15 1
    27   14   43 1
    28   15   16 am
    29   15   44 1
    30   16   17 2
    31   16   18 1
    32   18   19 2
    33   19   20 1
    34   19   45 1
    35   20   24 1
    36   20   21 2
    37   21   22 1
    38   21   30 1
    39   22   29 1
    40   22   23 2
    41   23   24 1
    42   23   26 1
    43   24   25 1
    44   26   27 1
    45   26   46 1
    46   26   47 1
    47   27   28 1
    48   27   48 1
    49   27   49 1
    50   28   29 1
    51   28   50 1
    52   28   51 1
    53   29   52 1
    54   29   53 1
    55   30   31 1
    56   30   54 1
    57   30   55 1
    58   31   32 1
    59   31   56 1
    60   31   57 1
    61   32   33 2
    62   32   58 1
