@<TRIPOS>MOLECULE
ZINC02046793
   49    52     0     0     0
SMALL
USER_CHARGES

@<TRIPOS>ATOM
      1 C1         -5.2262    3.3683   -2.9505 C.ar      1 <0>        -0.1201
      2 C2         -4.3590    2.3040   -3.1124 C.ar      1 <0>        -0.1125
      3 C3         -4.6868    1.0616   -2.6027 C.ar      1 <0>        -0.1097
      4 C4         -5.8818    0.8834   -1.9311 C.ar      1 <0>        -0.0652
      5 C5         -6.7514    1.9464   -1.7737 C.ar      1 <0>        -0.1032
      6 C6         -6.4212    3.1901   -2.2788 C.ar      1 <0>        -0.1112
      7 C7         -6.2394   -0.4712   -1.3758 C.3       1 <0>        -0.0921
      8 C8         -5.7120   -0.5911    0.0554 C.3       1 <0>         0.1432
      9 H1         -6.0916    0.2377    0.6531 H         1 <0>         0.1191
     10 C9         -6.1742   -1.8948    0.6535 C.2       1 <0>         0.5363
     11 O1         -5.3605   -2.7112    1.0307 O.2       1 <0>        -0.5509
     12 N1         -7.4918   -2.1535    0.7693 N.am      1 <0>        -0.6374
     13 C10        -8.7417   -1.4477    0.4491 C.3       1 <0>         0.1180
     14 C11        -9.4165   -2.2391    1.5745 C.3       1 <0>        -0.1629
     15 C12        -8.3124   -3.2632    1.2773 C.3       1 <0>         0.1228
     16 C13       -10.8077   -2.7182    1.2487 C.2       1 <0>         0.4750
     17 O2        -10.9744   -3.8253    0.7942 O.co2     1 <0>        -0.6306
     18 N2         -4.2476   -0.5523    0.0411 N.am      1 <0>        -0.7098
     19 C14        -3.6048    0.6323    0.0411 C.2       1 <0>         0.5835
     20 O3         -4.2406    1.6693    0.0530 O.2       1 <0>        -0.4955
     21 C15        -2.1348    0.6712    0.0268 C.2       1 <0>         0.0308
     22 C16        -1.3767    1.7988    0.0306 C.2       1 <0>        -0.1029
     23 C17        -0.0170    1.4042    0.0098 C.ar      1 <0>        -0.1082
     24 C18         1.1907    2.1145    0.0020 C.ar      1 <0>        -0.0493
     25 C19         2.3763    1.4376   -0.0129 C.ar      1 <0>        -0.0616
     26 C20         2.3973    0.0474   -0.0206 C.ar      1 <0>        -0.0830
     27 C21         1.2236   -0.6720   -0.0132 C.ar      1 <0>        -0.1150
     28 C22         0.0021   -0.0041    0.0020 C.ar      1 <0>         0.1151
     29 N3         -1.3046   -0.4328    0.0126 N.pl3     1 <0>        -0.5743
     30 H2         -1.5954   -1.3581    0.0108 H         1 <0>         0.4214
     31 Cl1         3.8710    2.3206   -0.0225 Cl        1 <0>        -0.0744
     32 H3         -4.9703    4.3389   -3.3490 H         1 <0>         0.1150
     33 H4         -3.4256    2.4432   -3.6375 H         1 <0>         0.1135
     34 H5         -4.0094    0.2300   -2.7296 H         1 <0>         0.1072
     35 H6         -7.6870    1.8061   -1.2527 H         1 <0>         0.1197
     36 H7         -7.0989    4.0215   -2.1526 H         1 <0>         0.1179
     37 H8         -5.7900   -1.2477   -1.9948 H         1 <0>         0.0800
     38 H9         -7.3230   -0.5889   -1.3748 H         1 <0>         0.0939
     39 H10        -8.6963   -0.3757    0.6412 H         1 <0>         0.0793
     40 H11        -9.1316   -1.6829   -0.5412 H         1 <0>         0.0912
     41 H12        -9.3386   -1.7699    2.5553 H         1 <0>         0.1029
     42 H13        -8.5868   -3.9869    0.5098 H         1 <0>         0.1001
     43 H14        -7.9022   -3.7325    2.1715 H         1 <0>         0.0721
     44 H15        -3.7406   -1.3792    0.0317 H         1 <0>         0.4031
     45 H16        -1.7451    2.8139    0.0410 H         1 <0>         0.1593
     46 H17         1.1838    3.1944    0.0075 H         1 <0>         0.1365
     47 H18         3.3435   -0.4731   -0.0321 H         1 <0>         0.1378
     48 H19         1.2503   -1.7516   -0.0189 H         1 <0>         0.1333
     49 O4        -11.8616   -1.9151    1.4634 O.co2     1 <0>        -0.7582
@<TRIPOS>BOND
     1    1    6 ar
     2    1    2 ar
     3    1   32 1
     4    2    3 ar
     5    2   33 1
     6    3    4 ar
     7    3   34 1
     8    4    5 ar
     9    4    7 1
    10    5    6 ar
    11    5   35 1
    12    6   36 1
    13    7    8 1
    14    7   37 1
    15    7   38 1
    16    8    9 1
    17    8   10 1
    18    8   18 1
    19   10   11 2
    20   10   12 am
    21   12   15 1
    22   12   13 1
    23   13   14 1
    24   13   39 1
    25   13   40 1
    26   14   15 1
    27   14   16 1
    28   14   41 1
    29   15   42 1
    30   15   43 1
    31   16   17 2
    32   16   49 1
    33   18   19 am
    34   18   44 1
    35   19   20 2
    36   19   21 1
    37   21   29 1
    38   21   22 2
    39   22   23 1
    40   22   45 1
    41   23   28 ar
    42   23   24 ar
    43   24   25 ar
    44   24   46 1
    45   25   26 ar
    46   25   31 1
    47   26   27 ar
    48   26   47 1
    49   27   28 ar
    50   27   48 1
    51   28   29 1
    52   29   30 1
@<TRIPOS>MOLECULE
ZINC03815614
   24    24     0     0     0
SMALL
USER_CHARGES

@<TRIPOS>ATOM
      1 C1          2.3235    1.1647    3.5879 C.3       1 <0>         0.0901
      2 C2          1.5056    1.6604    2.3936 C.3       1 <0>         0.0964
      3 H1          1.4912    2.7503    2.3902 H         1 <0>         0.0820
      4 C3          0.0732    1.1309    2.5008 C.3       1 <0>         0.0929
      5 H2          0.0897    0.0420    2.5451 H         1 <0>         0.0806
      6 C4         -0.7226    1.5812    1.2718 C.3       1 <0>         0.0872
      7 H3         -0.7814    2.6694    1.2541 H         1 <0>         0.0781
      8 C5         -0.0127    1.0858    0.0080 C.3       1 <0>         0.0672
      9 H4          0.0021   -0.0041    0.0020 H         1 <0>         0.0889
     10 C6          1.4231    1.6170   -0.0028 C.3       1 <0>         0.0993
     11 H5          1.4074    2.7063   -0.0377 H         1 <0>         0.0929
     12 O1          2.0973    1.1878    1.1818 O.3       1 <0>        -0.3478
     13 S1          2.2937    0.9776   -1.4602 S.3       1 <0>        -0.1961
     14 O2         -0.7062    1.5604   -1.1478 O.3       1 <0>        -0.5519
     15 O3         -2.0400    1.0303    1.3271 O.3       1 <0>        -0.5554
     16 O4         -0.5403    1.6490    3.6829 O.3       1 <0>        -0.5509
     17 O5          3.6260    1.7511    3.5496 O.3       1 <0>        -0.5692
     18 H6          1.8238    1.4497    4.5138 H         1 <0>         0.0780
     19 H7          2.4122    0.0793    3.5421 H         1 <0>         0.0578
     20 H8          3.5265    1.5059   -1.3605 H         1 <0>         0.1102
     21 H9         -0.3088    1.2854   -1.9854 H         1 <0>         0.3937
     22 H10        -2.5982    1.2696    0.5747 H         1 <0>         0.3956
     23 H11        -1.4516    1.3539    3.8147 H         1 <0>         0.3949
     24 H12         4.2007    1.4808    4.2788 H         1 <0>         0.3854
@<TRIPOS>BOND
     1    1    2 1
     2    1   17 1
     3    1   18 1
     4    1   19 1
     5    2    3 1
     6    2   12 1
     7    2    4 1
     8    4    5 1
     9    4    6 1
    10    4   16 1
    11    6    7 1
    12    6    8 1
    13    6   15 1
    14    8    9 1
    15    8   10 1
    16    8   14 1
    17   10   11 1
    18   10   12 1
    19   10   13 1
    20   13   20 1
    21   14   21 1
    22   15   22 1
    23   16   23 1
    24   17   24 1
@<TRIPOS>MOLECULE
ZINC03833798
   38    39     0     0     0
SMALL
USER_CHARGES

@<TRIPOS>ATOM
      1 C1          1.1556    3.1660    0.0081 C.ar      1 <0>        -0.1526
      2 C2          1.1737    1.7832    0.0004 C.ar      1 <0>        -0.0823
      3 C3         -0.0126    1.0758    0.0080 C.ar      1 <0>        -0.1863
      4 C4         -1.2232    1.7538    0.0174 C.ar      1 <0>         0.1263
      5 C5         -1.2386    3.1407    0.0304 C.ar      1 <0>        -0.1188
      6 C6         -0.0491    3.8437    0.0233 C.ar      1 <0>        -0.0639
      7 C7         -2.5516    3.8802    0.0465 C.3       1 <0>         0.1286
      8 O1         -2.3054    5.2879    0.0519 O.3       1 <0>        -0.5710
      9 O2         -2.3918    1.0600    0.0191 O.3       1 <0>        -0.3170
     10 C8         -2.2997   -0.3660    0.0108 C.3       1 <0>         0.2122
     11 H1         -1.6208   -0.6818   -0.7813 H         1 <0>         0.1184
     12 C9         -3.6865   -0.9657   -0.2360 C.3       1 <0>         0.0628
     13 H2         -3.6105   -2.0520   -0.2828 H         1 <0>         0.0964
     14 C10        -4.6185   -0.5667    0.9123 C.3       1 <0>         0.0836
     15 H3         -4.7352    0.5169    0.9274 H         1 <0>         0.0833
     16 C11        -4.0092   -1.0368    2.2367 C.3       1 <0>         0.0944
     17 H4         -3.9407   -2.1247    2.2403 H         1 <0>         0.0765
     18 C12        -2.6099   -0.4344    2.3880 C.3       1 <0>         0.1000
     19 H5         -2.6842    0.6525    2.4254 H         1 <0>         0.0862
     20 O3         -1.8037   -0.8188    1.2722 O.3       1 <0>        -0.3582
     21 C13        -1.9707   -0.9469    3.6801 C.3       1 <0>         0.0902
     22 O4         -0.7144   -0.2961    3.8808 O.3       1 <0>        -0.5638
     23 O5         -4.8342   -0.6066    3.3212 O.3       1 <0>        -0.5500
     24 O6         -5.8948   -1.1825    0.7280 O.3       1 <0>        -0.5600
     25 O7         -4.2083   -0.4699   -1.4705 O.3       1 <0>        -0.5474
     26 H6          2.0843    3.7173    0.0018 H         1 <0>         0.1251
     27 H7          2.1162    1.2560   -0.0111 H         1 <0>         0.1252
     28 H8          0.0021   -0.0041    0.0020 H         1 <0>         0.1316
     29 H9         -0.0606    4.9237    0.0292 H         1 <0>         0.1385
     30 H10        -3.1285    3.6157   -0.8397 H         1 <0>         0.0595
     31 H11        -3.1121    3.6060    0.9402 H         1 <0>         0.0571
     32 H12        -3.1078    5.8274    0.0622 H         1 <0>         0.3844
     33 H13        -2.6296   -0.7321    4.5215 H         1 <0>         0.0756
     34 H14        -1.8148   -2.0231    3.6063 H         1 <0>         0.0551
     35 H15        -0.2518   -0.5731    4.6835 H         1 <0>         0.3833
     36 H16        -5.7384   -0.9475    3.2868 H         1 <0>         0.3939
     37 H17        -6.3359   -0.9344   -0.0960 H         1 <0>         0.3941
     38 H18        -3.6646   -0.6829   -2.2412 H         1 <0>         0.3888
@<TRIPOS>BOND
     1    1    6 ar
     2    1    2 ar
     3    1   26 1
     4    2    3 ar
     5    2   27 1
     6    3    4 ar
     7    3   28 1
     8    4    5 ar
     9    4    9 1
    10    5    6 ar
    11    5    7 1
    12    6   29 1
    13    7    8 1
    14    7   30 1
    15    7   31 1
    16    8   32 1
    17    9   10 1
    18   10   11 1
    19   10   20 1
    20   10   12 1
    21   12   13 1
    22   12   14 1
    23   12   25 1
    24   14   15 1
    25   14   16 1
    26   14   24 1
    27   16   17 1
    28   16   18 1
    29   16   23 1
    30   18   19 1
    31   18   20 1
    32   18   21 1
    33   21   22 1
    34   21   33 1
    35   21   34 1
    36   22   35 1
    37   23   36 1
    38   24   37 1
    39   25   38 1
@<TRIPOS>MOLECULE
ZINC03833799
   33    33     0     0     0
SMALL
USER_CHARGES

@<TRIPOS>ATOM
      1 C1         -2.0088    5.1048    0.5021 C.3       1 <0>         0.0909
      2 C2         -1.7667    3.6090    0.2899 C.3       1 <0>         0.0978
      3 H1         -2.7063    3.0687    0.4056 H         1 <0>         0.0846
      4 C3         -0.7564    3.1037    1.3232 C.3       1 <0>         0.0909
      5 H2          0.1699    3.6715    1.2348 H         1 <0>         0.0800
      6 C4         -0.4724    1.6204    1.0670 C.3       1 <0>         0.0862
      7 H3         -1.3882    1.0456    1.2050 H         1 <0>         0.0805
      8 C5          0.0288    1.4486   -0.3702 C.3       1 <0>         0.0497
      9 H4          0.9712    1.9822   -0.4935 H         1 <0>         0.0862
     10 C6         -1.0118    2.0179   -1.3381 C.3       1 <0>         0.0446
     11 H5         -1.9414    1.4566   -1.2436 H         1 <0>         0.1019
     12 O1         -1.2506    3.3915   -1.0248 O.3       1 <0>        -0.3247
     13 C7         -0.4986    1.9061   -2.7506 C.2       1 <0>         0.5265
     14 O2         -0.1938    2.9058   -3.3659 O.2       1 <0>        -0.4890
     15 N1         -0.3783    0.6952   -3.3300 N.am      1 <0>        -0.7340
     16 C8          0.2233    0.5764   -4.6605 C.3       1 <0>         0.0759
     17 C9          0.2394   -0.8939   -5.0835 C.3       1 <0>         0.4494
     18 F1         -1.0707   -1.3834   -5.1187 F         1 <0>        -0.1756
     19 F2          0.8139   -1.0074   -6.3540 F         1 <0>        -0.1684
     20 F3          0.9897   -1.6354   -4.1644 F         1 <0>        -0.1775
     21 O3          0.2267    0.0602   -0.6442 O.3       1 <0>        -0.5533
     22 O4          0.5257    1.1589    1.9797 O.3       1 <0>        -0.5556
     23 O5         -1.2940    3.2684    2.6369 O.3       1 <0>        -0.5494
     24 O6         -3.0355    5.5518   -0.3857 O.3       1 <0>        -0.5661
     25 H6         -2.3177    5.2803    1.5325 H         1 <0>         0.0786
     26 H7         -1.0892    5.6539    0.2999 H         1 <0>         0.0579
     27 H8         -0.6901   -0.0976   -2.8662 H         1 <0>         0.4115
     28 H9         -0.3612    1.1541   -5.3765 H         1 <0>         0.1218
     29 H10         1.2441    0.9577   -4.6330 H         1 <0>         0.1207
     30 H11         0.6391   -0.1168   -1.5008 H         1 <0>         0.3828
     31 H12         0.7591    0.2270    1.8690 H         1 <0>         0.3948
     32 H13        -0.7056    2.9683    3.3432 H         1 <0>         0.3948
     33 H14        -3.2419    6.4931   -0.3061 H         1 <0>         0.3854
@<TRIPOS>BOND
     1    1    2 1
     2    1   24 1
     3    1   25 1
     4    1   26 1
     5    2    3 1
     6    2   12 1
     7    2    4 1
     8    4    5 1
     9    4    6 1
    10    4   23 1
    11    6    7 1
    12    6    8 1
    13    6   22 1
    14    8    9 1
    15    8   10 1
    16    8   21 1
    17   10   11 1
    18   10   12 1
    19   10   13 1
    20   13   14 2
    21   13   15 am
    22   15   16 1
    23   15   27 1
    24   16   17 1
    25   16   28 1
    26   16   29 1
    27   17   18 1
    28   17   19 1
    29   17   20 1
    30   21   30 1
    31   22   31 1
    32   23   32 1
    33   24   33 1
@<TRIPOS>MOLECULE
ZINC03833800
   24    24     0     0     0
SMALL
USER_CHARGES

@<TRIPOS>ATOM
      1 C1          2.3235    1.1647    3.5879 C.3       1 <0>         0.0892
      2 C2          1.5056    1.6604    2.3936 C.3       1 <0>         0.1103
      3 H1          1.4912    2.7503    2.3902 H         1 <0>         0.0823
      4 C3          0.0732    1.1309    2.5008 C.3       1 <0>         0.0901
      5 H2          0.0897    0.0420    2.5451 H         1 <0>         0.0798
      6 C4         -0.7226    1.5812    1.2718 C.3       1 <0>         0.0839
      7 H3         -0.7814    2.6694    1.2541 H         1 <0>         0.0776
      8 C5         -0.0127    1.0858    0.0080 C.3       1 <0>         0.0570
      9 H4          0.0021   -0.0041    0.0020 H         1 <0>         0.0822
     10 C6          1.4231    1.6170   -0.0028 C.3       1 <0>         0.2380
     11 H5          1.4074    2.7063   -0.0377 H         1 <0>         0.0657
     12 O1          2.0973    1.1878    1.1818 O.3       1 <0>        -0.3849
     13 O2          2.1089    1.1133   -1.1509 O.3       1 <0>        -0.5431
     14 O3         -0.7062    1.5604   -1.1478 O.3       1 <0>        -0.5569
     15 O4         -2.0400    1.0303    1.3271 O.3       1 <0>        -0.5561
     16 O5         -0.5403    1.6490    3.6829 O.3       1 <0>        -0.5504
     17 O6          3.6260    1.7511    3.5496 O.3       1 <0>        -0.5678
     18 H6          1.8238    1.4497    4.5138 H         1 <0>         0.0781
     19 H7          2.4122    0.0793    3.5421 H         1 <0>         0.0572
     20 H8          3.0265    1.4099   -1.2224 H         1 <0>         0.3968
     21 H9         -0.3088    1.2854   -1.9854 H         1 <0>         0.3953
     22 H10        -2.5982    1.2696    0.5747 H         1 <0>         0.3953
     23 H11        -1.4516    1.3539    3.8147 H         1 <0>         0.3951
     24 H12         4.2007    1.4808    4.2788 H         1 <0>         0.3853
@<TRIPOS>BOND
     1    1    2 1
     2    1   17 1
     3    1   18 1
     4    1   19 1
     5    2    3 1
     6    2   12 1
     7    2    4 1
     8    4    5 1
     9    4    6 1
    10    4   16 1
    11    6    7 1
    12    6    8 1
    13    6   15 1
    14    8    9 1
    15    8   10 1
    16    8   14 1
    17   10   11 1
    18   10   12 1
    19   10   13 1
    20   13   20 1
    21   14   21 1
    22   15   22 1
    23   16   23 1
    24   17   24 1
@<TRIPOS>MOLECULE
ZINC03833801
   38    39     0     0     0
SMALL
USER_CHARGES

@<TRIPOS>ATOM
      1 C1         -1.9860    1.1578   -3.9759 C.ar      1 <0>        -0.1265
      2 C2         -2.6627    1.4519   -5.1432 C.ar      1 <0>        -0.1255
      3 C3         -1.9557    1.7602   -6.2963 C.ar      1 <0>         0.0912
      4 C4         -0.5688    1.7793   -6.2760 C.ar      1 <0>        -0.1241
      5 C5          0.1090    1.4915   -5.1078 C.ar      1 <0>        -0.1045
      6 C6         -0.5980    1.1824   -3.9535 C.ar      1 <0>         0.1336
      7 N1          0.0891    0.8897   -2.7680 N.am      1 <0>        -0.6599
      8 C7          1.2611    1.4990   -2.5004 C.2       1 <0>         0.4880
      9 O1          1.6726    2.3717   -3.2354 O.2       1 <0>        -0.4947
     10 C8          2.0602    1.0960   -1.2879 C.3       1 <0>         0.0432
     11 H1          2.3063    0.0360   -1.3504 H         1 <0>         0.1421
     12 C9          1.2361    1.3553   -0.0241 C.3       1 <0>         0.0503
     13 H2          1.7965    1.0263    0.8511 H         1 <0>         0.0962
     14 C10         0.9458    2.8551    0.0881 C.3       1 <0>         0.0804
     15 H3          0.3421    3.1741   -0.7616 H         1 <0>         0.0737
     16 C11         2.2718    3.6219    0.0912 C.3       1 <0>         0.0931
     17 H4          2.8541    3.3389    0.9682 H         1 <0>         0.0760
     18 C12         3.0559    3.2751   -1.1771 C.3       1 <0>         0.0730
     19 H5          2.4909    3.5950   -2.0526 H         1 <0>         0.1180
     20 O2          3.2651    1.8626   -1.2350 O.3       1 <0>        -0.3228
     21 C13         4.4080    3.9908   -1.1528 C.3       1 <0>         0.0940
     22 O3          5.0907    3.7612   -2.3870 O.3       1 <0>        -0.5614
     23 O4          2.0112    5.0265    0.1239 O.3       1 <0>        -0.5481
     24 O5          0.2381    3.1156    1.3019 O.3       1 <0>        -0.5554
     25 O6          0.0044    0.6348   -0.1009 O.3       1 <0>        -0.5545
     26 O7         -2.6225    2.0442   -7.4467 O.3       1 <0>        -0.4982
     27 H6         -2.5365    0.9134   -3.0795 H         1 <0>         0.1312
     28 H7         -3.7425    1.4379   -5.1595 H         1 <0>         0.1337
     29 H8         -0.0189    2.0198   -7.1739 H         1 <0>         0.1335
     30 H9          1.1888    1.5064   -5.0921 H         1 <0>         0.1391
     31 H10        -0.2788    0.2486   -2.1399 H         1 <0>         0.4122
     32 H11         4.2502    5.0609   -1.0184 H         1 <0>         0.0747
     33 H12         5.0082    3.6056   -0.3285 H         1 <0>         0.0521
     34 H13         5.9574    4.1865   -2.4421 H         1 <0>         0.3814
     35 H14         1.5128    5.3161    0.9004 H         1 <0>         0.3924
     36 H15        -0.6099    2.6556    1.3692 H         1 <0>         0.3929
     37 H16         0.1131   -0.3233   -0.1739 H         1 <0>         0.3892
     38 H17        -2.8003    1.2709   -7.9994 H         1 <0>         0.3903
@<TRIPOS>BOND
     1    1    6 ar
     2    1    2 ar
     3    1   27 1
     4    2    3 ar
     5    2   28 1
     6    3    4 ar
     7    3   26 1
     8    4    5 ar
     9    4   29 1
    10    5    6 ar
    11    5   30 1
    12    6    7 1
    13    7    8 am
    14    7   31 1
    15    8    9 2
    16    8   10 1
    17   10   11 1
    18   10   20 1
    19   10   12 1
    20   12   13 1
    21   12   14 1
    22   12   25 1
    23   14   15 1
    24   14   16 1
    25   14   24 1
    26   16   17 1
    27   16   18 1
    28   16   23 1
    29   18   19 1
    30   18   20 1
    31   18   21 1
    32   21   22 1
    33   21   32 1
    34   21   33 1
    35   22   34 1
    36   23   35 1
    37   24   36 1
    38   25   37 1
    39   26   38 1
@<TRIPOS>MOLECULE
ZINC03833802
   37    38     0     0     0
SMALL
USER_CHARGES

@<TRIPOS>ATOM
      1 C1          6.8864   -2.0530    4.9183 C.ar      1 <0>        -0.1305
      2 C2          6.4176   -2.8012    3.8540 C.ar      1 <0>        -0.0997
      3 C3          5.6304   -2.2095    2.8856 C.ar      1 <0>        -0.1417
      4 C4          5.3098   -0.8617    2.9816 C.ar      1 <0>         0.1392
      5 C5          5.7869   -0.1117    4.0486 C.ar      1 <0>        -0.1210
      6 C6          6.5685   -0.7108    5.0169 C.ar      1 <0>        -0.0993
      7 N1          4.5125   -0.2592    2.0021 N.am      1 <0>        -0.6747
      8 C7          4.7125    1.0317    1.6707 C.2       1 <0>         0.5164
      9 O1          5.6419    1.6445    2.1521 O.2       1 <0>        -0.4796
     10 C8          3.7813    1.7139    0.7018 C.3       1 <0>         0.0439
     11 H1          3.6874    1.1084   -0.1997 H         1 <0>         0.1005
     12 C9          2.4037    1.8803    1.3488 C.3       1 <0>         0.0505
     13 H2          2.5030    2.4500    2.2728 H         1 <0>         0.0855
     14 C10         1.4815    2.6296    0.3821 C.3       1 <0>         0.0863
     15 H3          1.3410    2.0363   -0.5214 H         1 <0>         0.0802
     16 C11         2.1212    3.9731    0.0186 C.3       1 <0>         0.0911
     17 H4          2.2147    4.5864    0.9149 H         1 <0>         0.0800
     18 C12         3.5090    3.7239   -0.5778 C.3       1 <0>         0.0975
     19 H5          3.4114    3.1448   -1.4961 H         1 <0>         0.0841
     20 O2          4.3061    2.9985    0.3606 O.3       1 <0>        -0.3242
     21 C13         4.1791    5.0639   -0.8881 C.3       1 <0>         0.0910
     22 O3          5.4237    4.8319   -1.5508 O.3       1 <0>        -0.5659
     23 O4          1.3029    4.6482   -0.9388 O.3       1 <0>        -0.5494
     24 O5          0.2164    2.8560    1.0069 O.3       1 <0>        -0.5558
     25 O6          1.8506    0.5944    1.6364 O.3       1 <0>        -0.5544
     26 H6          7.5017   -2.5180    5.6743 H         1 <0>         0.1255
     27 H7          6.6676   -3.8492    3.7798 H         1 <0>         0.1285
     28 H8          5.2649   -2.7943    2.0545 H         1 <0>         0.1272
     29 H9          5.5430    0.9377    4.1236 H         1 <0>         0.1336
     30 H10         6.9359   -0.1292    5.8495 H         1 <0>         0.1277
     31 H11         3.8158   -0.7707    1.5618 H         1 <0>         0.4133
     32 H12         3.5287    5.6547   -1.5331 H         1 <0>         0.0785
     33 H13         4.3576    5.6047    0.0413 H         1 <0>         0.0578
     34 H14         5.9046    5.6394   -1.7784 H         1 <0>         0.3853
     35 H15         0.4063    4.8344   -0.6281 H         1 <0>         0.3947
     36 H16        -0.2444    2.0465    1.2666 H         1 <0>         0.3945
     37 H17         2.3299    0.1037    2.3180 H         1 <0>         0.3834
@<TRIPOS>BOND
     1    1    6 ar
     2    1    2 ar
     3    1   26 1
     4    2    3 ar
     5    2   27 1
     6    3    4 ar
     7    3   28 1
     8    4    5 ar
     9    4    7 1
    10    5    6 ar
    11    5   29 1
    12    6   30 1
    13    7    8 am
    14    7   31 1
    15    8    9 2
    16    8   10 1
    17   10   11 1
    18   10   20 1
    19   10   12 1
    20   12   13 1
    21   12   14 1
    22   12   25 1
    23   14   15 1
    24   14   16 1
    25   14   24 1
    26   16   17 1
    27   16   18 1
    28   16   23 1
    29   18   19 1
    30   18   20 1
    31   18   21 1
    32   21   22 1
    33   21   32 1
    34   21   33 1
    35   22   34 1
    36   23   35 1
    37   24   36 1
    38   25   37 1
@<TRIPOS>MOLECULE
ZINC03833803
   38    39     0     0     0
SMALL
USER_CHARGES

@<TRIPOS>ATOM
      1 C1         -2.5827    7.3955    3.9981 C.ar      1 <0>        -0.1240
      2 C2         -3.2639    7.5370    5.1909 C.ar      1 <0>        -0.1243
      3 C3         -2.9552    6.7185    6.2676 C.ar      1 <0>         0.0951
      4 C4         -1.9661    5.7536    6.1450 C.ar      1 <0>        -0.1237
      5 C5         -1.2884    5.6070    4.9509 C.ar      1 <0>        -0.1037
      6 C6         -1.5968    6.4258    3.8728 C.ar      1 <0>         0.1309
      7 N1         -0.9096    6.2775    2.6609 N.am      1 <0>        -0.6742
      8 C7         -0.4729    5.0612    2.2783 C.2       1 <0>         0.5161
      9 O1         -0.7437    4.0831    2.9424 O.2       1 <0>        -0.4773
     10 C8          0.3519    4.9165    1.0254 C.3       1 <0>         0.0430
     11 H1         -0.1688    5.3866    0.1911 H         1 <0>         0.1020
     12 C9          1.7098    5.5942    1.2270 C.3       1 <0>         0.0499
     13 H2          2.2136    5.1519    2.0864 H         1 <0>         0.0861
     14 C10         2.5644    5.3910   -0.0279 C.3       1 <0>         0.0867
     15 H3          2.0857    5.8775   -0.8778 H         1 <0>         0.0805
     16 C11         2.6989    3.8902   -0.3032 C.3       1 <0>         0.0909
     17 H4          3.2227    3.4134    0.5253 H         1 <0>         0.0803
     18 C12         1.3028    3.2783   -0.4456 C.3       1 <0>         0.0974
     19 H5          0.7946    3.7268   -1.2993 H         1 <0>         0.0844
     20 O2          0.5504    3.5298    0.7429 O.3       1 <0>        -0.3238
     21 C13         1.4269    1.7687   -0.6611 C.3       1 <0>         0.0910
     22 O3          0.1330    1.2149   -0.9086 O.3       1 <0>        -0.5659
     23 O4          3.4335    3.6904   -1.5125 O.3       1 <0>        -0.5491
     24 O5          3.8601    5.9570    0.1793 O.3       1 <0>        -0.5555
     25 O6          1.5170    6.9919    1.4537 O.3       1 <0>        -0.5550
     26 O7         -3.6228    6.8618    7.4434 O.3       1 <0>        -0.4978
     27 H6         -2.8200    8.0357    3.1613 H         1 <0>         0.1331
     28 H7         -4.0338    8.2882    5.2871 H         1 <0>         0.1356
     29 H8         -1.7262    5.1168    6.9837 H         1 <0>         0.1348
     30 H9         -0.5183    4.8558    4.8556 H         1 <0>         0.1401
     31 H10        -0.7482    7.0502    2.0972 H         1 <0>         0.4127
     32 H11         1.8547    1.3085    0.2296 H         1 <0>         0.0578
     33 H12         2.0744    1.5757   -1.5164 H         1 <0>         0.0786
     34 H13         0.1357    0.2590   -1.0546 H         1 <0>         0.3854
     35 H14         4.3294    4.0538   -1.4930 H         1 <0>         0.3948
     36 H15         3.8496    6.9057    0.3660 H         1 <0>         0.3947
     37 H16         0.9806    7.1937    2.2326 H         1 <0>         0.3809
     38 H17        -3.2119    7.4879    8.0552 H         1 <0>         0.3915
@<TRIPOS>BOND
     1    1    6 ar
     2    1    2 ar
     3    1   27 1
     4    2    3 ar
     5    2   28 1
     6    3    4 ar
     7    3   26 1
     8    4    5 ar
     9    4   29 1
    10    5    6 ar
    11    5   30 1
    12    6    7 1
    13    7    8 am
    14    7   31 1
    15    8    9 2
    16    8   10 1
    17   10   11 1
    18   10   20 1
    19   10   12 1
    20   12   13 1
    21   12   14 1
    22   12   25 1
    23   14   15 1
    24   14   16 1
    25   14   24 1
    26   16   17 1
    27   16   18 1
    28   16   23 1
    29   18   19 1
    30   18   20 1
    31   18   21 1
    32   21   22 1
    33   21   32 1
    34   21   33 1
    35   22   34 1
    36   23   35 1
    37   24   36 1
    38   25   37 1
    39   26   38 1
@<TRIPOS>MOLECULE
ZINC03833804
   38    40     0     0     0
SMALL
USER_CHARGES

@<TRIPOS>ATOM
      1 C1          1.6812    9.4808   -3.8264 C.ar      1 <0>        -0.1394
      2 C2          2.4328    9.6833   -2.6774 C.ar      1 <0>        -0.1039
      3 C3          2.8836    8.6131   -1.9345 C.ar      1 <0>        -0.1230
      4 C4          2.5838    7.3171   -2.3377 C.ar      1 <0>         0.0986
      5 C5          1.8211    7.1168   -3.5030 C.ar      1 <0>        -0.0834
      6 C6          1.3745    8.2151   -4.2409 C.ar      1 <0>        -0.0762
      7 C7          1.6855    5.6667   -3.6557 C.2       1 <0>        -0.2231
      8 C8          2.3362    5.0986   -2.6189 C.2       1 <0>         0.2739
      9 N1          2.8809    6.0711   -1.8239 N.pl3     1 <0>        -0.6097
     10 H1          3.3982    5.9087   -1.0196 H         1 <0>         0.4143
     11 O1          2.4400    3.7635   -2.4002 O.3       1 <0>        -0.2923
     12 C9          3.1772    3.3502   -1.2479 C.3       1 <0>         0.2048
     13 H2          4.1413    3.8586   -1.2316 H         1 <0>         0.1152
     14 C10         3.3991    1.8364   -1.2996 C.3       1 <0>         0.0647
     15 H3          3.9964    1.5253   -0.4425 H         1 <0>         0.0989
     16 C11         2.0417    1.1276   -1.2617 C.3       1 <0>         0.0824
     17 H4          1.4638    1.3993   -2.1451 H         1 <0>         0.0860
     18 C12         1.2864    1.5618   -0.0018 C.3       1 <0>         0.0952
     19 H5          1.8400    1.2451    0.8821 H         1 <0>         0.0769
     20 C13         1.1461    3.0862   -0.0002 C.3       1 <0>         0.0989
     21 H6          0.5572    3.3980   -0.8628 H         1 <0>         0.0900
     22 O2          2.4429    3.6827   -0.0678 O.3       1 <0>        -0.3634
     23 C14         0.4455    3.5328    1.2845 C.3       1 <0>         0.0902
     24 O3          0.2102    4.9414    1.2339 O.3       1 <0>        -0.5650
     25 O4         -0.0110    0.9628    0.0073 O.3       1 <0>        -0.5487
     26 O5          2.2398   -0.2873   -1.2366 O.3       1 <0>        -0.5584
     27 O6          4.0826    1.4949   -2.5072 O.3       1 <0>        -0.5449
     28 H7          1.3357   10.3300   -4.3972 H         1 <0>         0.1235
     29 H8          2.6669   10.6893   -2.3621 H         1 <0>         0.1257
     30 H9          3.4679    8.7811   -1.0419 H         1 <0>         0.1193
     31 H10         0.7886    8.0648   -5.1356 H         1 <0>         0.1237
     32 H11         1.1622    5.1500   -4.4467 H         1 <0>         0.1523
     33 H12        -0.5055    3.0089    1.3808 H         1 <0>         0.0779
     34 H13         1.0767    3.3005    2.1422 H         1 <0>         0.0554
     35 H14        -0.2322    5.2947    2.0178 H         1 <0>         0.3845
     36 H15         0.0021   -0.0041    0.0020 H         1 <0>         0.3950
     37 H16         2.7131   -0.6320   -2.0062 H         1 <0>         0.3952
     38 H17         4.9515    1.9094   -2.5980 H         1 <0>         0.3890
@<TRIPOS>BOND
     1    1    6 ar
     2    1    2 ar
     3    1   28 1
     4    2    3 ar
     5    2   29 1
     6    3    4 ar
     7    3   30 1
     8    4    9 1
     9    4    5 ar
    10    5    6 ar
    11    5    7 1
    12    6   31 1
    13    7    8 2
    14    7   32 1
    15    8    9 1
    16    8   11 1
    17    9   10 1
    18   11   12 1
    19   12   13 1
    20   12   22 1
    21   12   14 1
    22   14   15 1
    23   14   16 1
    24   14   27 1
    25   16   17 1
    26   16   18 1
    27   16   26 1
    28   18   19 1
    29   18   20 1
    30   18   25 1
    31   20   21 1
    32   20   22 1
    33   20   23 1
    34   23   24 1
    35   23   33 1
    36   23   34 1
    37   24   35 1
    38   25   36 1
    39   26   37 1
    40   27   38 1
@<TRIPOS>MOLECULE
ZINC03833805
   38    40     0     0     0
SMALL
USER_CHARGES

@<TRIPOS>ATOM
      1 C1          7.6298    2.7913   -2.5659 C.ar      1 <0>        -0.1393
      2 C2          7.4975    3.5649   -1.4213 C.ar      1 <0>        -0.1031
      3 C3          6.3339    3.5347   -0.6829 C.ar      1 <0>        -0.1223
      4 C4          5.2808    2.7219   -1.0860 C.ar      1 <0>         0.0985
      5 C5          5.4196    1.9390   -2.2468 C.ar      1 <0>        -0.0849
      6 C6          6.6070    1.9850   -2.9804 C.ar      1 <0>        -0.0759
      7 C7          4.1614    1.2045   -2.3946 C.2       1 <0>        -0.2216
      8 C8          3.3667    1.5734   -1.3681 C.2       1 <0>         0.2744
      9 N1          4.0222    2.4771   -0.5755 N.pl3     1 <0>        -0.6071
     10 H1          3.6568    2.8840    0.2256 H         1 <0>         0.4153
     11 O1          2.1089    1.1133   -1.1509 O.3       1 <0>        -0.2723
     12 C9          1.4231    1.6170   -0.0028 C.3       1 <0>         0.2179
     13 H2          1.4074    2.7063   -0.0377 H         1 <0>         0.0756
     14 C10        -0.0127    1.0858    0.0080 C.3       1 <0>         0.0626
     15 H3          0.0021   -0.0041    0.0020 H         1 <0>         0.0909
     16 C11        -0.7226    1.5812    1.2718 C.3       1 <0>         0.0862
     17 H4         -0.7814    2.6694    1.2541 H         1 <0>         0.0792
     18 C12         0.0732    1.1309    2.5008 C.3       1 <0>         0.0902
     19 H5          0.0897    0.0420    2.5463 H         1 <0>         0.0831
     20 C13         1.5056    1.6604    2.3936 C.3       1 <0>         0.1080
     21 H6          1.4910    2.7503    2.3901 H         1 <0>         0.0836
     22 O2          2.0973    1.1878    1.1818 O.3       1 <0>        -0.3756
     23 C14         2.3236    1.1649    3.5879 C.3       1 <0>         0.0900
     24 O3          3.6261    1.7516    3.5494 O.3       1 <0>        -0.5684
     25 O4         -0.5403    1.6490    3.6829 O.3       1 <0>        -0.5487
     26 O5         -2.0400    1.0303    1.3271 O.3       1 <0>        -0.5521
     27 O6         -0.7062    1.5604   -1.1478 O.3       1 <0>        -0.5524
     28 H7          8.5478    2.8269   -3.1336 H         1 <0>         0.1240
     29 H8          8.3144    4.1972   -1.1061 H         1 <0>         0.1263
     30 H9          6.2408    4.1405    0.2064 H         1 <0>         0.1202
     31 H10         6.7169    1.3853   -3.8719 H         1 <0>         0.1242
     32 H11         3.9153    0.5025   -3.1776 H         1 <0>         0.1541
     33 H12         1.8240    1.4499    4.5138 H         1 <0>         0.0810
     34 H13         2.4125    0.0795    3.5422 H         1 <0>         0.0591
     35 H14         4.2008    1.4814    4.2786 H         1 <0>         0.3876
     36 H15        -1.4516    1.3539    3.8147 H         1 <0>         0.3969
     37 H16        -2.5982    1.2696    0.5747 H         1 <0>         0.3971
     38 H17        -0.3088    1.2854   -1.9854 H         1 <0>         0.3976
@<TRIPOS>BOND
     1    1    6 ar
     2    1    2 ar
     3    1   28 1
     4    2    3 ar
     5    2   29 1
     6    3    4 ar
     7    3   30 1
     8    4    9 1
     9    4    5 ar
    10    5    6 ar
    11    5    7 1
    12    6   31 1
    13    7    8 2
    14    7   32 1
    15    8    9 1
    16    8   11 1
    17    9   10 1
    18   11   12 1
    19   12   13 1
    20   12   22 1
    21   12   14 1
    22   14   15 1
    23   14   16 1
    24   14   27 1
    25   16   17 1
    26   16   18 1
    27   16   26 1
    28   18   19 1
    29   18   20 1
    30   18   25 1
    31   20   21 1
    32   20   22 1
    33   20   23 1
    34   23   24 1
    35   23   33 1
    36   23   34 1
    37   24   35 1
    38   25   36 1
    39   26   37 1
    40   27   38 1
@<TRIPOS>MOLECULE
ZINC03833806
   36    37     0     0     0
SMALL
USER_CHARGES

@<TRIPOS>ATOM
      1 C1         -0.8440   -2.0713   -5.5176 C.3       1 <0>        -0.1579
      2 C2         -0.9499   -1.3686   -4.1887 C.2       1 <0>         0.5159
      3 O1         -1.5844   -0.3392   -4.0960 O.2       1 <0>        -0.5086
      4 N1         -0.3395   -1.8841   -3.1033 N.am      1 <0>        -0.5067
      5 N2         -0.4380   -1.2307   -1.8678 N.am      1 <0>        -0.3708
      6 C3          0.5587   -0.5150   -1.3070 C.2       1 <0>         0.5260
      7 O2          1.6672   -0.3219   -1.7583 O.2       1 <0>        -0.4396
      8 C4          0.0021   -0.0041    0.0020 C.3       1 <0>         0.3178
      9 C5         -0.0186    1.5215    0.0104 C.3       1 <0>         0.0980
     10 H1         -0.5277    1.8737    0.9076 H         1 <0>         0.1009
     11 C6          1.4212    2.0465   -0.0005 C.3       1 <0>         0.0762
     12 H2          1.9109    1.7493   -0.9279 H         1 <0>         0.0931
     13 C7          2.1771    1.4520    1.1919 C.3       1 <0>         0.0523
     14 H3          1.7111    1.7828    2.1200 H         1 <0>         0.0849
     15 C8          2.1255   -0.0758    1.1099 C.3       1 <0>         0.0479
     16 H4          2.6200   -0.4079    0.1970 H         1 <0>         0.1032
     17 O3          0.7615   -0.5047    1.0965 O.3       1 <0>        -0.3325
     18 C9          2.8374   -0.6764    2.3238 C.3       1 <0>         0.0843
     19 O4          2.8896   -2.0982    2.1901 O.3       1 <0>        -0.5609
     20 O5          3.5382    1.8861    1.1587 O.3       1 <0>        -0.5487
     21 O6          1.4114    3.4718    0.1019 O.3       1 <0>        -0.5532
     22 O7         -0.7083    1.9958   -1.1478 O.3       1 <0>        -0.5393
     23 N3         -1.3670   -0.5347    0.0382 N.am      1 <0>        -0.6866
     24 C10        -1.5328   -1.2389   -1.0976 C.2       1 <0>         0.7229
     25 O8         -2.5609   -1.8173   -1.3903 O.2       1 <0>        -0.5093
     26 H5         -1.6643   -2.7818   -5.6193 H         1 <0>         0.1063
     27 H6         -0.8970   -1.3375   -6.3219 H         1 <0>         0.1065
     28 H7          0.1060   -2.6029   -5.5728 H         1 <0>         0.0890
     29 H8          0.1680   -2.7074   -3.1774 H         1 <0>         0.4284
     30 H9          3.8509   -0.2796    2.3837 H         1 <0>         0.0716
     31 H10         2.2913   -0.4165    3.2306 H         1 <0>         0.0642
     32 H11         3.3285   -2.5465    2.9260 H         1 <0>         0.3879
     33 H12         4.0781    1.5434    1.8841 H         1 <0>         0.3869
     34 H13         2.2916    3.8723    0.1009 H         1 <0>         0.3976
     35 H14        -0.7597    2.9596   -1.2078 H         1 <0>         0.4022
     36 H15        -2.0222   -0.4037    0.7414 H         1 <0>         0.4501
@<TRIPOS>BOND
     1    1    2 1
     2    1   26 1
     3    1   27 1
     4    1   28 1
     5    2    3 2
     6    2    4 am
     7    4    5 1
     8    4   29 1
     9    5   24 am
    10    5    6 am
    11    6    7 2
    12    6    8 1
    13    8   17 1
    14    8    9 1
    15    8   23 1
    16    9   10 1
    17    9   11 1
    18    9   22 1
    19   11   12 1
    20   11   13 1
    21   11   21 1
    22   13   14 1
    23   13   15 1
    24   13   20 1
    25   15   16 1
    26   15   17 1
    27   15   18 1
    28   18   19 1
    29   18   30 1
    30   18   31 1
    31   19   32 1
    32   20   33 1
    33   21   34 1
    34   22   35 1
    35   23   24 am
    36   23   36 1
    37   24   25 2
@<TRIPOS>MOLECULE
ZINC03833807
   27    27     0     0     0
SMALL
USER_CHARGES

@<TRIPOS>ATOM
      1 C1          4.7077    3.6785   -1.4086 C.3       1 <0>         0.0908
      2 C2          3.2910    3.1019   -1.3705 C.3       1 <0>         0.0971
      3 H1          2.7749    3.3441   -2.2995 H         1 <0>         0.0834
      4 C3          2.5260    3.7047   -0.1894 C.3       1 <0>         0.0909
      5 H2          3.0631    3.4977    0.7363 H         1 <0>         0.0798
      6 C4          1.1298    3.0782   -0.1221 C.3       1 <0>         0.0855
      7 H3          0.5747    3.3269   -1.0266 H         1 <0>         0.0796
      8 C5          1.2697    1.5571   -0.0086 C.3       1 <0>         0.0511
      9 H4          1.7805    1.3066    0.9212 H         1 <0>         0.0847
     10 C6          2.0832    1.0372   -1.1968 C.3       1 <0>         0.0396
     11 H5          1.5512    1.2522   -2.1235 H         1 <0>         0.0984
     12 O1          3.3580    1.6826   -1.2184 O.3       1 <0>        -0.3254
     13 C7          2.2757   -0.4513   -1.0612 C.2       1 <0>         0.5212
     14 O2          3.3767   -0.9013   -0.8243 O.2       1 <0>        -0.5041
     15 N1          1.2243   -1.2824   -1.2033 N.am      1 <0>        -0.8539
     16 O3         -0.0268    0.9563   -0.0181 O.3       1 <0>        -0.5556
     17 O4          0.4330    3.5807    1.0198 O.3       1 <0>        -0.5565
     18 O5          2.4074    5.1175   -0.3683 O.3       1 <0>        -0.5498
     19 O6          5.3831    3.2059   -2.5759 O.3       1 <0>        -0.5660
     20 H6          4.6564    4.7669   -1.4342 H         1 <0>         0.0780
     21 H7          5.2531    3.3612   -0.5198 H         1 <0>         0.0577
     22 H8          0.3594   -0.9300   -1.4653 H         1 <0>         0.4049
     23 H9          1.3324   -2.2331   -1.0435 H         1 <0>         0.4111
     24 H10        -0.0207    0.0050    0.1554 H         1 <0>         0.3839
     25 H11        -0.4578    3.2201    1.1271 H         1 <0>         0.3942
     26 H12         1.9282    5.5651    0.3424 H         1 <0>         0.3943
     27 H13         6.2889    3.5322   -2.6654 H         1 <0>         0.3850
@<TRIPOS>BOND
     1    1    2 1
     2    1   19 1
     3    1   20 1
     4    1   21 1
     5    2    3 1
     6    2   12 1
     7    2    4 1
     8    4    5 1
     9    4    6 1
    10    4   18 1
    11    6    7 1
    12    6    8 1
    13    6   17 1
    14    8    9 1
    15    8   10 1
    16    8   16 1
    17   10   11 1
    18   10   12 1
    19   10   13 1
    20   13   14 2
    21   13   15 am
    22   15   22 1
    23   15   23 1
    24   16   24 1
    25   17   25 1
    26   18   26 1
    27   19   27 1
@<TRIPOS>MOLECULE
ZINC03833808
   29    29     0     0     0
SMALL
USER_CHARGES

@<TRIPOS>ATOM
      1 C1          4.7115    3.6709   -1.4140 C.3       1 <0>         0.0907
      2 C2          3.2946    3.0947   -1.3761 C.3       1 <0>         0.0978
      3 H1          2.7807    3.3314   -2.3078 H         1 <0>         0.0835
      4 C3          2.5268    3.7044   -0.2004 C.3       1 <0>         0.0905
      5 H2          3.0621    3.5037    0.7276 H         1 <0>         0.0805
      6 C4          1.1304    3.0785   -0.1330 C.3       1 <0>         0.0862
      7 H3          0.5775    3.3220   -1.0403 H         1 <0>         0.0794
      8 C5          1.2698    1.5580   -0.0104 C.3       1 <0>         0.0517
      9 H4          1.7786    1.3119    0.9216 H         1 <0>         0.0866
     10 C6          2.0862    1.0312   -1.1935 C.3       1 <0>         0.0490
     11 H5          1.5565    1.2409   -2.1228 H         1 <0>         0.0970
     12 O1          3.3612    1.6763   -1.2157 O.3       1 <0>        -0.3243
     13 C7          2.2780   -0.4566   -1.0490 C.2       1 <0>         0.5180
     14 O2          3.3782   -0.9055   -0.8064 O.2       1 <0>        -0.4905
     15 N1          1.2268   -1.2883   -1.1895 N.am      1 <0>        -0.5802
     16 N2          1.3784   -2.6259   -0.9576 N.3       1 <0>        -0.5995
     17 O3         -0.0267    0.9573   -0.0197 O.3       1 <0>        -0.5567
     18 O4          0.4326    3.5879    1.0053 O.3       1 <0>        -0.5560
     19 O5          2.4088    5.1162   -0.3878 O.3       1 <0>        -0.5500
     20 O6          5.3902    3.1905   -2.5762 O.3       1 <0>        -0.5663
     21 H6          4.6604    4.7592   -1.4470 H         1 <0>         0.0783
     22 H7          5.2543    3.3596   -0.5216 H         1 <0>         0.0582
     23 H8          0.3625   -0.9370   -1.4553 H         1 <0>         0.4031
     24 H9          0.5098   -3.1186   -1.1019 H         1 <0>         0.3620
     25 H10         2.1127   -3.0115   -1.5321 H         1 <0>         0.3517
     26 H11        -0.0208    0.0061    0.1547 H         1 <0>         0.3852
     27 H12        -0.4584    3.2281    1.1138 H         1 <0>         0.3943
     28 H13         1.9320    5.5686    0.3216 H         1 <0>         0.3945
     29 H14         6.2963    3.5162   -2.6653 H         1 <0>         0.3851
@<TRIPOS>BOND
     1    1    2 1
     2    1   20 1
     3    1   21 1
     4    1   22 1
     5    2    3 1
     6    2   12 1
     7    2    4 1
     8    4    5 1
     9    4    6 1
    10    4   19 1
    11    6    7 1
    12    6    8 1
    13    6   18 1
    14    8    9 1
    15    8   10 1
    16    8   17 1
    17   10   11 1
    18   10   12 1
    19   10   13 1
    20   13   14 2
    21   13   15 am
    22   15   16 1
    23   15   23 1
    24   16   24 1
    25   16   25 1
    26   17   26 1
    27   18   27 1
    28   19   28 1
    29   20   29 1
@<TRIPOS>MOLECULE
ZINC03833809
   33    33     0     0     0
SMALL
USER_CHARGES

@<TRIPOS>ATOM
      1 C1         -0.7344    2.0203    1.2694 C.3       1 <0>         0.0890
      2 C2         -0.0187    1.5267    0.0104 C.3       1 <0>         0.1110
      3 H1         -0.5456    1.8879   -0.8727 H         1 <0>         0.0866
      4 C3          0.0021   -0.0041    0.0020 C.3       1 <0>         0.0898
      5 H2          0.4922   -0.3667    0.9055 H         1 <0>         0.0810
      6 C4          0.7722   -0.4897   -1.2298 C.3       1 <0>         0.0846
      7 H3          0.2540   -0.1692   -2.1336 H         1 <0>         0.0809
      8 C5          2.1813    0.1106   -1.2068 C.3       1 <0>         0.0403
      9 H4          2.7164   -0.2496   -0.3283 H         1 <0>         0.0860
     10 C6          2.0763    1.6370   -1.1517 C.3       1 <0>         0.2791
     11 H5          1.5770    1.9997   -2.0502 H         1 <0>         0.1075
     12 O1          1.3225    2.0200    0.0003 O.3       1 <0>        -0.3703
     13 N1          3.4195    2.2164   -1.0715 N.am      1 <0>        -0.6959
     14 C7          3.6863    3.3864   -1.6850 C.2       1 <0>         0.5057
     15 O2          2.8146    3.9596   -2.3034 O.2       1 <0>        -0.5112
     16 C8          5.0680    3.9825   -1.6024 C.3       1 <0>        -0.0207
     17 O3          2.8854   -0.2785   -2.3878 O.3       1 <0>        -0.5454
     18 O4          0.8580   -1.9160   -1.2083 O.3       1 <0>        -0.5516
     19 O5         -1.3374   -0.4996   -0.0463 O.3       1 <0>        -0.5469
     20 O6         -0.8567    3.4433    1.2208 O.3       1 <0>        -0.5698
     21 H6         -1.7265    1.5720    1.3227 H         1 <0>         0.0832
     22 H7         -0.1589    1.7350    2.1500 H         1 <0>         0.0579
     23 H8          4.1167    1.7581   -0.5769 H         1 <0>         0.4148
     24 H9          5.3217    4.1685   -0.5588 H         1 <0>         0.1692
     25 H10         5.7895    3.2885   -2.0336 H         1 <0>         0.1660
     26 H11         4.3957    5.8856   -2.0082 H         1 <0>         0.4467
     27 H12         6.0172    5.6680   -2.3071 H         1 <0>         0.4492
     28 H13         3.7871    0.0671   -2.4400 H         1 <0>         0.3814
     29 H14         1.3341   -2.2928   -1.9609 H         1 <0>         0.3969
     30 H15        -1.3998   -1.4645   -0.0541 H         1 <0>         0.3993
     31 H16        -1.3019    3.8262    1.9890 H         1 <0>         0.3887
     32 N2          5.0951    5.2397   -2.3706 N.4       1 <0>        -0.6309
     33 H17         4.8865    5.0380   -3.3555 H         1 <0>         0.4474
@<TRIPOS>BOND
     1    1    2 1
     2    1   20 1
     3    1   21 1
     4    1   22 1
     5    2    3 1
     6    2   12 1
     7    2    4 1
     8    4    5 1
     9    4    6 1
    10    4   19 1
    11    6    7 1
    12    6    8 1
    13    6   18 1
    14    8    9 1
    15    8   10 1
    16    8   17 1
    17   10   11 1
    18   10   12 1
    19   10   13 1
    20   13   14 am
    21   13   23 1
    22   14   15 2
    23   14   16 1
    24   16   24 1
    25   16   25 1
    26   16   32 1
    27   17   28 1
    28   18   29 1
    29   19   30 1
    30   20   31 1
    31   26   32 1
    32   27   32 1
    33   32   33 1
@<TRIPOS>MOLECULE
ZINC03833810
   41    42     0     0     0
SMALL
USER_CHARGES

@<TRIPOS>ATOM
      1 C1         -9.1504    0.0603   -2.1545 C.ar      1 <0>        -0.1060
      2 C2         -8.7461    0.8354   -1.0837 C.ar      1 <0>        -0.1236
      3 C3         -7.5376    1.5048   -1.1323 C.ar      1 <0>        -0.0928
      4 C4         -6.7332    1.3987   -2.2515 C.ar      1 <0>        -0.1032
      5 C5         -7.1400    0.6278   -3.3244 C.ar      1 <0>        -0.0923
      6 C6         -8.3464   -0.0450   -3.2741 C.ar      1 <0>        -0.1231
      7 C7         -5.4158    2.1284   -2.3044 C.3       1 <0>         0.1299
      8 O1         -4.3687    1.2762   -1.7700 O.3       1 <0>        -0.3608
      9 C8         -3.1213    1.7825   -1.7458 C.2       1 <0>         0.6575
     10 O2         -2.9135    2.9058   -2.1599 O.2       1 <0>        -0.5557
     11 N1         -2.1033    1.0434   -1.2622 N.am      1 <0>        -0.6952
     12 C9         -0.7461    1.5944   -1.2359 C.3       1 <0>         0.2983
     13 H1         -0.7959    2.6829   -1.2088 H         1 <0>         0.1059
     14 C10        -0.0127    1.0858    0.0080 C.3       1 <0>         0.0430
     15 H2          0.0021   -0.0041    0.0020 H         1 <0>         0.0836
     16 C11         1.4239    1.6173   -0.0029 C.3       1 <0>         0.0859
     17 H3          1.4104    2.7058    0.0532 H         1 <0>         0.0808
     18 C12         2.1088    1.1795   -1.3011 C.3       1 <0>         0.0910
     19 H4          2.1664    0.0915   -1.3336 H         1 <0>         0.0797
     20 C13         1.2934    1.6844   -2.4945 C.3       1 <0>         0.1086
     21 H5          1.2703    2.7741   -2.4839 H         1 <0>         0.0847
     22 O3         -0.0402    1.1785   -2.4067 O.3       1 <0>        -0.3713
     23 C14         1.9383    1.2001   -3.7946 C.3       1 <0>         0.0907
     24 O4          1.2464    1.7664   -4.9093 O.3       1 <0>        -0.5649
     25 O5          3.4261    1.7305   -1.3554 O.3       1 <0>        -0.5489
     26 O6          2.1378    1.0881    1.1162 O.3       1 <0>        -0.5556
     27 O7         -0.6839    1.5478    1.1819 O.3       1 <0>        -0.5505
     28 H6        -10.0943   -0.4633   -2.1163 H         1 <0>         0.1258
     29 H7         -9.3742    0.9177   -0.2090 H         1 <0>         0.1268
     30 H8         -7.2218    2.1103   -0.2957 H         1 <0>         0.1253
     31 H9         -6.5135    0.5485   -4.2006 H         1 <0>         0.1256
     32 H10        -8.6622   -0.6509   -4.1106 H         1 <0>         0.1269
     33 H11        -5.4811    3.0399   -1.7101 H         1 <0>         0.0833
     34 H12        -5.1835    2.3846   -3.3381 H         1 <0>         0.0835
     35 H13        -2.2693    0.1468   -0.9316 H         1 <0>         0.4110
     36 H14         2.9830    1.5103   -3.8196 H         1 <0>         0.0781
     37 H15         1.8809    0.1128   -3.8456 H         1 <0>         0.0559
     38 H16         1.6022    1.5019   -5.7687 H         1 <0>         0.3841
     39 H17         3.9977    1.4561   -0.6253 H         1 <0>         0.3948
     40 H18         1.7546    1.3209    1.9730 H         1 <0>         0.3952
     41 H19        -1.6012    1.2501    1.2534 H         1 <0>         0.3884
@<TRIPOS>BOND
     1    1    6 ar
     2    1    2 ar
     3    1   28 1
     4    2    3 ar
     5    2   29 1
     6    3    4 ar
     7    3   30 1
     8    4    5 ar
     9    4    7 1
    10    5    6 ar
    11    5   31 1
    12    6   32 1
    13    7    8 1
    14    7   33 1
    15    7   34 1
    16    8    9 1
    17    9   10 2
    18    9   11 am
    19   11   12 1
    20   11   35 1
    21   12   13 1
    22   12   22 1
    23   12   14 1
    24   14   15 1
    25   14   16 1
    26   14   27 1
    27   16   17 1
    28   16   18 1
    29   16   26 1
    30   18   19 1
    31   18   20 1
    32   18   25 1
    33   20   21 1
    34   20   22 1
    35   20   23 1
    36   23   24 1
    37   23   36 1
    38   23   37 1
    39   24   38 1
    40   25   39 1
    41   26   40 1
    42   27   41 1
@<TRIPOS>MOLECULE
ZINC03833811
   29    29     0     0     0
SMALL
USER_CHARGES

@<TRIPOS>ATOM
      1 C1          0.2654   -2.3095    2.9217 C.3       1 <0>         0.0909
      2 C2          0.1433   -1.9110    1.4496 C.3       1 <0>         0.1084
      3 H1         -0.7850   -2.3099    1.0408 H         1 <0>         0.0836
      4 C3          1.3310   -2.4776    0.6671 C.3       1 <0>         0.0916
      5 H2          2.2613   -2.1110    1.1010 H         1 <0>         0.0784
      6 C4          1.2335   -2.0243   -0.7928 C.3       1 <0>         0.0849
      7 H3          0.3277   -2.4320   -1.2415 H         1 <0>         0.0800
      8 C5          1.1840   -0.4940   -0.8386 C.3       1 <0>         0.0429
      9 H4          2.1114   -0.0873   -0.4351 H         1 <0>         0.0802
     10 C6          0.0021   -0.0041    0.0020 C.3       1 <0>         0.2972
     11 H5         -0.9282   -0.3779   -0.4258 H         1 <0>         0.1032
     12 O1          0.1388   -0.4862    1.3403 O.3       1 <0>        -0.3722
     13 N1         -0.0178    1.4608    0.0101 N.am      1 <0>        -0.7285
     14 C7         -1.1940    2.1187    0.0192 C.2       1 <0>         0.7124
     15 O2         -2.2386    1.4965    0.0208 O.2       1 <0>        -0.5788
     16 N2         -1.2123    3.4663    0.0266 N.am      1 <0>        -0.8615
     17 O3          1.0201   -0.0618   -2.1907 O.3       1 <0>        -0.5508
     18 O4          2.3757   -2.4892   -1.5150 O.3       1 <0>        -0.5568
     19 O5          1.3048   -3.9051    0.7267 O.3       1 <0>        -0.5494
     20 O6         -0.8992   -1.8799    3.6296 O.3       1 <0>        -0.5645
     21 H6          0.3583   -3.3928    2.9984 H         1 <0>         0.0771
     22 H7          1.1479   -1.8377    3.3538 H         1 <0>         0.0549
     23 H8          0.8156    1.9572    0.0048 H         1 <0>         0.4002
     24 H9         -0.3789    3.9627    0.0254 H         1 <0>         0.3986
     25 H10        -2.0588    3.9399    0.0332 H         1 <0>         0.4194
     26 H11         0.9758    0.8987   -2.2940 H         1 <0>         0.3864
     27 H12         2.3797   -2.2377   -2.4487 H         1 <0>         0.3945
     28 H13         2.0305   -4.3320    0.2510 H         1 <0>         0.3941
     29 H14        -0.8904   -2.0996    4.5713 H         1 <0>         0.3835
@<TRIPOS>BOND
     1    1    2 1
     2    1   20 1
     3    1   21 1
     4    1   22 1
     5    2    3 1
     6    2   12 1
     7    2    4 1
     8    4    5 1
     9    4    6 1
    10    4   19 1
    11    6    7 1
    12    6    8 1
    13    6   18 1
    14    8    9 1
    15    8   10 1
    16    8   17 1
    17   10   11 1
    18   10   12 1
    19   10   13 1
    20   13   14 am
    21   13   23 1
    22   14   15 2
    23   14   16 am
    24   16   24 1
    25   16   25 1
    26   17   26 1
    27   18   27 1
    28   19   28 1
    29   20   29 1
@<TRIPOS>MOLECULE
ZINC03833812
   37    38     0     0     0
SMALL
USER_CHARGES

@<TRIPOS>ATOM
      1 C1         -3.4978    6.2435    6.4016 C.ar      1 <0>        -0.0895
      2 C2         -4.2706    6.0835    5.2652 C.ar      1 <0>        -0.1257
      3 C3         -3.6729    5.7926    4.0563 C.ar      1 <0>        -0.0563
      4 C4         -2.2855    5.6601    3.9812 C.ar      1 <0>        -0.1388
      5 C5         -1.5122    5.8180    5.1324 C.ar      1 <0>        -0.0859
      6 C6         -2.1220    6.1136    6.3341 C.ar      1 <0>        -0.1267
      7 C7         -1.6383    5.3479    2.6891 C.2       1 <0>         0.5696
      8 O1         -2.3147    5.2060    1.6892 O.2       1 <0>        -0.5172
      9 N1         -0.2984    5.2207    2.6199 N.am      1 <0>        -0.7145
     10 C8          0.3429    4.9113    1.3396 C.3       1 <0>         0.2810
     11 H1         -0.2957    5.2473    0.5226 H         1 <0>         0.1025
     12 C9          1.6940    5.6267    1.2590 C.3       1 <0>         0.0423
     13 H2          2.3184    5.3216    2.0987 H         1 <0>         0.0807
     14 C10         2.3845    5.2506   -0.0556 C.3       1 <0>         0.0853
     15 H3          1.7848    5.6011   -0.8957 H         1 <0>         0.0798
     16 C11         2.5282    3.7272   -0.1264 C.3       1 <0>         0.0918
     17 H4          3.1694    3.3837    0.6853 H         1 <0>         0.0787
     18 C12         1.1449    3.0852    0.0077 C.3       1 <0>         0.1080
     19 H5          0.5167    3.3971   -0.8267 H         1 <0>         0.0835
     20 O2          0.5456    3.5005    1.2367 O.3       1 <0>        -0.3699
     21 C13         1.2864    1.5618   -0.0018 C.3       1 <0>         0.0909
     22 O3         -0.0110    0.9628    0.0073 O.3       1 <0>        -0.5647
     23 O4          3.1056    3.3599   -1.3809 O.3       1 <0>        -0.5492
     24 O5          3.6780    5.8557   -0.1063 O.3       1 <0>        -0.5566
     25 O6          1.4893    7.0402    1.3049 O.3       1 <0>        -0.5508
     26 H6         -3.9706    6.4713    7.3456 H         1 <0>         0.1299
     27 H7         -5.3440    6.1862    5.3247 H         1 <0>         0.1329
     28 H8         -4.2773    5.6679    3.1699 H         1 <0>         0.1378
     29 H9         -0.4386    5.7124    5.0818 H         1 <0>         0.1245
     30 H10        -1.5245    6.2397    7.2248 H         1 <0>         0.1311
     31 H11         0.2414    5.3339    3.4179 H         1 <0>         0.4033
     32 H12         1.8401    1.2428    0.8812 H         1 <0>         0.0552
     33 H13         1.8231    1.2523   -0.8987 H         1 <0>         0.0774
     34 H14         0.0021   -0.0041    0.0020 H         1 <0>         0.3837
     35 H15         3.9848    3.7324   -1.5333 H         1 <0>         0.3943
     36 H16         3.6627    6.8214   -0.0589 H         1 <0>         0.3947
     37 H17         1.0515    7.3483    2.1102 H         1 <0>         0.3869
@<TRIPOS>BOND
     1    1    6 ar
     2    1    2 ar
     3    1   26 1
     4    2    3 ar
     5    2   27 1
     6    3    4 ar
     7    3   28 1
     8    4    5 ar
     9    4    7 1
    10    5    6 ar
    11    5   29 1
    12    6   30 1
    13    7    8 2
    14    7    9 am
    15    9   10 1
    16    9   31 1
    17   10   11 1
    18   10   20 1
    19   10   12 1
    20   12   13 1
    21   12   14 1
    22   12   25 1
    23   14   15 1
    24   14   16 1
    25   14   24 1
    26   16   17 1
    27   16   18 1
    28   16   23 1
    29   18   19 1
    30   18   20 1
    31   18   21 1
    32   21   22 1
    33   21   32 1
    34   21   33 1
    35   22   34 1
    36   23   35 1
    37   24   36 1
    38   25   37 1
@<TRIPOS>MOLECULE
ZINC03833813
   32    33     0     0     0
SMALL
USER_CHARGES

@<TRIPOS>ATOM
      1 C1         -0.0183    1.4949    0.0103 C.3       1 <0>         0.0947
      2 C2          0.0021   -0.0041    0.0020 C.2       1 <0>         0.5313
      3 O1         -0.9950   -0.5967   -0.3523 O.2       1 <0>        -0.5193
      4 N1          1.0721   -0.7143    0.3690 N.am      1 <0>        -0.6936
      5 C3          2.3174   -0.0998    0.8171 C.3       1 <0>         0.3452
      6 C4          2.3825   -0.1486    2.3486 C.3       1 <0>         0.0920
      7 H1          2.2999   -1.1824    2.6840 H         1 <0>         0.0932
      8 C5          3.7198    0.4350    2.8132 C.3       1 <0>         0.0793
      9 H2          3.7847    1.4819    2.5168 H         1 <0>         0.0899
     10 C6          4.8621   -0.3528    2.1645 C.3       1 <0>         0.0553
     11 H3          4.8299   -1.3886    2.5026 H         1 <0>         0.0759
     12 C7          4.7020   -0.3061    0.6427 C.3       1 <0>         0.0263
     13 H4          4.7781    0.7261    0.3007 H         1 <0>         0.1454
     14 O2          3.4245   -0.8343    0.2826 O.3       1 <0>        -0.3412
     15 C8          5.8030   -1.1428   -0.0121 C.3       1 <0>         0.0842
     16 O3          5.7241   -1.0061   -1.4324 O.3       1 <0>        -0.5595
     17 O4          6.1137    0.2309    2.5314 O.3       1 <0>        -0.5508
     18 O5          3.8170    0.3341    4.2353 O.3       1 <0>        -0.5582
     19 O6          1.3097    0.6199    2.8969 O.3       1 <0>        -0.5482
     20 C9          2.4041    1.3284    0.3625 C.2       1 <0>         0.5110
     21 O7          3.4938    1.8594    0.3219 O.2       1 <0>        -0.5168
     22 N2          1.3329    2.0393    0.0003 N.am      1 <0>        -0.6991
     23 H5         -0.5531    1.8499   -0.8706 H         1 <0>         0.1252
     24 H6         -0.5362    1.8404    0.9050 H         1 <0>         0.1174
     25 H7          1.0190   -1.6823    0.3357 H         1 <0>         0.4147
     26 H8          6.7769   -0.7956    0.3328 H         1 <0>         0.0674
     27 H9          5.6735   -2.1904    0.2598 H         1 <0>         0.0564
     28 H10         6.3939   -1.5108   -1.9139 H         1 <0>         0.3844
     29 H11         6.8825   -0.2152    2.1504 H         1 <0>         0.3855
     30 H12         4.6437    0.6800    4.5986 H         1 <0>         0.3963
     31 H13         1.2893    0.6331    3.8636 H         1 <0>         0.4000
     32 H14         1.4602    2.9586   -0.2818 H         1 <0>         0.4158
@<TRIPOS>BOND
     1    1   22 1
     2    1    2 1
     3    1   23 1
     4    1   24 1
     5    2    3 2
     6    2    4 am
     7    4    5 1
     8    4   25 1
     9    5   14 1
    10    5    6 1
    11    5   20 1
    12    6    7 1
    13    6    8 1
    14    6   19 1
    15    8    9 1
    16    8   10 1
    17    8   18 1
    18   10   11 1
    19   10   12 1
    20   10   17 1
    21   12   13 1
    22   12   14 1
    23   12   15 1
    24   15   16 1
    25   15   26 1
    26   15   27 1
    27   16   28 1
    28   17   29 1
    29   18   30 1
    30   19   31 1
    31   20   21 2
    32   20   22 am
    33   22   32 1
@<TRIPOS>MOLECULE
ZINC03833814
   30    30     0     0     0
SMALL
USER_CHARGES

@<TRIPOS>ATOM
      1 C1          2.4060    5.2415    0.1478 C.3       1 <0>         0.0908
      2 C2          2.5394    3.7189    0.0773 C.3       1 <0>         0.1084
      3 H1          3.1078    3.4445   -0.8113 H         1 <0>         0.0838
      4 C3          1.1466    3.0871    0.0077 C.3       1 <0>         0.0917
      5 H2          0.5626    3.3940    0.8754 H         1 <0>         0.0788
      6 C4          1.2864    1.5618   -0.0018 C.3       1 <0>         0.0847
      7 H3          1.8253    1.2506   -0.8967 H         1 <0>         0.0798
      8 C5          2.0620    1.1233    1.2442 C.3       1 <0>         0.0428
      9 H4          1.4974    1.3906    2.1374 H         1 <0>         0.0817
     10 C6          3.4194    1.8309    1.2660 C.3       1 <0>         0.2813
     11 H5          3.9994    1.5317    0.3930 H         1 <0>         0.1027
     12 O1          3.2180    3.2455    1.2424 O.3       1 <0>        -0.3703
     13 N1          4.1437    1.4608    2.4845 N.am      1 <0>        -0.7158
     14 C7          5.4845    1.3273    2.4570 C.2       1 <0>         0.5116
     15 O2          6.0915    1.5135    1.4237 O.2       1 <0>        -0.4953
     16 C8          6.2297    0.9466    3.7104 C.3       1 <0>        -0.0668
     17 Cl1         7.9943    0.8482    3.3540 Cl        1 <0>        -0.1217
     18 O3          2.2614   -0.2913    1.2093 O.3       1 <0>        -0.5503
     19 O4         -0.0110    0.9628    0.0073 O.3       1 <0>        -0.5564
     20 O5          0.4879    3.5138   -1.1865 O.3       1 <0>        -0.5492
     21 O6          3.7043    5.8362    0.0954 O.3       1 <0>        -0.5648
     22 H6          1.8108    5.5934   -0.6948 H         1 <0>         0.0777
     23 H7          1.9160    5.5205    1.0806 H         1 <0>         0.0554
     24 H8          3.6583    1.3119    3.3109 H         1 <0>         0.4060
     25 H9          6.0557    1.6993    4.4793 H         1 <0>         0.1270
     26 H10         5.8757   -0.0221    4.0634 H         1 <0>         0.1264
     27 H11         2.7472   -0.6389    1.9698 H         1 <0>         0.3862
     28 H12         0.0021   -0.0041    0.0020 H         1 <0>         0.3949
     29 H13        -0.3999    3.1471   -1.2984 H         1 <0>         0.3947
     30 H14         3.6962    6.8024    0.1355 H         1 <0>         0.3842
@<TRIPOS>BOND
     1    1    2 1
     2    1   21 1
     3    1   22 1
     4    1   23 1
     5    2    3 1
     6    2   12 1
     7    2    4 1
     8    4    5 1
     9    4    6 1
    10    4   20 1
    11    6    7 1
    12    6    8 1
    13    6   19 1
    14    8    9 1
    15    8   10 1
    16    8   18 1
    17   10   11 1
    18   10   12 1
    19   10   13 1
    20   13   14 am
    21   13   24 1
    22   14   15 2
    23   14   16 1
    24   16   17 1
    25   16   25 1
    26   16   26 1
    27   18   27 1
    28   19   28 1
    29   20   29 1
    30   21   30 1
@<TRIPOS>MOLECULE
ZINC03833815
   30    30     0     0     0
SMALL
USER_CHARGES

@<TRIPOS>ATOM
      1 C1          2.4060    5.2415    0.1478 C.3       1 <0>         0.0908
      2 C2          2.5394    3.7189    0.0773 C.3       1 <0>         0.1084
      3 H1          3.1078    3.4445   -0.8113 H         1 <0>         0.0838
      4 C3          1.1466    3.0871    0.0077 C.3       1 <0>         0.0916
      5 H2          0.5626    3.3940    0.8754 H         1 <0>         0.0788
      6 C4          1.2864    1.5618   -0.0018 C.3       1 <0>         0.0848
      7 H3          1.8253    1.2506   -0.8967 H         1 <0>         0.0798
      8 C5          2.0620    1.1233    1.2442 C.3       1 <0>         0.0428
      9 H4          1.4974    1.3906    2.1374 H         1 <0>         0.0816
     10 C6          3.4194    1.8309    1.2660 C.3       1 <0>         0.2816
     11 H5          3.9994    1.5317    0.3930 H         1 <0>         0.1029
     12 O1          3.2180    3.2455    1.2424 O.3       1 <0>        -0.3702
     13 N1          4.1437    1.4608    2.4845 N.am      1 <0>        -0.7140
     14 C7          5.4845    1.3273    2.4570 C.2       1 <0>         0.5192
     15 O2          6.0915    1.5135    1.4237 O.2       1 <0>        -0.4935
     16 C8          6.2297    0.9466    3.7104 C.3       1 <0>        -0.1180
     17 Br1         8.1539    0.8393    3.3218 Br        1 <0>        -0.0925
     18 O3          2.2614   -0.2913    1.2093 O.3       1 <0>        -0.5503
     19 O4         -0.0110    0.9628    0.0073 O.3       1 <0>        -0.5564
     20 O5          0.4879    3.5138   -1.1865 O.3       1 <0>        -0.5492
     21 O6          3.7043    5.8362    0.0954 O.3       1 <0>        -0.5647
     22 H6          1.8108    5.5934   -0.6948 H         1 <0>         0.0777
     23 H7          1.9160    5.5205    1.0806 H         1 <0>         0.0554
     24 H8          3.6583    1.3119    3.3109 H         1 <0>         0.4061
     25 H9          6.0557    1.6993    4.4793 H         1 <0>         0.1320
     26 H10         5.8757   -0.0221    4.0634 H         1 <0>         0.1315
     27 H11         2.7472   -0.6389    1.9698 H         1 <0>         0.3862
     28 H12         0.0021   -0.0041    0.0020 H         1 <0>         0.3948
     29 H13        -0.3999    3.1471   -1.2984 H         1 <0>         0.3946
     30 H14         3.6962    6.8024    0.1355 H         1 <0>         0.3842
@<TRIPOS>BOND
     1    1    2 1
     2    1   21 1
     3    1   22 1
     4    1   23 1
     5    2    3 1
     6    2   12 1
     7    2    4 1
     8    4    5 1
     9    4    6 1
    10    4   20 1
    11    6    7 1
    12    6    8 1
    13    6   19 1
    14    8    9 1
    15    8   10 1
    16    8   18 1
    17   10   11 1
    18   10   12 1
    19   10   13 1
    20   13   14 am
    21   13   24 1
    22   14   15 2
    23   14   16 1
    24   16   17 1
    25   16   25 1
    26   16   26 1
    27   18   27 1
    28   19   28 1
    29   20   29 1
    30   21   30 1
@<TRIPOS>MOLECULE
ZINC03833816
   30    31     0     0     0
SMALL
USER_CHARGES

@<TRIPOS>ATOM
      1 C1         -0.6739    1.6965   -3.7352 C.3       1 <0>         0.0845
      2 C2          0.0228    1.1497   -2.4876 C.3       1 <0>         0.0465
      3 H1          0.0450    0.0608   -2.5310 H         1 <0>         0.1048
      4 C3         -0.7422    1.5955   -1.2388 C.3       1 <0>         0.0526
      5 H2         -0.7925    2.6840   -1.2117 H         1 <0>         0.0854
      6 C4         -0.0127    1.0858    0.0080 C.3       1 <0>         0.0749
      7 H3          0.0021   -0.0041    0.0020 H         1 <0>         0.0949
      8 C5          1.4243    1.6183   -0.0028 C.3       1 <0>         0.1001
      9 H4          1.4100    2.7059    0.0689 H         1 <0>         0.1035
     10 C6          2.1052    1.2024   -1.3034 C.3       1 <0>         0.3208
     11 O1          1.3603    1.6521   -2.4295 O.3       1 <0>        -0.3302
     12 C7          2.2801   -0.2982   -1.3485 C.2       1 <0>         0.5359
     13 O2          1.4074   -1.1395   -1.3311 O.2       1 <0>        -0.4319
     14 N1          3.6119   -0.5042   -1.4128 N.am      1 <0>        -0.4328
     15 C8          4.2898    0.6501   -1.4142 C.2       1 <0>         0.7086
     16 O3          5.5019    0.7220   -1.4666 O.2       1 <0>        -0.5230
     17 N2          3.4779    1.7226   -1.3515 N.am      1 <0>        -0.6835
     18 O4          4.2174   -1.7829   -1.4711 O.3       1 <0>        -0.2775
     19 O5          2.1428    1.0755    1.1067 O.3       1 <0>        -0.5453
     20 O6         -0.6854    1.5485    1.1808 O.3       1 <0>        -0.5536
     21 O7         -2.0652    1.0563   -1.2716 O.3       1 <0>        -0.5482
     22 O8         -0.0278    1.1870   -4.9035 O.3       1 <0>        -0.5605
     23 H5         -1.7188    1.3860   -3.7333 H         1 <0>         0.0723
     24 H6         -0.6183    2.7851   -3.7348 H         1 <0>         0.0643
     25 H7          3.7465    2.6546   -1.3403 H         1 <0>         0.4511
     26 H8          5.1832   -1.7592   -1.5127 H         1 <0>         0.4075
     27 H9          1.7630    1.2976    1.9679 H         1 <0>         0.4045
     28 H10        -1.6028    1.2511    1.2512 H         1 <0>         0.3987
     29 H11        -2.5858    1.3378   -2.0363 H         1 <0>         0.3876
     30 H12        -0.4178    1.4929   -5.7338 H         1 <0>         0.3882
@<TRIPOS>BOND
     1    1    2 1
     2    1   22 1
     3    1   23 1
     4    1   24 1
     5    2    3 1
     6    2   11 1
     7    2    4 1
     8    4    5 1
     9    4    6 1
    10    4   21 1
    11    6    7 1
    12    6    8 1
    13    6   20 1
    14    8    9 1
    15    8   10 1
    16    8   19 1
    17   10   17 1
    18   10   11 1
    19   10   12 1
    20   12   13 2
    21   12   14 am
    22   14   15 am
    23   14   18 1
    24   15   16 2
    25   15   17 am
    26   17   25 1
    27   18   26 1
    28   19   27 1
    29   20   28 1
    30   21   29 1
    31   22   30 1
@<TRIPOS>MOLECULE
ZINC03833817
   29    30     0     0     0
SMALL
USER_CHARGES

@<TRIPOS>ATOM
      1 C1         -0.7295    1.5796    1.2663 C.3       1 <0>         0.0839
      2 C2         -0.0127    1.0858    0.0080 C.3       1 <0>         0.0491
      3 H1          0.0021   -0.0041    0.0020 H         1 <0>         0.1037
      4 C3          1.4234    1.6160   -0.0029 C.3       1 <0>         0.0524
      5 H2          1.4097    2.7053    0.0353 H         1 <0>         0.0832
      6 C4          2.1200    1.1576   -1.2879 C.3       1 <0>         0.0761
      7 H3          2.1700    0.0690   -1.3074 H         1 <0>         0.0943
      8 C5          1.3174    1.6559   -2.4947 C.3       1 <0>         0.0997
      9 H4          1.3228    2.7458   -2.5105 H         1 <0>         0.0972
     10 C6         -0.1197    1.1551   -2.3849 C.3       1 <0>         0.3046
     11 O1         -0.7025    1.5598   -1.1513 O.3       1 <0>        -0.3348
     12 C7         -0.1642   -0.3492   -2.5240 C.2       1 <0>         0.5251
     13 O2          0.3628   -1.1688   -1.8026 O.2       1 <0>        -0.4493
     14 N1         -0.9135   -0.5880   -3.6202 N.am      1 <0>        -0.6702
     15 C8         -1.3410    0.5491   -4.1824 C.2       1 <0>         0.7200
     16 O3         -2.0321    0.5912   -5.1813 O.2       1 <0>        -0.5244
     17 N2         -0.9188    1.6413   -3.5172 N.am      1 <0>        -0.6932
     18 O4          1.9058    1.1575   -3.6978 O.3       1 <0>        -0.5458
     19 O5          3.4421    1.6980   -1.3342 O.3       1 <0>        -0.5551
     20 O6          2.1290    1.1065    1.1305 O.3       1 <0>        -0.5494
     21 O7         -2.0303    0.9919    1.3351 O.3       1 <0>        -0.5606
     22 H5         -0.1548    1.2942    2.1474 H         1 <0>         0.0709
     23 H6         -0.8227    2.6649    1.2291 H         1 <0>         0.0631
     24 H7         -1.1174   -1.4738   -3.9589 H         1 <0>         0.4376
     25 H8         -1.1054    2.5664   -3.7417 H         1 <0>         0.4471
     26 H9          2.8226    1.4344   -3.8313 H         1 <0>         0.4024
     27 H10         4.0034    1.4282   -0.5944 H         1 <0>         0.3978
     28 H11         1.7400    1.3548    1.9803 H         1 <0>         0.3870
     29 H12        -2.5430    1.2609    2.1096 H         1 <0>         0.3876
@<TRIPOS>BOND
     1    1    2 1
     2    1   21 1
     3    1   22 1
     4    1   23 1
     5    2    3 1
     6    2   11 1
     7    2    4 1
     8    4    5 1
     9    4    6 1
    10    4   20 1
    11    6    7 1
    12    6    8 1
    13    6   19 1
    14    8    9 1
    15    8   10 1
    16    8   18 1
    17   10   17 1
    18   10   11 1
    19   10   12 1
    20   12   13 2
    21   12   14 am
    22   14   15 am
    23   14   24 1
    24   15   16 2
    25   15   17 am
    26   17   25 1
    27   18   26 1
    28   19   27 1
    29   20   28 1
    30   21   29 1
@<TRIPOS>MOLECULE
ZINC03833818
   31    32     0     0     0
SMALL
USER_CHARGES

@<TRIPOS>ATOM
      1 C1         -0.6739    1.6965   -3.7352 C.3       1 <0>         0.0843
      2 C2          0.0228    1.1497   -2.4876 C.3       1 <0>         0.0483
      3 H1          0.0450    0.0608   -2.5310 H         1 <0>         0.1048
      4 C3         -0.7422    1.5955   -1.2388 C.3       1 <0>         0.0526
      5 H2         -0.7925    2.6840   -1.2117 H         1 <0>         0.0838
      6 C4         -0.0127    1.0858    0.0080 C.3       1 <0>         0.0762
      7 H3          0.0021   -0.0041    0.0020 H         1 <0>         0.0945
      8 C5          1.4243    1.6183   -0.0028 C.3       1 <0>         0.1002
      9 H4          1.4100    2.7059    0.0689 H         1 <0>         0.0998
     10 C6          2.1052    1.2024   -1.3034 C.3       1 <0>         0.3126
     11 O1          1.3603    1.6521   -2.4295 O.3       1 <0>        -0.3322
     12 C7          2.2801   -0.2982   -1.3485 C.2       1 <0>         0.5273
     13 O2          1.4074   -1.1395   -1.3311 O.2       1 <0>        -0.4397
     14 N1          3.6119   -0.5042   -1.4128 N.am      1 <0>        -0.4152
     15 C8          4.2898    0.6501   -1.4142 C.2       1 <0>         0.7053
     16 O3          5.5019    0.7220   -1.4666 O.2       1 <0>        -0.5263
     17 N2          3.4779    1.7226   -1.3515 N.am      1 <0>        -0.6886
     18 N3          4.1961   -1.7377   -1.4690 N.3       1 <0>        -0.5764
     19 O4          2.1428    1.0755    1.1067 O.3       1 <0>        -0.5481
     20 O5         -0.6854    1.5485    1.1808 O.3       1 <0>        -0.5548
     21 O6         -2.0652    1.0563   -1.2716 O.3       1 <0>        -0.5489
     22 O7         -0.0278    1.1870   -4.9035 O.3       1 <0>        -0.5596
     23 H5         -1.7188    1.3860   -3.7333 H         1 <0>         0.0712
     24 H6         -0.6183    2.7851   -3.7348 H         1 <0>         0.0632
     25 H7          3.7465    2.6546   -1.3403 H         1 <0>         0.4482
     26 H8          5.2012   -1.6602   -1.5110 H         1 <0>         0.3796
     27 H9          3.9098   -2.3093   -0.6883 H         1 <0>         0.3615
     28 H10         1.7630    1.2976    1.9679 H         1 <0>         0.4033
     29 H11        -1.6028    1.2511    1.2512 H         1 <0>         0.3982
     30 H12        -2.5858    1.3378   -2.0363 H         1 <0>         0.3874
     31 H13        -0.4178    1.4929   -5.7338 H         1 <0>         0.3876
@<TRIPOS>BOND
     1    1    2 1
     2    1   22 1
     3    1   23 1
     4    1   24 1
     5    2    3 1
     6    2   11 1
     7    2    4 1
     8    4    5 1
     9    4    6 1
    10    4   21 1
    11    6    7 1
    12    6    8 1
    13    6   20 1
    14    8    9 1
    15    8   10 1
    16    8   19 1
    17   10   17 1
    18   10   11 1
    19   10   12 1
    20   12   13 2
    21   12   14 am
    22   14   15 am
    23   14   18 1
    24   15   16 2
    25   15   17 am
    26   17   25 1
    27   18   26 1
    28   18   27 1
    29   19   28 1
    30   20   29 1
    31   21   30 1
    32   22   31 1
@<TRIPOS>MOLECULE
ZINC03861213
   24    24     0     0     0
SMALL
USER_CHARGES

@<TRIPOS>ATOM
      1 C1         -0.0173    1.4248    0.0099 C.3       1 <0>         0.0886
      2 C2          1.4181    1.9544   -0.0010 C.3       1 <0>         0.1003
      3 H1          1.9712    1.5224    0.8330 H         1 <0>         0.0876
      4 C3          1.4007    3.4793    0.1332 C.3       1 <0>         0.0943
      5 H2          0.8134    3.9096   -0.6780 H         1 <0>         0.0744
      6 C4          2.8369    4.0068    0.0610 C.3       1 <0>         0.0837
      7 H3          3.4116    3.6158    0.9006 H         1 <0>         0.0839
      8 C5          3.4729    3.5462   -1.2542 C.3       1 <0>         0.0586
      9 H4          2.9281    3.9788   -2.0933 H         1 <0>         0.0879
     10 C6          3.4103    2.0187   -1.3347 C.3       1 <0>         0.2260
     11 H5          3.8228    1.6877   -2.2878 H         1 <0>         0.1077
     12 O1          2.0501    1.5929   -1.2306 O.3       1 <0>        -0.3742
     13 O2          4.1701    1.4535   -0.2646 O.3       1 <0>        -0.5653
     14 O3          4.8364    3.9713   -1.2999 O.3       1 <0>        -0.5494
     15 O4          2.8248    5.4349    0.1117 O.3       1 <0>        -0.5627
     16 O5          0.8213    3.8417    1.3882 O.3       1 <0>        -0.5514
     17 O6          0.0021   -0.0041    0.0020 O.3       1 <0>        -0.5678
     18 H6         -0.5445    1.7859   -0.8732 H         1 <0>         0.0548
     19 H7         -0.5275    1.7763    0.9067 H         1 <0>         0.0755
     20 H8          4.1747    0.4865   -0.2533 H         1 <0>         0.3896
     21 H9          5.3020    3.7133   -2.1072 H         1 <0>         0.3868
     22 H10         3.7030    5.8374    0.0704 H         1 <0>         0.3935
     23 H11         0.7782    4.7956    1.5407 H         1 <0>         0.3934
     24 H12        -0.8759   -0.4094    0.0082 H         1 <0>         0.3842
@<TRIPOS>BOND
     1    1    2 1
     2    1   17 1
     3    1   18 1
     4    1   19 1
     5    2    3 1
     6    2   12 1
     7    2    4 1
     8    4    5 1
     9    4    6 1
    10    4   16 1
    11    6    7 1
    12    6    8 1
    13    6   15 1
    14    8    9 1
    15    8   10 1
    16    8   14 1
    17   10   11 1
    18   10   12 1
    19   10   13 1
    20   13   20 1
    21   14   21 1
    22   15   22 1
    23   16   23 1
    24   17   24 1
@<TRIPOS>MOLECULE
ZINC03993547
   48    49     0     0     0
SMALL
USER_CHARGES

@<TRIPOS>ATOM
      1 C1         -2.5807    1.5104    2.3657 C.3       1 <0>        -0.1765
      2 C2         -1.4889    1.7348    1.3176 C.3       1 <0>         0.1023
      3 N1         -1.1273    3.1541    1.2852 N.pl3     1 <0>        -0.4945
      4 C3         -0.1035    3.6144    2.0645 C.2       1 <0>         0.2494
      5 C4          0.4804    4.7990    1.8065 C.2       1 <0>        -0.3115
      6 C5          0.0379    5.6634    0.6607 C.3       1 <0>         0.0792
      7 H1         -0.0213    6.6992    0.9950 H         1 <0>         0.0947
      8 C6         -1.3080    5.2302    0.1532 C.2       1 <0>        -0.1929
      9 C7         -1.8247    4.0229    0.4727 C.2       1 <0>         0.0920
     10 C8         -3.1524    3.6292   -0.0553 C.2       1 <0>         0.5508
     11 O1         -4.1540    3.8525    0.5931 O.co2     1 <0>        -0.6291
     12 C9         -2.0763    6.1349   -0.7049 C.2       1 <0>         0.4908
     13 O2         -3.2055    5.8382   -1.0442 O.co2     1 <0>        -0.5995
     14 C10         1.0454    5.5597   -0.4552 C.ar      1 <0>        -0.0146
     15 C11         1.2879    4.3387   -1.0563 C.ar      1 <0>        -0.0952
     16 C12         2.2123    4.2433   -2.0795 C.ar      1 <0>        -0.1299
     17 C13         2.8942    5.3691   -2.5031 C.ar      1 <0>        -0.1317
     18 C14         2.6522    6.5903   -1.9033 C.ar      1 <0>        -0.1294
     19 C15         1.7235    6.6873   -0.8821 C.ar      1 <0>         0.0080
     20 Cl1         1.4138    8.2224   -0.1329 Cl        1 <0>        -0.0592
     21 C16         1.5341    5.2430    2.6381 C.2       1 <0>         0.5283
     22 O3          1.9046    4.5546    3.5706 O.2       1 <0>        -0.5587
     23 O4          2.1290    6.4303    2.3978 O.3       1 <0>        -0.3297
     24 C17         3.1866    6.8160    3.2779 C.3       1 <0>         0.0814
     25 C18         4.5192    6.3007    2.7306 C.3       1 <0>        -0.1650
     26 C19         3.2334    8.3418    3.3811 C.3       1 <0>        -0.1467
     27 C20         0.3797    2.7822    3.2243 C.3       1 <0>        -0.1100
     28 H2         -2.8497    0.4544    2.3897 H         1 <0>         0.0600
     29 H3         -3.4585    2.1032    2.1085 H         1 <0>         0.0844
     30 H4         -2.2117    1.8137    3.3454 H         1 <0>         0.0514
     31 H5         -0.6111    1.1420    1.5747 H         1 <0>         0.0746
     32 H6         -1.8579    1.4314    0.3378 H         1 <0>         0.0986
     33 H7          0.7553    3.4591   -0.7261 H         1 <0>         0.1173
     34 H8          2.4017    3.2891   -2.5486 H         1 <0>         0.1140
     35 H9          3.6158    5.2940   -3.3031 H         1 <0>         0.1153
     36 H10         3.1846    7.4696   -2.2345 H         1 <0>         0.1186
     37 H11         3.0106    6.3903    4.2658 H         1 <0>         0.0740
     38 H12         5.3259    6.5949    3.4020 H         1 <0>         0.0604
     39 H13         4.4858    5.2137    2.6571 H         1 <0>         0.0580
     40 H14         4.6952    6.7264    1.7427 H         1 <0>         0.0631
     41 H15         2.2841    8.7089    3.7710 H         1 <0>         0.0617
     42 H16         4.0401    8.6360    4.0524 H         1 <0>         0.0648
     43 H17         3.4094    8.7675    2.3932 H         1 <0>         0.0668
     44 H18        -0.2138    1.8703    3.2893 H         1 <0>         0.0586
     45 H19         1.4279    2.5236    3.0742 H         1 <0>         0.0880
     46 H20         0.2745    3.3508    4.1483 H         1 <0>         0.0925
     47 O5         -3.2476    3.0235   -1.2545 O.co2     1 <0>        -0.7569
     48 O6         -1.5311    7.2972   -1.1188 O.co2     1 <0>        -0.7678
@<TRIPOS>BOND
     1    1    2 1
     2    1   28 1
     3    1   29 1
     4    1   30 1
     5    2    3 1
     6    2   31 1
     7    2   32 1
     8    3    9 1
     9    3    4 1
    10    4    5 2
    11    4   27 1
    12    5    6 1
    13    5   21 1
    14    6    7 1
    15    6    8 1
    16    6   14 1
    17    8    9 2
    18    8   12 1
    19    9   10 1
    20   10   11 2
    21   10   47 1
    22   12   13 2
    23   12   48 1
    24   14   19 ar
    25   14   15 ar
    26   15   16 ar
    27   15   33 1
    28   16   17 ar
    29   16   34 1
    30   17   18 ar
    31   17   35 1
    32   18   19 ar
    33   18   36 1
    34   19   20 1
    35   21   22 2
    36   21   23 1
    37   23   24 1
    38   24   25 1
    39   24   26 1
    40   24   37 1
    41   25   38 1
    42   25   39 1
    43   25   40 1
    44   26   41 1
    45   26   42 1
    46   26   43 1
    47   27   44 1
    48   27   45 1
    49   27   46 1
@<TRIPOS>MOLECULE
ZINC04134448
   27    27     0     0     0
SMALL
USER_CHARGES

@<TRIPOS>ATOM
      1 C1         -1.2251    5.1234   -2.3358 C.3       1 <0>        -0.0187
      2 C2         -1.9226    5.6281   -1.1418 C.1       1 <0>         0.2049
      3 N1         -2.4609    6.0176   -0.2204 N.1       1 <0>        -0.4176
      4 C3         -1.3555    3.6002   -2.3969 C.3       1 <0>         0.0598
      5 H1         -2.4093    3.3239   -2.3604 H         1 <0>         0.0834
      6 C4         -0.7377    3.0868   -3.7001 C.3       1 <0>         0.0910
      7 H2          0.3055    3.3977   -3.7559 H         1 <0>         0.0833
      8 C5         -0.8181    1.5574   -3.7263 C.3       1 <0>         0.1229
      9 H3         -1.8629    1.2470   -3.7205 H         1 <0>         0.0743
     10 C6         -0.1108    0.9983   -2.4879 C.3       1 <0>         0.0499
     11 H4          0.9451    1.2669   -2.5193 H         1 <0>         0.0819
     12 C7         -0.7527    1.5927   -1.2315 C.3       1 <0>         0.0596
     13 H5         -1.7985    1.2899   -1.1797 H         1 <0>         0.0810
     14 O1         -0.6714    3.0184   -1.2853 O.3       1 <0>        -0.3503
     15 C8         -0.0127    1.0858    0.0080 C.3       1 <0>         0.0814
     16 O2         -0.6816    1.5467    1.1837 O.3       1 <0>        -0.5609
     17 O3         -0.2424   -0.4244   -2.4640 O.3       1 <0>        -0.5548
     18 O4         -0.1798    1.0653   -4.9064 O.3       1 <0>        -0.5469
     19 O5         -1.4569    3.6220   -4.8129 O.3       1 <0>        -0.5424
     20 H6         -0.1710    5.3960   -2.2831 H         1 <0>         0.1232
     21 H7         -1.6697    5.5623   -3.2290 H         1 <0>         0.1277
     22 H8          0.0021   -0.0041    0.0020 H         1 <0>         0.0640
     23 H9          1.0099    1.4631    0.0003 H         1 <0>         0.0603
     24 H10        -0.2663    1.2624    2.0094 H         1 <0>         0.3852
     25 H11         0.1789   -0.8456   -1.7024 H         1 <0>         0.3867
     26 H12        -0.1933    0.1019   -4.9883 H         1 <0>         0.3887
     27 H13        -1.4521    4.5880   -4.8565 H         1 <0>         0.3824
@<TRIPOS>BOND
     1    1    2 1
     2    1    4 1
     3    1   20 1
     4    1   21 1
     5    2    3 3
     6    4    5 1
     7    4   14 1
     8    4    6 1
     9    6    7 1
    10    6    8 1
    11    6   19 1
    12    8    9 1
    13    8   10 1
    14    8   18 1
    15   10   11 1
    16   10   12 1
    17   10   17 1
    18   12   13 1
    19   12   14 1
    20   12   15 1
    21   15   16 1
    22   15   22 1
    23   15   23 1
    24   16   24 1
    25   17   25 1
    26   18   26 1
    27   19   27 1
@<TRIPOS>MOLECULE
ZINC04134449
   28    28     0     0     0
SMALL
USER_CHARGES

@<TRIPOS>ATOM
      1 C1         -0.0179    1.4678    0.0101 C.3       1 <0>        -0.0321
      2 C2          0.0021   -0.0041    0.0020 C.1       1 <0>         0.1993
      3 N1          0.0175   -1.1399   -0.0042 N.1       1 <0>        -0.4120
      4 C3          1.4175    1.9974   -0.0007 C.3       1 <0>         0.2991
      5 C4          1.3970    3.5281    0.0091 C.3       1 <0>         0.1160
      6 H1          0.8516    3.8795    0.8850 H         1 <0>         0.0920
      7 C5          2.8363    4.0499    0.0590 C.3       1 <0>         0.0839
      8 H2          3.3678    3.7403   -0.8409 H         1 <0>         0.0864
      9 C6          3.5356    3.4700    1.2923 C.3       1 <0>         0.0499
     10 H3          3.0344    3.8201    2.1946 H         1 <0>         0.0788
     11 C7          3.4735    1.9415    1.2328 C.3       1 <0>         0.0609
     12 H4          4.0107    1.5896    0.3521 H         1 <0>         0.0891
     13 O1          2.1088    1.5241    1.1569 O.3       1 <0>        -0.3668
     14 C8          4.1170    1.3554    2.4911 C.3       1 <0>         0.0808
     15 O2          4.1629   -0.0689    2.3834 O.3       1 <0>        -0.5609
     16 O3          4.9007    3.8921    1.3099 O.3       1 <0>        -0.5549
     17 O4          2.8268    5.4765    0.1415 O.3       1 <0>        -0.5602
     18 O5          0.7570    4.0048   -1.1763 O.3       1 <0>        -0.5409
     19 O6          2.0864    1.5371   -1.1767 O.3       1 <0>        -0.5494
     20 H5         -0.5451    1.8289   -0.8729 H         1 <0>         0.1442
     21 H6         -0.5281    1.8193    0.9069 H         1 <0>         0.1274
     22 H7          5.1298    1.7445    2.5962 H         1 <0>         0.0639
     23 H8          3.5279    1.6349    3.3645 H         1 <0>         0.0596
     24 H9          4.5596   -0.5085    3.1479 H         1 <0>         0.3853
     25 H10         5.4063    3.5570    2.0629 H         1 <0>         0.3853
     26 H11         3.7074    5.8740    0.1827 H         1 <0>         0.3947
     27 H12         0.7086    4.9687   -1.2367 H         1 <0>         0.3945
     28 H13         2.1371    0.5741   -1.2488 H         1 <0>         0.3861
@<TRIPOS>BOND
     1    1    2 1
     2    1    4 1
     3    1   20 1
     4    1   21 1
     5    2    3 3
     6    4   13 1
     7    4    5 1
     8    4   19 1
     9    5    6 1
    10    5    7 1
    11    5   18 1
    12    7    8 1
    13    7    9 1
    14    7   17 1
    15    9   10 1
    16    9   11 1
    17    9   16 1
    18   11   12 1
    19   11   13 1
    20   11   14 1
    21   14   15 1
    22   14   22 1
    23   14   23 1
    24   15   24 1
    25   16   25 1
    26   17   26 1
    27   18   27 1
    28   19   28 1
@<TRIPOS>MOLECULE
ZINC04134450
   36    36     0     0     0
SMALL
USER_CHARGES

@<TRIPOS>ATOM
      1 C1         -4.2085    0.9630    2.5018 C.3       1 <0>        -0.1837
      2 C2         -2.7970    1.5528    2.5311 C.3       1 <0>         0.1151
      3 N1         -2.0411    1.0680    1.3736 N.am      1 <0>        -0.7325
      4 C3         -0.7643    1.4588    1.1909 C.2       1 <0>         0.5196
      5 O1         -0.2143    2.1440    2.0269 O.2       1 <0>        -0.4929
      6 C4         -0.0199    1.0443   -0.0521 C.3       1 <0>         0.0429
      7 H1         -0.0914   -0.0364   -0.1753 H         1 <0>         0.0995
      8 C5         -0.6339    1.7387   -1.2706 C.3       1 <0>         0.0508
      9 H2         -0.5994    2.8190   -1.1299 H         1 <0>         0.0855
     10 C6          0.1652    1.3595   -2.5211 C.3       1 <0>         0.0861
     11 H3          0.0899    0.2853   -2.6902 H         1 <0>         0.0799
     12 C7          1.6332    1.7435   -2.3115 C.3       1 <0>         0.0908
     13 H4          1.7135    2.8240   -2.1919 H         1 <0>         0.0799
     14 C8          2.1596    1.0489   -1.0529 C.3       1 <0>         0.0976
     15 H5          2.1168   -0.0317   -1.1890 H         1 <0>         0.0837
     16 O2          1.3535    1.4205    0.0671 O.3       1 <0>        -0.3246
     17 C9          3.6077    1.4747   -0.8030 C.3       1 <0>         0.0908
     18 O3          4.1360    0.7403    0.3031 O.3       1 <0>        -0.5660
     19 O4          2.4025    1.3298   -3.4425 O.3       1 <0>        -0.5496
     20 O5         -0.3556    2.0607   -3.6521 O.3       1 <0>        -0.5559
     21 O6         -1.9911    1.3192   -1.4257 O.3       1 <0>        -0.5547
     22 C10        -4.9980    1.4693    3.7107 C.3       1 <0>         0.4607
     23 F1         -5.0749    2.8655    3.6659 F         1 <0>        -0.1796
     24 F2         -6.2886    0.9301    3.6839 F         1 <0>        -0.1789
     25 F3         -4.3523    1.0754    4.8876 F         1 <0>        -0.1789
     26 H6         -4.7116    1.2700    1.5849 H         1 <0>         0.1201
     27 H7         -4.1486   -0.1248    2.5367 H         1 <0>         0.1207
     28 H8         -2.2940    1.2459    3.4481 H         1 <0>         0.0887
     29 H9         -2.8570    2.6406    2.4962 H         1 <0>         0.0876
     30 H10        -2.4596    0.4658    0.7387 H         1 <0>         0.4059
     31 H11         4.2047    1.2719   -1.6921 H         1 <0>         0.0782
     32 H12         3.6395    2.5411   -0.5795 H         1 <0>         0.0577
     33 H13         5.0528    0.9594    0.5189 H         1 <0>         0.3853
     34 H14         2.1233    1.7318   -4.2765 H         1 <0>         0.3945
     35 H15        -1.2830    1.8648   -3.8435 H         1 <0>         0.3942
     36 H16        -2.5766    1.6103   -0.7133 H         1 <0>         0.3818
@<TRIPOS>BOND
     1    1    2 1
     2    1   22 1
     3    1   26 1
     4    1   27 1
     5    2    3 1
     6    2   28 1
     7    2   29 1
     8    3    4 am
     9    3   30 1
    10    4    5 2
    11    4    6 1
    12    6    7 1
    13    6   16 1
    14    6    8 1
    15    8    9 1
    16    8   10 1
    17    8   21 1
    18   10   11 1
    19   10   12 1
    20   10   20 1
    21   12   13 1
    22   12   14 1
    23   12   19 1
    24   14   15 1
    25   14   16 1
    26   14   17 1
    27   17   18 1
    28   17   31 1
    29   17   32 1
    30   18   33 1
    31   19   34 1
    32   20   35 1
    33   21   36 1
    34   22   23 1
    35   22   24 1
    36   22   25 1
@<TRIPOS>MOLECULE
ZINC04134451
   29    29     0     0     0
SMALL
USER_CHARGES

@<TRIPOS>ATOM
      1 C1          1.1357    3.5487    0.0390 C.3       1 <0>         0.0811
      2 C2          1.2791    2.0260    0.0007 C.3       1 <0>         0.0629
      3 H1          1.8410    1.6916    0.8728 H         1 <0>         0.0908
      4 C3          2.0216    1.6150   -1.2734 C.3       1 <0>         0.0498
      5 H2          1.4822    1.9842   -2.1456 H         1 <0>         0.0765
      6 C4          2.1083    0.0868   -1.3342 C.3       1 <0>         0.0858
      7 H3          2.6910   -0.2792   -0.4889 H         1 <0>         0.0879
      8 C5          0.6933   -0.4966   -1.2721 C.3       1 <0>         0.1141
      9 H4          0.1261   -0.1701   -2.1437 H         1 <0>         0.0859
     10 C6          0.0021   -0.0041    0.0020 C.3       1 <0>         0.2991
     11 O1         -0.0173    1.4248    0.0099 O.3       1 <0>        -0.3726
     12 C7         -1.4327   -0.5340    0.0416 C.3       1 <0>         0.0663
     13 N1         -2.0944   -0.0614    1.2602 N.2       1 <0>        -0.3774
     14 N2         -3.0197    0.5725    1.1875 N.1       1 <0>         0.2832
     15 N3         -3.9450    1.2065    1.1149 N.1       1 <0>        -0.1661
     16 O2          0.7168   -0.4773    1.1454 O.3       1 <0>        -0.5451
     17 O3          0.7656   -1.9237   -1.2550 O.3       1 <0>        -0.5400
     18 O4          2.7358   -0.3099   -2.5551 O.3       1 <0>        -0.5605
     19 O5          3.3393    2.1677   -1.2576 O.3       1 <0>        -0.5541
     20 O6          0.5461    3.9406    1.2803 O.3       1 <0>        -0.5603
     21 H5          2.1191    4.0089   -0.0575 H         1 <0>         0.0644
     22 H6          0.4998    3.8746   -0.7841 H         1 <0>         0.0575
     23 H7         -1.9774   -0.1733   -0.8309 H         1 <0>         0.0800
     24 H8         -1.4177   -1.6239    0.0356 H         1 <0>         0.1380
     25 H9          0.3347   -0.2018    1.9899 H         1 <0>         0.3939
     26 H10         1.1928   -2.3053   -2.0340 H         1 <0>         0.3938
     27 H11         3.6367    0.0250   -2.6613 H         1 <0>         0.3948
     28 H12         3.3602    3.1337   -1.2195 H         1 <0>         0.3852
     29 H13         0.4249    4.8954    1.3741 H         1 <0>         0.3852
@<TRIPOS>BOND
     1    1    2 1
     2    1   20 1
     3    1   21 1
     4    1   22 1
     5    2    3 1
     6    2   11 1
     7    2    4 1
     8    4    5 1
     9    4    6 1
    10    4   19 1
    11    6    7 1
    12    6    8 1
    13    6   18 1
    14    8    9 1
    15    8   10 1
    16    8   17 1
    17   10   11 1
    18   10   12 1
    19   10   16 1
    20   12   13 1
    21   12   23 1
    22   12   24 1
    23   13   14 2
    24   14   15 2
    25   16   25 1
    26   17   26 1
    27   18   27 1
    28   19   28 1
    29   20   29 1
@<TRIPOS>MOLECULE
ZINC04134452
   33    33     0     0     0
SMALL
USER_CHARGES

@<TRIPOS>ATOM
      1 C1         -0.4270   -4.6762    2.6420 C.3       1 <0>        -0.7021
      2 S1         -0.9600   -4.0441    1.0274 S.o2      1 <0>         2.6202
      3 O1         -2.3597   -4.2298    0.8668 O.2       1 <0>        -0.9301
      4 O2         -0.0533   -4.4599    0.0154 O.2       1 <0>        -0.9668
      5 O3         -0.7762   -2.5359    1.1177 O.3       1 <0>        -0.7231
      6 C2          0.5854   -2.1103    1.0339 C.3       1 <0>         0.0771
      7 C3          0.6501   -0.5850    1.1355 C.3       1 <0>         0.1014
      8 H1          0.1489   -0.2596    2.0471 H         1 <0>         0.0920
      9 C4          2.1137   -0.1373    1.1698 C.3       1 <0>         0.0885
     10 H2          2.6257   -0.4971    0.2774 H         1 <0>         0.0841
     11 C5          2.1706    1.3929    1.2107 C.3       1 <0>         0.0849
     12 H3          1.7022    1.7508    2.1275 H         1 <0>         0.0784
     13 C6          1.4195    1.9533   -0.0010 C.3       1 <0>         0.0474
     14 H4          1.9175    1.6357   -0.9171 H         1 <0>         0.0814
     15 C7         -0.0173    1.4248    0.0099 C.3       1 <0>         0.0563
     16 H5         -0.5272    1.7765    0.9068 H         1 <0>         0.0833
     17 O4          0.0021   -0.0041    0.0020 O.3       1 <0>        -0.3401
     18 C8         -0.7569    1.9319   -1.2298 C.3       1 <0>         0.0819
     19 O5         -2.1280    1.5349   -1.1621 O.3       1 <0>        -0.5587
     20 O6          1.4038    3.3807    0.0652 O.3       1 <0>        -0.5562
     21 O7          3.5331    1.8218    1.1709 O.3       1 <0>        -0.5579
     22 O8          2.7488   -0.6700    2.3337 O.3       1 <0>        -0.5538
     23 H6         -1.0472   -4.2407    3.4254 H         1 <0>         0.1335
     24 H7         -0.5290   -5.7613    2.6590 H         1 <0>         0.1359
     25 H8          0.6154   -4.4066    2.8116 H         1 <0>         0.1279
     26 H9          1.0078   -2.4293    0.0811 H         1 <0>         0.1144
     27 H10         1.1554   -2.5533    1.8506 H         1 <0>         0.1106
     28 H11        -0.6950    3.0194   -1.2703 H         1 <0>         0.0638
     29 H12        -0.2998    1.5084   -2.1241 H         1 <0>         0.0604
     30 H13        -2.6586    1.8230   -1.9174 H         1 <0>         0.3855
     31 H14         0.9391    3.8034   -0.6700 H         1 <0>         0.3868
     32 H15         3.6439    2.7822    1.1937 H         1 <0>         0.3952
     33 H16         3.6805   -0.4258    2.4200 H         1 <0>         0.3978
@<TRIPOS>BOND
     1    1    2 1
     2    1   23 1
     3    1   24 1
     4    1   25 1
     5    2    3 2
     6    2    4 2
     7    2    5 1
     8    5    6 1
     9    6    7 1
    10    6   26 1
    11    6   27 1
    12    7    8 1
    13    7   17 1
    14    7    9 1
    15    9   10 1
    16    9   11 1
    17    9   22 1
    18   11   12 1
    19   11   13 1
    20   11   21 1
    21   13   14 1
    22   13   15 1
    23   13   20 1
    24   15   16 1
    25   15   17 1
    26   15   18 1
    27   18   19 1
    28   18   28 1
    29   18   29 1
    30   19   30 1
    31   20   31 1
    32   21   32 1
    33   22   33 1
@<TRIPOS>MOLECULE
ZINC04134453
   32    32     0     0     0
SMALL
USER_CHARGES

@<TRIPOS>ATOM
      1 C1         -0.7931    3.0563   -1.0777 C.3       1 <0>        -0.1379
      2 C2         -0.7955    1.5269   -1.1198 C.3       1 <0>        -0.0035
      3 C3         -1.6095    3.6001   -2.2519 C.3       1 <0>         0.1003
      4 H1         -2.6094    3.1667   -2.2310 H         1 <0>         0.0837
      5 C4         -1.7108    5.1236   -2.1412 C.3       1 <0>         0.0906
      6 H2         -0.7098    5.5547   -2.1212 H         1 <0>         0.0783
      7 C5         -2.4775    5.6658   -3.3514 C.3       1 <0>         0.0810
      8 H3         -3.4945    5.2736   -3.3443 H         1 <0>         0.0764
      9 C6         -1.7662    5.2221   -4.6333 C.3       1 <0>         0.0473
     10 H4         -0.7664    5.6552   -4.6637 H         1 <0>         0.0802
     11 C7         -1.6628    3.6947   -4.6478 C.3       1 <0>         0.0626
     12 H5         -2.6635    3.2627   -4.6583 H         1 <0>         0.0843
     13 O1         -0.9660    3.2547   -3.4803 O.3       1 <0>        -0.3577
     14 C8         -0.9004    3.2465   -5.8962 C.3       1 <0>         0.0795
     15 O2         -0.9036    1.8194   -5.9695 O.3       1 <0>        -0.5665
     16 O3         -2.5114    5.6610   -5.7709 O.3       1 <0>        -0.5536
     17 O4         -2.5152    7.0932   -3.2952 O.3       1 <0>        -0.5581
     18 O5         -2.4053    5.4701   -0.9414 O.3       1 <0>        -0.5571
     19 H6         -1.2348    3.3947   -0.1405 H         1 <0>         0.1130
     20 H7          0.2319    3.4201   -1.1486 H         1 <0>         0.0979
     21 H8         -0.3538    1.1885   -2.0571 H         1 <0>         0.1437
     22 H9         -1.8205    1.1631   -1.0490 H         1 <0>         0.1325
     23 H10         0.0021   -0.0041    0.0020 H         1 <0>         0.4415
     24 H11         0.9253    1.3792    0.0006 H         1 <0>         0.4374
     25 H12        -1.3826    3.6570   -6.7834 H         1 <0>         0.0686
     26 H13         0.1275    3.6052   -5.8426 H         1 <0>         0.0614
     27 H14        -0.4368    1.4640   -6.7383 H         1 <0>         0.3906
     28 H15        -2.1196    5.4100   -6.6185 H         1 <0>         0.3894
     29 H16        -2.9815    7.5038   -4.0362 H         1 <0>         0.3994
     30 H17        -2.5063    6.4223   -0.8064 H         1 <0>         0.4018
     31 N1         -0.0252    1.0139    0.0269 N.4       1 <0>        -0.6461
     32 H18        -0.4761    1.3157    0.8986 H         1 <0>         0.4393
@<TRIPOS>BOND
     1    1    2 1
     2    1    3 1
     3    1   19 1
     4    1   20 1
     5    2   21 1
     6    2   22 1
     7    2   31 1
     8    3    4 1
     9    3   13 1
    10    3    5 1
    11    5    6 1
    12    5    7 1
    13    5   18 1
    14    7    8 1
    15    7    9 1
    16    7   17 1
    17    9   10 1
    18    9   11 1
    19    9   16 1
    20   11   12 1
    21   11   13 1
    22   11   14 1
    23   14   15 1
    24   14   25 1
    25   14   26 1
    26   15   27 1
    27   16   28 1
    28   17   29 1
    29   18   30 1
    30   23   31 1
    31   24   31 1
    32   31   32 1
@<TRIPOS>MOLECULE
ZINC04134454
   34    34     0     0     0
SMALL
USER_CHARGES

@<TRIPOS>ATOM
      1 C1          6.5823    0.8595   -1.5746 C.3       1 <0>        -0.7008
      2 S1          5.5912    1.8723   -2.7071 S.o2      1 <0>         2.6201
      3 O1          5.9405    1.5845   -4.0541 O.2       1 <0>        -0.9276
      4 O2          5.5374    3.2145   -2.2437 O.2       1 <0>        -0.9650
      5 O3          4.1692    1.3516   -2.5549 O.3       1 <0>        -0.7260
      6 C2          3.5274    1.7592   -1.3450 C.3       1 <0>         0.0569
      7 C3          2.1115    1.1813   -1.2990 C.3       1 <0>         0.3051
      8 C4          1.4237    1.6178   -0.0028 C.3       1 <0>         0.1101
      9 H1          1.4094    2.7063    0.0532 H         1 <0>         0.0935
     10 C5         -0.0127    1.0858    0.0080 C.3       1 <0>         0.0870
     11 H2          0.0021   -0.0041    0.0020 H         1 <0>         0.0882
     12 C6         -0.7436    1.5952   -1.2380 C.3       1 <0>         0.0484
     13 H3         -0.8017    2.6832   -1.2070 H         1 <0>         0.0794
     14 C7          0.0279    1.1595   -2.4865 C.3       1 <0>         0.0588
     15 H4          0.0507    0.0710   -2.5385 H         1 <0>         0.0910
     16 O4          1.3642    1.6615   -2.4184 O.3       1 <0>        -0.3572
     17 C8         -0.6631    1.7155   -3.7332 C.3       1 <0>         0.0813
     18 O5         -0.0113    1.2149   -4.9023 O.3       1 <0>        -0.5592
     19 O6         -2.0624    1.0463   -1.2759 O.3       1 <0>        -0.5542
     20 O7         -0.6849    1.5483    1.1811 O.3       1 <0>        -0.5597
     21 O8          2.1369    1.0901    1.1174 O.3       1 <0>        -0.5439
     22 O9          2.1774   -0.2454   -1.3464 O.3       1 <0>        -0.5487
     23 H5          6.5040   -0.1891   -1.8618 H         1 <0>         0.1347
     24 H6          7.6250    1.1730   -1.6247 H         1 <0>         0.1369
     25 H7          6.2134    0.9860   -0.5567 H         1 <0>         0.1285
     26 H8          3.4770    2.8475   -1.3092 H         1 <0>         0.1207
     27 H9          4.0970    1.3936   -0.4905 H         1 <0>         0.1184
     28 H10        -1.7078    1.4049   -3.7386 H         1 <0>         0.0643
     29 H11        -0.6077    2.8041   -3.7243 H         1 <0>         0.0598
     30 H12        -0.3975    1.5271   -5.7320 H         1 <0>         0.3856
     31 H13        -2.5836    1.3272   -2.0405 H         1 <0>         0.3861
     32 H14        -1.6023    1.2508    1.2519 H         1 <0>         0.3959
     33 H15         1.7530    1.3238    1.9736 H         1 <0>         0.3968
     34 H16         2.6021   -0.5933   -2.1424 H         1 <0>         0.3950
@<TRIPOS>BOND
     1    1    2 1
     2    1   23 1
     3    1   24 1
     4    1   25 1
     5    2    3 2
     6    2    4 2
     7    2    5 1
     8    5    6 1
     9    6    7 1
    10    6   26 1
    11    6   27 1
    12    7   16 1
    13    7    8 1
    14    7   22 1
    15    8    9 1
    16    8   10 1
    17    8   21 1
    18   10   11 1
    19   10   12 1
    20   10   20 1
    21   12   13 1
    22   12   14 1
    23   12   19 1
    24   14   15 1
    25   14   16 1
    26   14   17 1
    27   17   18 1
    28   17   28 1
    29   17   29 1
    30   18   30 1
    31   19   31 1
    32   20   32 1
    33   21   33 1
    34   22   34 1
@<TRIPOS>MOLECULE
ZINC04134455
   41    42     0     0     0
SMALL
USER_CHARGES

@<TRIPOS>ATOM
      1 C1         -1.2205    1.7512    0.0080 C.ar      1 <0>        -0.1326
      2 C2         -1.1132    2.9138   -0.7331 C.ar      1 <0>        -0.0998
      3 C3          0.0703    3.6257   -0.7361 C.ar      1 <0>        -0.1207
      4 C4          1.1549    3.1700    0.0018 C.ar      1 <0>         0.1428
      5 C5          1.0456    1.9993    0.7407 C.ar      1 <0>        -0.1439
      6 C6         -0.1407    1.2920    0.7396 C.ar      1 <0>        -0.1002
      7 N1          2.3555    3.8887    0.0005 N.am      1 <0>        -0.6689
      8 C7          2.3361    5.2330   -0.0943 C.2       1 <0>         0.5327
      9 O1          1.2785    5.8266   -0.0820 O.2       1 <0>        -0.4968
     10 C8          3.6285    5.9985   -0.2156 C.3       1 <0>        -0.1301
     11 S1          3.2718    7.7738   -0.3237 S.3       1 <0>        -0.1219
     12 C9          4.9089    8.5427   -0.4630 C.3       1 <0>         0.0622
     13 H1          5.4457    8.1048   -1.3045 H         1 <0>         0.0898
     14 C10         4.7483   10.0485   -0.6876 C.3       1 <0>         0.0681
     15 H2          4.1763   10.4803    0.1336 H         1 <0>         0.0861
     16 C11         6.1339   10.6991   -0.7437 C.3       1 <0>         0.0879
     17 H3          6.6882   10.3035   -1.5949 H         1 <0>         0.0771
     18 C12         6.8881   10.3815    0.5512 C.3       1 <0>         0.0928
     19 H4          6.3593   10.8199    1.3975 H         1 <0>         0.0794
     20 C13         6.9660    8.8628    0.7277 C.3       1 <0>         0.0963
     21 H5          7.5299    8.4291   -0.0981 H         1 <0>         0.0807
     22 O2          5.6451    8.3177    0.7410 O.3       1 <0>        -0.3439
     23 C14         7.6653    8.5380    2.0492 C.3       1 <0>         0.0906
     24 O3          7.8410    7.1241    2.1603 O.3       1 <0>        -0.5689
     25 O4          8.2088   10.9223    0.4795 O.3       1 <0>        -0.5513
     26 O5          5.9923   12.1145   -0.8795 O.3       1 <0>        -0.5560
     27 O6          4.0630   10.2769   -1.9206 O.3       1 <0>        -0.5528
     28 H6         -2.1483    1.1986    0.0120 H         1 <0>         0.1249
     29 H7         -1.9571    3.2679   -1.3065 H         1 <0>         0.1272
     30 H8          0.1521    4.5360   -1.3115 H         1 <0>         0.1339
     31 H9          1.8872    1.6425    1.3159 H         1 <0>         0.1262
     32 H10        -0.2265    0.3817    1.3143 H         1 <0>         0.1277
     33 H11         3.2018    3.4194    0.0677 H         1 <0>         0.4137
     34 H12         4.2488    5.8052    0.6596 H         1 <0>         0.1271
     35 H13         4.1573    5.6789   -1.1135 H         1 <0>         0.1183
     36 H14         8.6385    9.0282    2.0754 H         1 <0>         0.0768
     37 H15         7.0564    8.8948    2.8798 H         1 <0>         0.0572
     38 H16         8.2792    6.8451    2.9758 H         1 <0>         0.3849
     39 H17         8.2351   11.8824    0.3674 H         1 <0>         0.3947
     40 H18         5.5229   12.3879   -1.6796 H         1 <0>         0.3953
     41 H19         3.1786    9.8875   -1.9570 H         1 <0>         0.3931
@<TRIPOS>BOND
     1    1    6 ar
     2    1    2 ar
     3    1   28 1
     4    2    3 ar
     5    2   29 1
     6    3    4 ar
     7    3   30 1
     8    4    5 ar
     9    4    7 1
    10    5    6 ar
    11    5   31 1
    12    6   32 1
    13    7    8 am
    14    7   33 1
    15    8    9 2
    16    8   10 1
    17   10   11 1
    18   10   34 1
    19   10   35 1
    20   11   12 1
    21   12   13 1
    22   12   22 1
    23   12   14 1
    24   14   15 1
    25   14   16 1
    26   14   27 1
    27   16   17 1
    28   16   18 1
    29   16   26 1
    30   18   19 1
    31   18   20 1
    32   18   25 1
    33   20   21 1
    34   20   22 1
    35   20   23 1
    36   23   24 1
    37   23   36 1
    38   23   37 1
    39   24   38 1
    40   25   39 1
    41   26   40 1
    42   27   41 1
@<TRIPOS>MOLECULE
ZINC04134456
   29    29     0     0     0
SMALL
USER_CHARGES

@<TRIPOS>ATOM
      1 C1          3.4669    1.7348    1.0718 C.3       1 <0>         0.0938
      2 C2          2.0504    1.1607    1.1414 C.3       1 <0>         0.0725
      3 H1          2.0999    0.0720    1.1632 H         1 <0>         0.1188
      4 C3          1.2560    1.6111   -0.0873 C.3       1 <0>         0.0930
      5 H2          1.2404    2.7000   -0.1331 H         1 <0>         0.0763
      6 C4         -0.1777    1.0826    0.0194 C.3       1 <0>         0.0815
      7 H3         -0.1660   -0.0073    0.0141 H         1 <0>         0.0709
      8 C5         -0.7982    1.5820    1.3278 C.3       1 <0>         0.0500
      9 H4         -0.8552    2.6704    1.3118 H         1 <0>         0.0956
     10 C6          0.0756    1.1327    2.5019 C.3       1 <0>         0.0472
     11 H5         -0.3379    1.5214    3.4326 H         1 <0>         0.1402
     12 O1          1.4027    1.6321    2.3248 O.3       1 <0>        -0.3223
     13 C7          0.1083   -0.3729    2.5567 C.2       1 <0>         0.4875
     14 O2          1.1614   -0.9615    2.4324 O.2       1 <0>        -0.5049
     15 N1         -1.0327   -1.0654    2.7439 N.am      1 <0>        -0.5633
     16 N2         -1.0031   -2.4302    2.7936 N.3       1 <0>        -0.6019
     17 O3         -2.1107    1.0359    1.4730 O.3       1 <0>        -0.5570
     18 O4         -0.9460    1.5578   -1.0879 O.3       1 <0>        -0.5557
     19 O5          1.8695    1.0923   -1.2691 O.3       1 <0>        -0.5484
     20 O6          4.2429    1.2211    2.1562 O.3       1 <0>        -0.5606
     21 H6          3.9289    1.4488    0.1269 H         1 <0>         0.0742
     22 H7          3.4221    2.8218    1.1400 H         1 <0>         0.0518
     23 H8         -1.8750   -0.5946    2.8434 H         1 <0>         0.4008
     24 H9         -1.9279   -2.8069    2.9380 H         1 <0>         0.3590
     25 H10        -0.5826   -2.8133    1.9602 H         1 <0>         0.3469
     26 H11        -2.5639    1.3109    2.2817 H         1 <0>         0.3891
     27 H12        -1.8670    1.2631   -1.0829 H         1 <0>         0.3920
     28 H13         1.4148    1.3350   -2.0873 H         1 <0>         0.3918
     29 H14         5.1544    1.5436    2.1750 H         1 <0>         0.3811
@<TRIPOS>BOND
     1    1    2 1
     2    1   20 1
     3    1   21 1
     4    1   22 1
     5    2    3 1
     6    2   12 1
     7    2    4 1
     8    4    5 1
     9    4    6 1
    10    4   19 1
    11    6    7 1
    12    6    8 1
    13    6   18 1
    14    8    9 1
    15    8   10 1
    16    8   17 1
    17   10   11 1
    18   10   12 1
    19   10   13 1
    20   13   14 2
    21   13   15 am
    22   15   16 1
    23   15   23 1
    24   16   24 1
    25   16   25 1
    26   17   26 1
    27   18   27 1
    28   19   28 1
    29   20   29 1
@<TRIPOS>MOLECULE
ZINC04134457
   29    29     0     0     0
SMALL
USER_CHARGES

@<TRIPOS>ATOM
      1 C1         -1.2825   -0.6808    0.0106 C.3       1 <0>         0.0351
      2 O1          0.0021   -0.0041    0.0020 O.3       1 <0>        -0.3600
      3 C2         -0.0161    1.3381    0.0094 C.2       1 <0>         0.4624
      4 O2         -1.0706    1.9279    0.0176 O.2       1 <0>        -0.4685
      5 C3          1.2786    2.1093    0.0012 C.3       1 <0>         0.0671
      6 H1          1.9005    1.7844    0.8353 H         1 <0>         0.1122
      7 C4          2.0165    1.8540   -1.3156 C.3       1 <0>         0.0535
      8 H2          1.3791    2.1409   -2.1520 H         1 <0>         0.0825
      9 C5          3.3014    2.6876   -1.3418 C.3       1 <0>         0.0861
     10 H3          3.9613    2.3658   -0.5362 H         1 <0>         0.0815
     11 C6          2.9424    4.1648   -1.1535 C.3       1 <0>         0.0904
     12 H4          2.3237    4.4983   -1.9865 H         1 <0>         0.0805
     13 C7          2.1687    4.3308    0.1571 C.3       1 <0>         0.0994
     14 H5          2.8024    4.0354    0.9933 H         1 <0>         0.0864
     15 O3          1.0024    3.5056    0.1282 O.3       1 <0>        -0.3301
     16 C8          1.7543    5.7942    0.3231 C.3       1 <0>         0.0910
     17 O4          1.1349    5.9722    1.5985 O.3       1 <0>        -0.5663
     18 O5          4.1390    4.9443   -1.1036 O.3       1 <0>        -0.5492
     19 O6          3.9596    2.5120   -2.5979 O.3       1 <0>        -0.5559
     20 O7          2.3437    0.4667   -1.4185 O.3       1 <0>        -0.5503
     21 H6         -1.1251   -1.7593    0.0034 H         1 <0>         0.1101
     22 H7         -1.8350   -0.4003    0.9075 H         1 <0>         0.0686
     23 H8         -1.8519   -0.3908   -0.8724 H         1 <0>         0.0675
     24 H9          2.6361    6.4314    0.2553 H         1 <0>         0.0799
     25 H10         1.0498    6.0639   -0.4638 H         1 <0>         0.0581
     26 H11         0.8460    6.8785    1.7724 H         1 <0>         0.3856
     27 H12         4.6821    4.8826   -1.9013 H         1 <0>         0.3952
     28 H13         4.2100    1.5971   -2.7863 H         1 <0>         0.3957
     29 H14         1.5757   -0.1206   -1.4038 H         1 <0>         0.3917
@<TRIPOS>BOND
     1    1    2 1
     2    1   21 1
     3    1   22 1
     4    1   23 1
     5    2    3 1
     6    3    4 2
     7    3    5 1
     8    5    6 1
     9    5   15 1
    10    5    7 1
    11    7    8 1
    12    7    9 1
    13    7   20 1
    14    9   10 1
    15    9   11 1
    16    9   19 1
    17   11   12 1
    18   11   13 1
    19   11   18 1
    20   13   14 1
    21   13   15 1
    22   13   16 1
    23   16   17 1
    24   16   24 1
    25   16   25 1
    26   17   26 1
    27   18   27 1
    28   19   28 1
    29   20   29 1
@<TRIPOS>MOLECULE
ZINC04134458
   34    34     0     0     0
SMALL
USER_CHARGES

@<TRIPOS>ATOM
      1 C1         -2.7962    1.5533    2.5317 C.3       1 <0>         0.1171
      2 C2         -4.2077    0.9637    2.5028 C.3       1 <0>         0.0622
      3 O1         -4.1352   -0.4541    2.6657 O.3       1 <0>        -0.5717
      4 N1         -2.0406    1.0683    1.3740 N.am      1 <0>        -0.7265
      5 C3         -0.7637    1.4589    1.1910 C.2       1 <0>         0.5169
      6 O2         -0.2135    2.1441    2.0268 O.2       1 <0>        -0.5022
      7 C4         -0.0197    1.0443   -0.0522 C.3       1 <0>         0.0418
      8 H1         -0.0914   -0.0364   -0.1753 H         1 <0>         0.0979
      9 C5         -0.6339    1.7387   -1.2705 C.3       1 <0>         0.0519
     10 H2         -0.5992    2.8190   -1.1300 H         1 <0>         0.0842
     11 C6          0.1648    1.3593   -2.5213 C.3       1 <0>         0.0858
     12 H3          0.0894    0.2851   -2.6902 H         1 <0>         0.0797
     13 C7          1.6329    1.7432   -2.3121 C.3       1 <0>         0.0912
     14 H4          1.7134    2.8236   -2.1925 H         1 <0>         0.0795
     15 C8          2.1595    1.0486   -1.0535 C.3       1 <0>         0.0969
     16 H5          2.1165   -0.0320   -1.1895 H         1 <0>         0.0832
     17 O3          1.3538    1.4203    0.0666 O.3       1 <0>        -0.3247
     18 C9          3.6078    1.4742   -0.8039 C.3       1 <0>         0.0912
     19 O4          4.1363    0.7398    0.3021 O.3       1 <0>        -0.5656
     20 O5          2.4019    1.3293   -3.4432 O.3       1 <0>        -0.5497
     21 O6         -0.3562    2.0605   -3.6522 O.3       1 <0>        -0.5565
     22 O7         -1.9912    1.3194   -1.4253 O.3       1 <0>        -0.5553
     23 H6         -2.2929    1.2464    3.4485 H         1 <0>         0.0809
     24 H7         -2.8560    2.6411    2.4967 H         1 <0>         0.0869
     25 H8         -4.7974    1.3928    3.3129 H         1 <0>         0.0681
     26 H9         -4.6790    1.1960    1.5478 H         1 <0>         0.0554
     27 H10        -4.9955   -0.8955    2.6572 H         1 <0>         0.3857
     28 H11        -2.4593    0.4661    0.7393 H         1 <0>         0.4061
     29 H12         4.2045    1.2713   -1.6932 H         1 <0>         0.0777
     30 H13         3.6397    2.5406   -0.5805 H         1 <0>         0.0574
     31 H14         5.0531    0.9589    0.5176 H         1 <0>         0.3847
     32 H15         2.1225    1.7313   -4.2771 H         1 <0>         0.3940
     33 H16        -1.2836    1.8647   -3.8433 H         1 <0>         0.3938
     34 H17        -2.5765    1.6105   -0.7128 H         1 <0>         0.3823
@<TRIPOS>BOND
     1    1    2 1
     2    1    4 1
     3    1   23 1
     4    1   24 1
     5    2    3 1
     6    2   25 1
     7    2   26 1
     8    3   27 1
     9    4    5 am
    10    4   28 1
    11    5    6 2
    12    5    7 1
    13    7    8 1
    14    7   17 1
    15    7    9 1
    16    9   10 1
    17    9   11 1
    18    9   22 1
    19   11   12 1
    20   11   13 1
    21   11   21 1
    22   13   14 1
    23   13   15 1
    24   13   20 1
    25   15   16 1
    26   15   17 1
    27   15   18 1
    28   18   19 1
    29   18   29 1
    30   18   30 1
    31   19   31 1
    32   20   32 1
    33   21   33 1
    34   22   34 1
@<TRIPOS>MOLECULE
ZINC04134459
   24    24     0     0     0
SMALL
USER_CHARGES

@<TRIPOS>ATOM
      1 C1          1.8980    3.7587   -0.1946 C.3       1 <0>         0.1010
      2 C2          1.7428    2.2488   -0.0025 C.3       1 <0>        -0.0405
      3 H1          2.2011    1.9487    0.9398 H         1 <0>         0.1130
      4 C3          2.4204    1.5112   -1.1612 C.3       1 <0>         0.1273
      5 H2          1.9285    1.7794   -2.0962 H         1 <0>         0.0831
      6 C4          2.3177    0.0037   -0.9489 C.3       1 <0>         0.0769
      7 H3          2.6330   -0.2378    0.0661 H         1 <0>         0.0783
      8 C5          0.8845   -0.4765   -1.1572 C.3       1 <0>         0.0864
      9 H4          0.4996   -0.0719   -2.0933 H         1 <0>         0.0907
     10 C6          0.0021   -0.0041    0.0020 C.3       1 <0>         0.1030
     11 H5         -1.0112   -0.3828   -0.1319 H         1 <0>         0.1070
     12 S1         -0.0226    1.8140    0.0120 S.3       1 <0>        -0.2425
     13 O1          0.5368   -0.4831    1.2376 O.3       1 <0>        -0.5401
     14 O2          0.8680   -1.9042   -1.2149 O.3       1 <0>        -0.5511
     15 O3          3.1760   -0.6607   -1.8784 O.3       1 <0>        -0.5576
     16 O4          3.7971    1.8889   -1.2238 O.3       1 <0>        -0.5514
     17 O5          1.4087    4.1275   -1.4855 O.3       1 <0>        -0.5630
     18 H6          1.3288    4.2830    0.5731 H         1 <0>         0.0572
     19 H7          2.9509    4.0289   -0.1143 H         1 <0>         0.0743
     20 H8          0.0328   -0.2100    2.0164 H         1 <0>         0.3897
     21 H9         -0.0114   -2.2822   -1.3524 H         1 <0>         0.3878
     22 H10         3.1797   -1.6237   -1.7912 H         1 <0>         0.3944
     23 H11         4.2890    1.4650   -1.9404 H         1 <0>         0.3918
     24 H12         1.4759    5.0731   -1.6763 H         1 <0>         0.3842
@<TRIPOS>BOND
     1    1    2 1
     2    1   17 1
     3    1   18 1
     4    1   19 1
     5    2    3 1
     6    2   12 1
     7    2    4 1
     8    4    5 1
     9    4    6 1
    10    4   16 1
    11    6    7 1
    12    6    8 1
    13    6   15 1
    14    8    9 1
    15    8   10 1
    16    8   14 1
    17   10   11 1
    18   10   12 1
    19   10   13 1
    20   13   20 1
    21   14   21 1
    22   15   22 1
    23   16   23 1
    24   17   24 1
@<TRIPOS>MOLECULE
ZINC04134460
   32    32     0     0     0
SMALL
USER_CHARGES

@<TRIPOS>ATOM
      1 C1         -0.0732    0.9087    0.0308 C.3       1 <0>         0.0031
      2 N1         -0.7461    1.4109    1.2362 N.3       1 <0>        -0.4460
      3 N2         -0.0900    1.0111    2.3656 N.am      1 <0>        -0.5834
      4 C2         -0.5542    1.3725    3.5782 C.2       1 <0>         0.5167
      5 O1         -1.5022    2.1239    3.6654 O.2       1 <0>        -0.4871
      6 C3          0.1048    0.8429    4.8257 C.3       1 <0>         0.0487
      7 H1          0.2223   -0.2377    4.7441 H         1 <0>         0.0970
      8 C4          1.4799    1.4948    4.9929 C.3       1 <0>         0.0504
      9 H2          1.3669    2.5782    5.0327 H         1 <0>         0.0874
     10 C5          2.1174    0.9971    6.2937 C.3       1 <0>         0.0862
     11 H3          2.2776   -0.0793    6.2328 H         1 <0>         0.0794
     12 C6          1.1788    1.3121    7.4626 C.3       1 <0>         0.0908
     13 H4          1.0597    2.3917    7.5534 H         1 <0>         0.0806
     14 C7         -0.1846    0.6673    7.2000 C.3       1 <0>         0.0978
     15 H5         -0.0710   -0.4156    7.1498 H         1 <0>         0.0833
     16 O2         -0.7075    1.1497    5.9607 O.3       1 <0>        -0.3240
     17 C8         -1.1462    1.0273    8.3343 C.3       1 <0>         0.0908
     18 O3         -2.3813    0.3324    8.1504 O.3       1 <0>        -0.5663
     19 O4          1.7307    0.7891    8.6725 O.3       1 <0>        -0.5499
     20 O5          3.3694    1.6560    6.4951 O.3       1 <0>        -0.5561
     21 O6          2.3133    1.1418    3.8871 O.3       1 <0>        -0.5560
     22 H6         -0.0505   -0.1808    0.0546 H         1 <0>         0.0377
     23 H7          0.9464    1.2927   -0.0029 H         1 <0>         0.0795
     24 H8         -0.6162    1.2415   -0.8538 H         1 <0>         0.0966
     25 H9         -1.7125    1.1218    1.2579 H         1 <0>         0.3483
     26 H10         0.7100    0.4671    2.2949 H         1 <0>         0.4002
     27 H11        -0.7060    0.7395    9.2890 H         1 <0>         0.0783
     28 H12        -1.3295    2.1018    8.3279 H         1 <0>         0.0583
     29 H13        -3.0401    0.5135    8.8346 H         1 <0>         0.3851
     30 H14         2.5983    1.1518    8.8981 H         1 <0>         0.3945
     31 H15         4.0113    1.5055    5.7877 H         1 <0>         0.3942
     32 H16         2.0238    1.5128    3.0423 H         1 <0>         0.3838
@<TRIPOS>BOND
     1    1    2 1
     2    1   22 1
     3    1   23 1
     4    1   24 1
     5    2    3 1
     6    2   25 1
     7    3    4 am
     8    3   26 1
     9    4    5 2
    10    4    6 1
    11    6    7 1
    12    6   16 1
    13    6    8 1
    14    8    9 1
    15    8   10 1
    16    8   21 1
    17   10   11 1
    18   10   12 1
    19   10   20 1
    20   12   13 1
    21   12   14 1
    22   12   19 1
    23   14   15 1
    24   14   16 1
    25   14   17 1
    26   17   18 1
    27   17   27 1
    28   17   28 1
    29   18   29 1
    30   19   30 1
    31   20   31 1
    32   21   32 1
@<TRIPOS>MOLECULE
ZINC04134461
   27    27     0     0     0
SMALL
USER_CHARGES

@<TRIPOS>ATOM
      1 C1         -0.1097   -0.3970   -2.4397 C.3       1 <0>         0.0417
      2 C2         -0.1283    1.1319   -2.3871 C.3       1 <0>         0.0597
      3 H1         -0.7222    1.5170   -3.2160 H         1 <0>         0.1166
      4 C3          1.3032    1.6639   -2.4941 C.3       1 <0>         0.0523
      5 H2          1.7588    1.3033   -3.4164 H         1 <0>         0.0667
      6 C4          2.1152    1.1676   -1.2939 C.3       1 <0>         0.1172
      7 C5          1.4235    1.6160   -0.0029 C.3       1 <0>         0.0896
      8 H3          1.9644    1.2201    0.8567 H         1 <0>         0.0702
      9 C6         -0.0127    1.0858    0.0080 C.3       1 <0>         0.0547
     10 H4          0.0021   -0.0041    0.0020 H         1 <0>         0.0745
     11 O1         -0.7027    1.5594   -1.1503 O.3       1 <0>        -0.3310
     12 C7         -0.7293    1.5795    1.2665 C.3       1 <0>         0.0826
     13 O2         -2.0300    0.9917    1.3355 O.3       1 <0>        -0.5594
     14 O3          1.4060    3.0435    0.0600 O.3       1 <0>        -0.5175
     15 O4          3.4324    1.7191   -1.3468 O.3       1 <0>        -0.5390
     16 O5          1.2826    3.0928   -2.4987 O.3       1 <0>        -0.5160
     17 O6         -1.4511   -0.8894   -2.4571 O.3       1 <0>        -0.5566
     18 H5          0.4088   -0.7232   -3.3413 H         1 <0>         0.0580
     19 H6          0.4082   -0.7845   -1.5624 H         1 <0>         0.0505
     20 H7          2.1743    0.0794   -1.3169 H         1 <0>         0.0811
     21 H8         -0.1544    1.2941    2.1475 H         1 <0>         0.0630
     22 H9         -0.8226    2.6648    1.2293 H         1 <0>         0.0600
     23 H10        -2.5426    1.2607    2.1101 H         1 <0>         0.3827
     24 H11         0.9778    3.3971    0.8517 H         1 <0>         0.3671
     25 H12         3.9292    1.4755   -2.1399 H         1 <0>         0.3785
     26 H13         0.7846    3.4766   -3.2334 H         1 <0>         0.3716
     27 H14        -1.5157   -1.8537   -2.4904 H         1 <0>         0.3813
@<TRIPOS>BOND
     1    1    2 1
     2    1   17 1
     3    1   18 1
     4    1   19 1
     5    2    3 1
     6    2   11 1
     7    2    4 1
     8    4    5 1
     9    4    6 1
    10    4   16 1
    11    6    7 1
    12    6   15 1
    13    6   20 1
    14    7    8 1
    15    7    9 1
    16    7   14 1
    17    9   10 1
    18    9   11 1
    19    9   12 1
    20   12   13 1
    21   12   21 1
    22   12   22 1
    23   13   23 1
    24   14   24 1
    25   15   25 1
    26   16   26 1
    27   17   27 1
@<TRIPOS>MOLECULE
ZINC04134462
   34    35     0     0     0
SMALL
USER_CHARGES

@<TRIPOS>ATOM
      1 C1          7.0645    5.1316   -3.7003 C.3       1 <0>        -0.1897
      2 C2          7.6814    3.7981   -3.2708 C.3       1 <0>        -0.1863
      3 C3          6.6060    4.4581   -2.4053 C.3       1 <0>         0.0742
      4 N1          5.2753    3.8455   -2.3959 N.am      1 <0>        -0.7046
      5 C4          4.4575    4.0266   -1.3400 C.2       1 <0>         0.5215
      6 O1          4.7891    4.7635   -0.4356 O.2       1 <0>        -0.4976
      7 C5          3.1312    3.3135   -1.2831 C.3       1 <0>         0.0424
      8 H1          2.5803    3.4961   -2.2057 H         1 <0>         0.0983
      9 C6          3.3666    1.8099   -1.1181 C.3       1 <0>         0.0515
     10 H2          3.9533    1.6297   -0.2173 H         1 <0>         0.0849
     11 C7          2.0148    1.0991   -1.0007 C.3       1 <0>         0.0861
     12 H3          1.4487    1.2378   -1.9218 H         1 <0>         0.0797
     13 C8          1.2359    1.6980    0.1745 C.3       1 <0>         0.0910
     14 H4          1.7776    1.5155    1.1026 H         1 <0>         0.0799
     15 C9          1.0827    3.2060   -0.0405 C.3       1 <0>         0.0972
     16 H5          0.5050    3.3872   -0.9469 H         1 <0>         0.0834
     17 O2          2.3754    3.8007   -0.1724 O.3       1 <0>        -0.3245
     18 C10         0.3577    3.8212    1.1582 C.3       1 <0>         0.0910
     19 O3          0.1114    5.2061    0.9064 O.3       1 <0>        -0.5659
     20 O4         -0.0564    1.0926    0.2489 O.3       1 <0>        -0.5498
     21 O5          2.2262   -0.2957   -0.7728 O.3       1 <0>        -0.5561
     22 O6          4.0721    1.3093   -2.2555 O.3       1 <0>        -0.5559
     23 H6          6.3761    5.1190   -4.5453 H         1 <0>         0.0992
     24 H7          7.6837    6.0243   -3.6115 H         1 <0>         0.1056
     25 H8          8.7061    3.8141   -2.8995 H         1 <0>         0.1074
     26 H9          7.3988    2.9080   -3.8328 H         1 <0>         0.0998
     27 H10         6.9232    4.9079   -1.4645 H         1 <0>         0.1408
     28 H11         4.9827    3.3096   -3.1496 H         1 <0>         0.4042
     29 H12        -0.5902    3.3059    1.3131 H         1 <0>         0.0780
     30 H13         0.9770    3.7185    2.0493 H         1 <0>         0.0577
     31 H14        -0.3465    5.6614    1.6262 H         1 <0>         0.3850
     32 H15        -0.0351    0.1354    0.3847 H         1 <0>         0.3943
     33 H16         2.7147   -0.7400   -1.4793 H         1 <0>         0.3941
     34 H17         4.9750    1.6455   -2.3376 H         1 <0>         0.3832
@<TRIPOS>BOND
     1    1    3 1
     2    1    2 1
     3    1   23 1
     4    1   24 1
     5    2    3 1
     6    2   25 1
     7    2   26 1
     8    3    4 1
     9    3   27 1
    10    4    5 am
    11    4   28 1
    12    5    6 2
    13    5    7 1
    14    7    8 1
    15    7   17 1
    16    7    9 1
    17    9   10 1
    18    9   11 1
    19    9   22 1
    20   11   12 1
    21   11   13 1
    22   11   21 1
    23   13   14 1
    24   13   15 1
    25   13   20 1
    26   15   16 1
    27   15   17 1
    28   15   18 1
    29   18   19 1
    30   18   29 1
    31   18   30 1
    32   19   31 1
    33   20   32 1
    34   21   33 1
    35   22   34 1
@<TRIPOS>MOLECULE
ZINC04134463
   37    37     0     0     0
SMALL
USER_CHARGES

@<TRIPOS>ATOM
      1 C1          4.8296    0.5460   -0.0411 C.3       1 <0>        -0.1704
      2 C2          3.6710    1.5096   -0.0249 C.2       1 <0>         0.5154
      3 O1          3.8764    2.7048   -0.0204 O.2       1 <0>        -0.5468
      4 N1          2.4066    1.0431   -0.0153 N.am      1 <0>        -0.7219
      5 C3          1.2803    1.9798    0.0005 C.3       1 <0>         0.1000
      6 C4         -0.0144    1.2086    0.0087 C.2       1 <0>         0.5204
      7 O2          0.0021   -0.0041    0.0020 O.2       1 <0>        -0.5179
      8 N2         -1.1906    1.8666    0.0178 N.am      1 <0>        -0.7132
      9 C5         -2.4492    1.1169    0.0197 C.3       1 <0>         0.2807
     10 H1         -2.2828    0.1282    0.4475 H         1 <0>         0.1026
     11 C6         -3.4889    1.8669    0.8566 C.3       1 <0>         0.0420
     12 H2         -3.6259    2.8703    0.4535 H         1 <0>         0.0822
     13 C7         -4.8186    1.1083    0.8043 C.3       1 <0>         0.0852
     14 H3         -4.6939    0.1226    1.2526 H         1 <0>         0.0795
     15 C8         -5.2496    0.9555   -0.6576 C.3       1 <0>         0.0913
     16 H4         -5.4232    1.9404   -1.0910 H         1 <0>         0.0791
     17 C9         -4.1419    0.2407   -1.4360 C.3       1 <0>         0.1087
     18 H5         -3.9979   -0.7595   -1.0275 H         1 <0>         0.0835
     19 O3         -2.9258    0.9824   -1.3207 O.3       1 <0>        -0.3699
     20 C10        -4.5390    0.1377   -2.9100 C.3       1 <0>         0.0906
     21 O4         -3.5611   -0.6304   -3.6141 O.3       1 <0>        -0.5654
     22 O5         -6.4520    0.1862   -0.7231 O.3       1 <0>        -0.5494
     23 O6         -5.8146    1.8393    1.5224 O.3       1 <0>        -0.5562
     24 O7         -3.0399    1.9533    2.2105 O.3       1 <0>        -0.5507
     25 H6          4.4518   -0.4765   -0.0430 H         1 <0>         0.0785
     26 H7          5.4290    0.7135   -0.9360 H         1 <0>         0.0984
     27 H8          5.4460    0.7039    0.8439 H         1 <0>         0.0983
     28 H9          2.2423    0.0871   -0.0189 H         1 <0>         0.4139
     29 H10         1.3211    2.6120   -0.8866 H         1 <0>         0.1045
     30 H11         1.3381    2.6024    0.8933 H         1 <0>         0.1037
     31 H12        -1.2037    2.8365    0.0232 H         1 <0>         0.4086
     32 H13        -5.5108   -0.3492   -2.9912 H         1 <0>         0.0779
     33 H14        -4.5959    1.1369   -3.3416 H         1 <0>         0.0558
     34 H15        -3.7488   -0.7370   -4.5567 H         1 <0>         0.3843
     35 H16        -7.1963    0.5783   -0.2462 H         1 <0>         0.3948
     36 H17        -5.6033    1.9794    2.4556 H         1 <0>         0.3950
     37 H18        -2.1990    2.4187    2.3170 H         1 <0>         0.3869
@<TRIPOS>BOND
     1    1    2 1
     2    1   25 1
     3    1   26 1
     4    1   27 1
     5    2    3 2
     6    2    4 am
     7    4    5 1
     8    4   28 1
     9    5    6 1
    10    5   29 1
    11    5   30 1
    12    6    7 2
    13    6    8 am
    14    8    9 1
    15    8   31 1
    16    9   10 1
    17    9   19 1
    18    9   11 1
    19   11   12 1
    20   11   13 1
    21   11   24 1
    22   13   14 1
    23   13   15 1
    24   13   23 1
    25   15   16 1
    26   15   17 1
    27   15   22 1
    28   17   18 1
    29   17   19 1
    30   17   20 1
    31   20   21 1
    32   20   32 1
    33   20   33 1
    34   21   34 1
    35   22   35 1
    36   23   36 1
    37   24   37 1
@<TRIPOS>MOLECULE
ZINC04134464
   27    27     0     0     0
SMALL
USER_CHARGES

@<TRIPOS>ATOM
      1 C1         -4.8577    3.7071   -0.3234 C.3       1 <0>         0.0936
      2 C2         -3.6835    2.8006   -0.6981 C.3       1 <0>         0.0731
      3 H1         -2.7629    3.3840   -0.7090 H         1 <0>         0.1183
      4 C3         -3.9243    2.2009   -2.0860 C.3       1 <0>         0.0929
      5 H2         -4.8655    1.6511   -2.0869 H         1 <0>         0.0754
      6 C4         -2.7746    1.2484   -2.4285 C.3       1 <0>         0.0806
      7 H3         -1.8395    1.8062   -2.4774 H         1 <0>         0.0741
      8 C5         -2.6745    0.1746   -1.3406 C.3       1 <0>         0.0515
      9 H4         -3.5904   -0.4161   -1.3265 H         1 <0>         0.0929
     10 C6         -2.4820    0.8526    0.0185 C.3       1 <0>         0.0385
     11 H5         -2.4528    0.0951    0.8017 H         1 <0>         0.1384
     12 O1         -3.5694    1.7476    0.2611 O.3       1 <0>        -0.3256
     13 C7         -1.1873    1.6238    0.0165 C.2       1 <0>         0.4919
     14 O2         -1.1967    2.8250    0.1835 O.2       1 <0>        -0.5201
     15 N1         -0.0189    0.9786   -0.1708 N.am      1 <0>        -0.8405
     16 O3         -1.5603   -0.6783   -1.6108 O.3       1 <0>        -0.5537
     17 O4         -3.0278    0.6279   -3.6906 O.3       1 <0>        -0.5566
     18 O5         -3.9820    3.2481   -3.0566 O.3       1 <0>        -0.5487
     19 O6         -4.5801    4.3572    0.9186 O.3       1 <0>        -0.5614
     20 H6         -5.0009    4.4566   -1.1017 H         1 <0>         0.0743
     21 H7         -5.7627    3.1076   -0.2253 H         1 <0>         0.0517
     22 H8         -0.0114    0.0178   -0.3044 H         1 <0>         0.4023
     23 H9          0.8141    1.4755   -0.1761 H         1 <0>         0.4032
     24 H10        -1.4347   -1.3801   -0.9576 H         1 <0>         0.3882
     25 H11        -2.3416    0.0053   -3.9675 H         1 <0>         0.3926
     26 H12        -4.1284    2.9385   -3.9609 H         1 <0>         0.3920
     27 H13        -5.2834    4.9492    1.2185 H         1 <0>         0.3809
@<TRIPOS>BOND
     1    1    2 1
     2    1   19 1
     3    1   20 1
     4    1   21 1
     5    2    3 1
     6    2   12 1
     7    2    4 1
     8    4    5 1
     9    4    6 1
    10    4   18 1
    11    6    7 1
    12    6    8 1
    13    6   17 1
    14    8    9 1
    15    8   10 1
    16    8   16 1
    17   10   11 1
    18   10   12 1
    19   10   13 1
    20   13   14 2
    21   13   15 am
    22   15   22 1
    23   15   23 1
    24   16   24 1
    25   17   25 1
    26   18   26 1
    27   19   27 1
@<TRIPOS>MOLECULE
ZINC04134465
   22    22     0     0     0
SMALL
USER_CHARGES

@<TRIPOS>ATOM
      1 C1          2.9643   -0.3154   -2.4361 C.3       1 <0>         0.0917
      2 C2          2.1942    0.1136   -1.1856 C.3       1 <0>         0.0882
      3 H1          2.7172   -0.2406   -0.2973 H         1 <0>         0.0919
      4 C3          0.7862   -0.4864   -1.2223 C.3       1 <0>         0.0952
      5 H2          0.2763   -0.1660   -2.1308 H         1 <0>         0.0821
      6 C4          0.0021   -0.0041    0.0020 C.3       1 <0>         0.0464
      7 H3          0.4838   -0.3672    0.9098 H         1 <0>         0.0881
      8 C5         -0.0187    1.5275    0.0104 C.3       1 <0>         0.0095
      9 H4         -0.5443    1.8896   -0.8732 H         1 <0>         0.1233
     10 C6          1.4204    2.0497   -0.0005 C.3       1 <0>         0.2329
     11 H5          1.4115    3.1390   -0.0377 H         1 <0>         0.1470
     12 O1          2.1023    1.5392   -1.1479 O.3       1 <0>        -0.3499
     13 F1          2.0787    1.6277    1.1596 F         1 <0>        -0.2024
     14 F2         -0.6714    1.9799    1.1622 F         1 <0>        -0.1893
     15 O2         -1.3366   -0.5000   -0.0619 O.3       1 <0>        -0.5529
     16 O3          0.8741   -1.9125   -1.2016 O.3       1 <0>        -0.5479
     17 O4          4.3135    0.1470   -2.3466 O.3       1 <0>        -0.5661
     18 H6          2.9572   -1.4027   -2.5121 H         1 <0>         0.0789
     19 H7          2.4911    0.1137   -3.3193 H         1 <0>         0.0581
     20 H8         -1.8931   -0.2269    0.6803 H         1 <0>         0.3937
     21 H9          0.0169   -2.3597   -1.2181 H         1 <0>         0.3955
     22 H10         4.8616   -0.0895   -3.1073 H         1 <0>         0.3859
@<TRIPOS>BOND
     1    1    2 1
     2    1   17 1
     3    1   18 1
     4    1   19 1
     5    2    3 1
     6    2   12 1
     7    2    4 1
     8    4    5 1
     9    4    6 1
    10    4   16 1
    11    6    7 1
    12    6    8 1
    13    6   15 1
    14    8    9 1
    15    8   10 1
    16    8   14 1
    17   10   11 1
    18   10   12 1
    19   10   13 1
    20   15   20 1
    21   16   21 1
    22   17   22 1
@<TRIPOS>MOLECULE
ZINC04134466
   30    30     0     0     0
SMALL
USER_CHARGES

@<TRIPOS>ATOM
      1 C1         -0.8166    1.6145   -3.6538 C.3       1 <0>         0.0844
      2 N1         -0.1831    1.1149   -2.4310 N.am      1 <0>        -0.7368
      3 C2         -0.6685    1.4734   -1.2258 C.2       1 <0>         0.5152
      4 O1         -1.6784    2.1409   -1.1529 O.2       1 <0>        -0.4997
      5 C3          0.0437    1.0446    0.0312 C.3       1 <0>         0.0411
      6 H1          0.2029   -0.0335    0.0090 H         1 <0>         0.0978
      7 C4          1.3950    1.7585    0.1211 C.3       1 <0>         0.0515
      8 H2          1.2392    2.8371    0.1014 H         1 <0>         0.0842
      9 C5          2.0861    1.3637    1.4299 C.3       1 <0>         0.0858
     10 H3          2.2869    0.2924    1.4275 H         1 <0>         0.0797
     11 C6          1.1663    1.7100    2.6048 C.3       1 <0>         0.0910
     12 H4          1.0067    2.7878    2.6370 H         1 <0>         0.0796
     13 C7         -0.1761    0.9980    2.4189 C.3       1 <0>         0.0972
     14 H5         -0.0198   -0.0807    2.4282 H         1 <0>         0.0833
     15 O2         -0.7504    1.3858    1.1691 O.3       1 <0>        -0.3251
     16 C8         -1.1216    1.3865    3.5573 C.3       1 <0>         0.0909
     17 O3         -2.3317    0.6341    3.4492 O.3       1 <0>        -0.5659
     18 O4          1.7698    1.2800    3.8266 O.3       1 <0>        -0.5499
     19 O5          3.3150    2.0818    1.5570 O.3       1 <0>        -0.5565
     20 O6          2.2129    1.3738   -0.9857 O.3       1 <0>        -0.5559
     21 H6         -1.8571    1.2911   -3.6822 H         1 <0>         0.0651
     22 H7         -0.7742    2.7036   -3.6662 H         1 <0>         0.0639
     23 H8         -0.2898    1.2205   -4.5230 H         1 <0>         0.0824
     24 H9          0.5856    0.5262   -2.4887 H         1 <0>         0.4048
     25 H10        -0.6453    1.1728    4.5142 H         1 <0>         0.0779
     26 H11        -1.3486    2.4507    3.4941 H         1 <0>         0.0576
     27 H12        -2.9793    0.8294    4.1402 H         1 <0>         0.3849
     28 H13         2.6278    1.6882    4.0065 H         1 <0>         0.3942
     29 H14         3.9438    1.9151    0.8415 H         1 <0>         0.3941
     30 H15         1.8830    1.6770   -1.8427 H         1 <0>         0.3834
@<TRIPOS>BOND
     1    1    2 1
     2    1   21 1
     3    1   22 1
     4    1   23 1
     5    2    3 am
     6    2   24 1
     7    3    4 2
     8    3    5 1
     9    5    6 1
    10    5   15 1
    11    5    7 1
    12    7    8 1
    13    7    9 1
    14    7   20 1
    15    9   10 1
    16    9   11 1
    17    9   19 1
    18   11   12 1
    19   11   13 1
    20   11   18 1
    21   13   14 1
    22   13   15 1
    23   13   16 1
    24   16   17 1
    25   16   25 1
    26   16   26 1
    27   17   27 1
    28   18   28 1
    29   19   29 1
    30   20   30 1
@<TRIPOS>MOLECULE
ZINC04134467
   36    36     0     0     0
SMALL
USER_CHARGES

@<TRIPOS>ATOM
      1 C1          8.4836    0.4765    4.6805 C.3       1 <0>        -0.1537
      2 C2          7.7271    0.8631    3.4080 C.3       1 <0>        -0.1116
      3 C3          6.2297    0.9466    3.7104 C.3       1 <0>        -0.1390
      4 C4          5.4845    1.3273    2.4570 C.2       1 <0>         0.5200
      5 O1          6.0915    1.5135    1.4237 O.2       1 <0>        -0.5213
      6 N1          4.1437    1.4608    2.4845 N.am      1 <0>        -0.7205
      7 C5          3.4194    1.8309    1.2660 C.3       1 <0>         0.2790
      8 H1          3.9996    1.5317    0.3932 H         1 <0>         0.1002
      9 C6          2.0620    1.1233    1.2442 C.3       1 <0>         0.0427
     10 H2          1.4974    1.3906    2.1374 H         1 <0>         0.0805
     11 C7          1.2864    1.5618   -0.0018 C.3       1 <0>         0.0847
     12 H3          1.8253    1.2506   -0.8967 H         1 <0>         0.0791
     13 C8          1.1466    3.0871    0.0077 C.3       1 <0>         0.0918
     14 H4          0.5626    3.3940    0.8754 H         1 <0>         0.0784
     15 C9          2.5394    3.7189    0.0773 C.3       1 <0>         0.1082
     16 H5          3.1078    3.4445   -0.8113 H         1 <0>         0.0827
     17 O2          3.2180    3.2455    1.2424 O.3       1 <0>        -0.3707
     18 C10         2.4060    5.2415    0.1478 C.3       1 <0>         0.0909
     19 O3          3.7043    5.8362    0.0954 O.3       1 <0>        -0.5649
     20 O4          0.4879    3.5138   -1.1865 O.3       1 <0>        -0.5496
     21 O5         -0.0110    0.9628    0.0073 O.3       1 <0>        -0.5569
     22 O6          2.2614   -0.2913    1.2093 O.3       1 <0>        -0.5513
     23 H6          8.3096    1.2292    5.4494 H         1 <0>         0.0553
     24 H7          8.1297   -0.4921    5.0335 H         1 <0>         0.0551
     25 H8          9.5505    0.4171    4.4650 H         1 <0>         0.0598
     26 H9          7.9011    0.1104    2.6390 H         1 <0>         0.0704
     27 H10         8.0811    1.8317    3.0550 H         1 <0>         0.0707
     28 H11         6.0557    1.6993    4.4793 H         1 <0>         0.0975
     29 H12         5.8757   -0.0221    4.0634 H         1 <0>         0.0968
     30 H13         3.6583    1.3119    3.3109 H         1 <0>         0.4044
     31 H14         1.8108    5.5934   -0.6948 H         1 <0>         0.0772
     32 H15         1.9160    5.5205    1.0806 H         1 <0>         0.0552
     33 H16         3.6962    6.8024    0.1355 H         1 <0>         0.3837
     34 H17        -0.3999    3.1471   -1.2984 H         1 <0>         0.3942
     35 H18         0.0021   -0.0041    0.0020 H         1 <0>         0.3945
     36 H19         2.7472   -0.6389    1.9698 H         1 <0>         0.3865
@<TRIPOS>BOND
     1    1    2 1
     2    1   23 1
     3    1   24 1
     4    1   25 1
     5    2    3 1
     6    2   26 1
     7    2   27 1
     8    3    4 1
     9    3   28 1
    10    3   29 1
    11    4    5 2
    12    4    6 am
    13    6    7 1
    14    6   30 1
    15    7    8 1
    16    7   17 1
    17    7    9 1
    18    9   10 1
    19    9   11 1
    20    9   22 1
    21   11   12 1
    22   11   13 1
    23   11   21 1
    24   13   14 1
    25   13   15 1
    26   13   20 1
    27   15   16 1
    28   15   17 1
    29   15   18 1
    30   18   19 1
    31   18   31 1
    32   18   32 1
    33   19   33 1
    34   20   34 1
    35   21   35 1
    36   22   36 1
@<TRIPOS>MOLECULE
ZINC04134468
   31    31     0     0     0
SMALL
USER_CHARGES

@<TRIPOS>ATOM
      1 C1         -5.9904    2.7050   -3.7266 C.3       1 <0>         0.0552
      2 O1         -5.2560    1.4527   -3.7539 O.3       1 <0>        -0.3682
      3 C2         -4.7238    1.0307   -2.5914 C.2       1 <0>         0.6555
      4 O2         -4.8691    1.6908   -1.5816 O.2       1 <0>        -0.5554
      5 N1         -4.0299   -0.1239   -2.5477 N.am      1 <0>        -0.6955
      6 C3         -3.4509   -0.5831   -1.2828 C.3       1 <0>         0.2980
      7 H1         -4.0144   -0.1611   -0.4507 H         1 <0>         0.1057
      8 C4         -3.5121   -2.1114   -1.2183 C.3       1 <0>         0.0431
      9 H2         -2.9830   -2.5335   -2.0727 H         1 <0>         0.0839
     10 C5         -2.8509   -2.5868    0.0790 C.3       1 <0>         0.0858
     11 H3         -3.4102   -2.2066    0.9339 H         1 <0>         0.0808
     12 C6         -1.4135   -2.0600    0.1297 C.3       1 <0>         0.0911
     13 H4         -0.8419   -2.4812   -0.6973 H         1 <0>         0.0799
     14 C7         -1.4333   -0.5336    0.0129 C.3       1 <0>         0.1085
     15 H5         -1.9703   -0.1110    0.8621 H         1 <0>         0.0847
     16 O3         -2.0889   -0.1583   -1.2001 O.3       1 <0>        -0.3715
     17 C8          0.0021   -0.0041    0.0020 C.3       1 <0>         0.0907
     18 O4         -0.0173    1.4248    0.0099 O.3       1 <0>        -0.5651
     19 O5         -0.8101   -2.4362    1.3693 O.3       1 <0>        -0.5489
     20 O6         -2.8379   -4.0154    0.1134 O.3       1 <0>        -0.5557
     21 O7         -4.8763   -2.5361   -1.2425 O.3       1 <0>        -0.5506
     22 H6         -6.8283    2.6198   -3.0347 H         1 <0>         0.0664
     23 H7         -5.3289    3.5071   -3.3990 H         1 <0>         0.0666
     24 H8         -6.3652    2.9283   -4.7254 H         1 <0>         0.1071
     25 H9         -3.9140   -0.6508   -3.3538 H         1 <0>         0.4112
     26 H10         0.5123   -0.3556   -0.8948 H         1 <0>         0.0560
     27 H11         0.5293   -0.3651    0.8851 H         1 <0>         0.0782
     28 H12         0.8606    1.8301    0.0037 H         1 <0>         0.3842
     29 H13        -0.7642   -3.3918    1.5103 H         1 <0>         0.3948
     30 H14        -3.7166   -4.4177    0.0776 H         1 <0>         0.3952
     31 H15        -5.3587   -2.2649   -2.0355 H         1 <0>         0.3884
@<TRIPOS>BOND
     1    1    2 1
     2    1   22 1
     3    1   23 1
     4    1   24 1
     5    2    3 1
     6    3    4 2
     7    3    5 am
     8    5    6 1
     9    5   25 1
    10    6    7 1
    11    6   16 1
    12    6    8 1
    13    8    9 1
    14    8   10 1
    15    8   21 1
    16   10   11 1
    17   10   12 1
    18   10   20 1
    19   12   13 1
    20   12   14 1
    21   12   19 1
    22   14   15 1
    23   14   16 1
    24   14   17 1
    25   17   18 1
    26   17   26 1
    27   17   27 1
    28   18   28 1
    29   19   29 1
    30   20   30 1
    31   21   31 1
@<TRIPOS>MOLECULE
ZINC04134469
   33    33     0     0     0
SMALL
USER_CHARGES

@<TRIPOS>ATOM
      1 C1          5.1019    5.3008   -2.3783 C.3       1 <0>        -0.1402
      2 C2          5.0680    3.9825   -1.6024 C.3       1 <0>        -0.1422
      3 C3          3.6863    3.3864   -1.6850 C.2       1 <0>         0.5190
      4 O1          2.8146    3.9596   -2.3034 O.2       1 <0>        -0.5213
      5 N1          3.4195    2.2164   -1.0715 N.am      1 <0>        -0.7206
      6 C4          2.0763    1.6370   -1.1517 C.3       1 <0>         0.2789
      7 H1          1.5770    1.9997   -2.0502 H         1 <0>         0.1002
      8 C5          2.1813    0.1106   -1.2068 C.3       1 <0>         0.0427
      9 H2          2.7164   -0.2496   -0.3283 H         1 <0>         0.0803
     10 C6          0.7722   -0.4897   -1.2298 C.3       1 <0>         0.0848
     11 H3          0.2540   -0.1692   -2.1336 H         1 <0>         0.0790
     12 C7          0.0021   -0.0041    0.0020 C.3       1 <0>         0.0919
     13 H4          0.4922   -0.3667    0.9055 H         1 <0>         0.0784
     14 C8         -0.0187    1.5267    0.0104 C.3       1 <0>         0.1080
     15 H5         -0.5456    1.8879   -0.8727 H         1 <0>         0.0827
     16 O2          1.3225    2.0200    0.0003 O.3       1 <0>        -0.3707
     17 C9         -0.7344    2.0203    1.2694 C.3       1 <0>         0.0909
     18 O3         -0.8567    3.4433    1.2208 O.3       1 <0>        -0.5649
     19 O4         -1.3374   -0.4996   -0.0463 O.3       1 <0>        -0.5496
     20 O5          0.8580   -1.9160   -1.2083 O.3       1 <0>        -0.5568
     21 O6          2.8854   -0.2785   -2.3878 O.3       1 <0>        -0.5513
     22 H6          4.3804    5.9948   -1.9471 H         1 <0>         0.0632
     23 H7          6.1012    5.7319   -2.3186 H         1 <0>         0.0648
     24 H8          4.8481    5.1148   -3.4219 H         1 <0>         0.0629
     25 H9          5.3217    4.1685   -0.5588 H         1 <0>         0.0973
     26 H10         5.7895    3.2885   -2.0336 H         1 <0>         0.0965
     27 H11         4.1167    1.7581   -0.5769 H         1 <0>         0.4044
     28 H12        -1.7265    1.5720    1.3227 H         1 <0>         0.0773
     29 H13        -0.1589    1.7350    2.1500 H         1 <0>         0.0552
     30 H14        -1.3019    3.8262    1.9890 H         1 <0>         0.3837
     31 H15        -1.3998   -1.4645   -0.0541 H         1 <0>         0.3943
     32 H16         1.3341   -2.2928   -1.9609 H         1 <0>         0.3945
     33 H17         3.7871    0.0671   -2.4400 H         1 <0>         0.3865
@<TRIPOS>BOND
     1    1    2 1
     2    1   22 1
     3    1   23 1
     4    1   24 1
     5    2    3 1
     6    2   25 1
     7    2   26 1
     8    3    4 2
     9    3    5 am
    10    5    6 1
    11    5   27 1
    12    6    7 1
    13    6   16 1
    14    6    8 1
    15    8    9 1
    16    8   10 1
    17    8   21 1
    18   10   11 1
    19   10   12 1
    20   10   20 1
    21   12   13 1
    22   12   14 1
    23   12   19 1
    24   14   15 1
    25   14   16 1
    26   14   17 1
    27   17   18 1
    28   17   28 1
    29   17   29 1
    30   18   30 1
    31   19   31 1
    32   20   32 1
    33   21   33 1
@<TRIPOS>MOLECULE
ZINC04134470
   30    30     0     0     0
SMALL
USER_CHARGES

@<TRIPOS>ATOM
      1 C1         -1.2145    3.6256    0.0275 C.3       1 <0>        -0.1700
      2 C2         -1.1940    2.1187    0.0192 C.2       1 <0>         0.5190
      3 O1         -2.2360    1.4981    0.0208 O.2       1 <0>        -0.5291
      4 N1         -0.0178    1.4608    0.0101 N.am      1 <0>        -0.7188
      5 C3          0.0021   -0.0041    0.0020 C.3       1 <0>         0.2775
      6 H1         -0.9282   -0.3779   -0.4258 H         1 <0>         0.1004
      7 C4          1.1840   -0.4940   -0.8386 C.3       1 <0>         0.0427
      8 H2          2.1114   -0.0873   -0.4351 H         1 <0>         0.0806
      9 C5          1.2335   -2.0243   -0.7928 C.3       1 <0>         0.0847
     10 H3          0.3277   -2.4320   -1.2415 H         1 <0>         0.0791
     11 C6          1.3310   -2.4776    0.6671 C.3       1 <0>         0.0919
     12 H4          2.2613   -2.1110    1.1010 H         1 <0>         0.0785
     13 C7          0.1433   -1.9110    1.4496 C.3       1 <0>         0.1079
     14 H5         -0.7850   -2.3099    1.0408 H         1 <0>         0.0828
     15 O2          0.1388   -0.4862    1.3403 O.3       1 <0>        -0.3705
     16 C8          0.2654   -2.3095    2.9217 C.3       1 <0>         0.0909
     17 O3         -0.8992   -1.8799    3.6296 O.3       1 <0>        -0.5650
     18 O4          1.3048   -3.9051    0.7267 O.3       1 <0>        -0.5495
     19 O5          2.3757   -2.4892   -1.5150 O.3       1 <0>        -0.5568
     20 O6          1.0201   -0.0618   -2.1907 O.3       1 <0>        -0.5514
     21 H6         -0.1918    4.0028    0.0247 H         1 <0>         0.0784
     22 H7         -1.7374    3.9867   -0.8580 H         1 <0>         0.0996
     23 H8         -1.7289    3.9770    0.9219 H         1 <0>         0.1004
     24 H9          0.8156    1.9572    0.0048 H         1 <0>         0.4048
     25 H10         0.3583   -3.3928    2.9984 H         1 <0>         0.0773
     26 H11         1.1479   -1.8377    3.3538 H         1 <0>         0.0553
     27 H12        -0.8904   -2.0996    4.5713 H         1 <0>         0.3838
     28 H13         2.0305   -4.3320    0.2510 H         1 <0>         0.3943
     29 H14         2.3797   -2.2377   -2.4487 H         1 <0>         0.3945
     30 H15         0.9758    0.8987   -2.2940 H         1 <0>         0.3866
@<TRIPOS>BOND
     1    1    2 1
     2    1   21 1
     3    1   22 1
     4    1   23 1
     5    2    3 2
     6    2    4 am
     7    4    5 1
     8    4   24 1
     9    5    6 1
    10    5   15 1
    11    5    7 1
    12    7    8 1
    13    7    9 1
    14    7   20 1
    15    9   10 1
    16    9   11 1
    17    9   19 1
    18   11   12 1
    19   11   13 1
    20   11   18 1
    21   13   14 1
    22   13   15 1
    23   13   16 1
    24   16   17 1
    25   16   25 1
    26   16   26 1
    27   17   27 1
    28   18   28 1
    29   19   29 1
    30   20   30 1
@<TRIPOS>MOLECULE
ZINC04134471
   35    35     0     0     0
SMALL
USER_CHARGES

@<TRIPOS>ATOM
      1 C1         -2.2215   -1.2508   -1.8204 C.3       1 <0>         0.0557
      2 O1         -1.7815   -0.3529   -0.7676 O.3       1 <0>        -0.3676
      3 C2         -0.5479    0.1728   -0.8885 C.2       1 <0>         0.6439
      4 O2          0.1422   -0.1111   -1.8475 O.2       1 <0>        -0.5297
      5 N1         -0.0784    1.0138    0.0542 N.am      1 <0>        -0.6835
      6 C3          1.2186    1.6697   -0.1297 C.3       1 <0>         0.3615
      7 C4          1.4305    2.7022    0.9806 C.3       1 <0>         0.0932
      8 H1          1.3680    2.2110    1.9516 H         1 <0>         0.0975
      9 C5          2.8133    3.3404    0.8164 C.3       1 <0>         0.0860
     10 H2          2.8583    3.8739   -0.1330 H         1 <0>         0.0794
     11 C6          3.8775    2.2389    0.8362 C.3       1 <0>         0.0455
     12 H3          3.8655    1.7381    1.8043 H         1 <0>         0.0810
     13 C7          3.5711    1.2243   -0.2685 C.3       1 <0>         0.0446
     14 H4          3.6231    1.7171   -1.2393 H         1 <0>         0.1185
     15 O3          2.2592    0.6919   -0.0742 O.3       1 <0>        -0.3327
     16 C8          4.5955    0.0890   -0.2170 C.3       1 <0>         0.0873
     17 O4          4.3811   -0.7964   -1.3180 O.3       1 <0>        -0.5501
     18 O5          5.1658    2.8155    0.6127 O.3       1 <0>        -0.5528
     19 O6          3.0486    4.2541    1.8897 O.3       1 <0>        -0.5541
     20 O7          0.4244    3.7130    0.8911 O.3       1 <0>        -0.5493
     21 C9          1.2477    2.3591   -1.4694 C.2       1 <0>         0.5004
     22 O8          2.0613    2.0265   -2.3051 O.2       1 <0>        -0.5034
     23 N2          0.3696    3.3454   -1.7389 N.am      1 <0>        -0.8327
     24 H5         -2.2207   -0.7215   -2.7733 H         1 <0>         0.0650
     25 H6         -1.5443   -2.1031   -1.8777 H         1 <0>         0.0664
     26 H7         -3.2297   -1.6020   -1.6007 H         1 <0>         0.1067
     27 H8         -0.5974    1.1817    0.8562 H         1 <0>         0.4208
     28 H9          5.6015    0.5045   -0.2755 H         1 <0>         0.0638
     29 H10         4.4829   -0.4599    0.7179 H         1 <0>         0.0556
     30 H11         4.9963   -1.5418   -1.3489 H         1 <0>         0.3808
     31 H12         5.8892    2.1738    0.6123 H         1 <0>         0.3880
     32 H13         3.9079    4.6956    1.8492 H         1 <0>         0.3982
     33 H14         0.4977    4.4018    1.5658 H         1 <0>         0.4033
     34 H15        -0.3254    3.5644   -1.0986 H         1 <0>         0.4098
     35 H16         0.4326    3.8363   -2.5732 H         1 <0>         0.4032
@<TRIPOS>BOND
     1    1    2 1
     2    1   24 1
     3    1   25 1
     4    1   26 1
     5    2    3 1
     6    3    4 2
     7    3    5 am
     8    5    6 1
     9    5   27 1
    10    6   15 1
    11    6    7 1
    12    6   21 1
    13    7    8 1
    14    7    9 1
    15    7   20 1
    16    9   10 1
    17    9   11 1
    18    9   19 1
    19   11   12 1
    20   11   13 1
    21   11   18 1
    22   13   14 1
    23   13   15 1
    24   13   16 1
    25   16   17 1
    26   16   28 1
    27   16   29 1
    28   17   30 1
    29   18   31 1
    30   19   32 1
    31   20   33 1
    32   21   22 2
    33   21   23 am
    34   23   34 1
    35   23   35 1
@<TRIPOS>MOLECULE
ZINC04642453
   28    28     0     0     0
SMALL
USER_CHARGES

@<TRIPOS>ATOM
      1 C1         -1.4332   -0.5337   -0.0158 C.3       1 <0>         0.1288
      2 C2          0.0021   -0.0041    0.0020 C.3       1 <0>         0.0960
      3 H1          0.5305   -0.3556   -0.8842 H         1 <0>         0.0975
      4 C3          0.7175   -0.5102    1.2573 C.3       1 <0>         0.0912
      5 H2          0.1664   -0.1941    2.1430 H         1 <0>         0.0790
      6 C4          2.1334    0.0727    1.2986 C.3       1 <0>         0.0848
      7 H3          2.6999   -0.2842    0.4385 H         1 <0>         0.0856
      8 C5          2.0458    1.6014    1.2560 C.3       1 <0>         0.0578
      9 H4          1.5232    1.9612    2.1423 H         1 <0>         0.0895
     10 C6          1.2791    2.0260    0.0007 C.3       1 <0>         0.2266
     11 H5          1.1765    3.1110   -0.0129 H         1 <0>         0.1102
     12 O1         -0.0173    1.4248    0.0099 O.3       1 <0>        -0.3742
     13 O2          1.9937    1.6000   -1.1611 O.3       1 <0>        -0.5642
     14 O3          3.3630    2.1544    1.2209 O.3       1 <0>        -0.5486
     15 O4          2.7834   -0.3354    2.5040 O.3       1 <0>        -0.5615
     16 O5          0.7892   -1.9370    1.2235 O.3       1 <0>        -0.5516
     17 O6         -2.0645   -0.1576   -1.2414 O.3       1 <0>        -0.7305
     18 P1         -3.5845   -0.5482   -1.6007 P.3       1 <0>         2.3107
     19 O7         -3.6526   -1.9809   -1.9655 O.2       1 <0>        -0.7217
     20 O8         -4.4494   -0.2965   -0.4264 O.2       1 <0>        -0.7423
     21 O9         -4.0896    0.3459   -2.8407 O.3       1 <0>        -0.8609
     22 H6         -1.4205   -1.6204    0.0677 H         1 <0>         0.1009
     23 H7         -1.9869   -0.1113    0.8227 H         1 <0>         0.0862
     24 H8          1.5644    1.8350   -1.9951 H         1 <0>         0.3901
     25 H9          3.3832    3.1208    1.1928 H         1 <0>         0.3874
     26 H10         3.6861   -0.0014    2.5966 H         1 <0>         0.3945
     27 H11         1.2313   -2.3269    1.9901 H         1 <0>         0.3967
     28 H12        -4.9996    0.1635   -3.1122 H         1 <0>         0.4420
@<TRIPOS>BOND
     1    1    2 1
     2    1   17 1
     3    1   22 1
     4    1   23 1
     5    2    3 1
     6    2   12 1
     7    2    4 1
     8    4    5 1
     9    4    6 1
    10    4   16 1
    11    6    7 1
    12    6    8 1
    13    6   15 1
    14    8    9 1
    15    8   10 1
    16    8   14 1
    17   10   11 1
    18   10   12 1
    19   10   13 1
    20   13   24 1
    21   14   25 1
    22   15   26 1
    23   16   27 1
    24   17   18 1
    25   18   19 2
    26   18   20 2
    27   18   21 1
    28   21   28 1
@<TRIPOS>MOLECULE
ZINC04642454
   27    27     0     0     0
SMALL
USER_CHARGES

@<TRIPOS>ATOM
      1 C1         -0.7536    1.5932   -1.2319 C.3       1 <0>        -0.1741
      2 C2         -0.8226    3.1227   -1.1856 C.3       1 <0>         0.0760
      3 H1          0.1860    3.5345   -1.2216 H         1 <0>         0.0788
      4 C3         -1.5056    3.5529    0.1163 C.3       1 <0>         0.0883
      5 H2         -2.5310    3.1835    0.1290 H         1 <0>         0.0761
      6 C4         -0.7356    2.9698    1.3041 C.3       1 <0>         0.0994
      7 H3          0.2774    3.3721    1.3134 H         1 <0>         0.0945
      8 O1         -0.6820    1.5469    1.1834 O.3       1 <0>        -0.3785
      9 C5         -0.0127    1.0858    0.0080 C.3       1 <0>         0.2571
     10 H4          0.0021   -0.0041    0.0020 H         1 <0>         0.1112
     11 O2          1.3278    1.5807   -0.0021 O.3       1 <0>        -0.5769
     12 C6         -1.4457    3.3453    2.6063 C.3       1 <0>         0.1281
     13 O3         -0.6664    2.9016    3.7189 O.3       1 <0>        -0.7297
     14 P1         -1.1132    3.1291    5.2488 P.3       1 <0>         2.3103
     15 O4         -0.8991    4.5457    5.6199 O.2       1 <0>        -0.7238
     16 O5         -2.5460    2.7906    5.3998 O.2       1 <0>        -0.7428
     17 O6         -0.2341    2.1836    6.2108 O.3       1 <0>        -0.8610
     18 O7         -1.5107    4.9791    0.2042 O.3       1 <0>        -0.5568
     19 O8         -1.5744    3.6013   -2.3026 O.3       1 <0>        -0.5657
     20 H5         -0.2197    1.2796   -2.1290 H         1 <0>         0.0911
     21 H6         -1.7631    1.1824   -1.2465 H         1 <0>         0.0977
     22 H7          1.8570    1.2984    0.7564 H         1 <0>         0.3913
     23 H8         -1.5661    4.4275    2.6555 H         1 <0>         0.0995
     24 H9         -2.4257    2.8690    2.6361 H         1 <0>         0.0857
     25 H10        -0.4500    2.2684    7.1496 H         1 <0>         0.4418
     26 H11        -1.9782    5.4162   -0.5207 H         1 <0>         0.3946
     27 H12        -1.2009    3.3590   -3.1610 H         1 <0>         0.3877
@<TRIPOS>BOND
     1    1    9 1
     2    1    2 1
     3    1   20 1
     4    1   21 1
     5    2    3 1
     6    2    4 1
     7    2   19 1
     8    4    5 1
     9    4    6 1
    10    4   18 1
    11    6    7 1
    12    6    8 1
    13    6   12 1
    14    8    9 1
    15    9   10 1
    16    9   11 1
    17   11   22 1
    18   12   13 1
    19   12   23 1
    20   12   24 1
    21   13   14 1
    22   14   15 2
    23   14   16 2
    24   14   17 1
    25   17   25 1
    26   18   26 1
    27   19   27 1
@<TRIPOS>MOLECULE
ZINC04642456
   53    54     0     0     0
SMALL
USER_CHARGES

@<TRIPOS>ATOM
      1 C1         -2.2037    0.1410   -3.2827 C.3       1 <0>        -0.1817
      2 C2         -2.2374   -0.6410   -1.9681 C.3       1 <0>        -0.0146
      3 C3         -1.7594    1.1865   -0.4540 C.3       1 <0>         0.0455
      4 H1         -1.8450    1.9390   -1.2380 H         1 <0>         0.1210
      5 C4         -0.7855    1.6773    0.6197 C.3       1 <0>        -0.1024
      6 H2         -0.7099    0.9314    1.4108 H         1 <0>         0.1536
      7 C5          0.5929    1.8962   -0.0101 C.3       1 <0>        -0.0252
      8 H3          0.5253    2.6701   -0.7747 H         1 <0>         0.0988
      9 C6          1.0679    0.5874   -0.6472 C.3       1 <0>        -0.1339
     10 H4          2.0297    0.7479   -1.1343 H         1 <0>         0.1184
     11 C7          0.0404    0.1282   -1.6842 C.3       1 <0>         0.0020
     12 H5         -0.0537    0.8857   -2.4622 H         1 <0>         0.1211
     13 C8          0.4942   -1.1703   -2.2999 C.2       1 <0>         0.4711
     14 O1          0.1320   -2.2219   -1.8278 O.co2     1 <0>        -0.6007
     15 C9          1.2128   -0.4677    0.4190 C.2       1 <0>         0.4888
     16 O2          0.2298   -0.9382    0.9409 O.co2     1 <0>        -0.6399
     17 C10         1.5709    2.3222    1.0544 C.ar      1 <0>        -0.0381
     18 C11         1.3917    1.9117    2.3621 C.ar      1 <0>        -0.0925
     19 C12         2.2889    2.3019    3.3384 C.ar      1 <0>        -0.1089
     20 C13         3.3661    3.1031    3.0077 C.ar      1 <0>        -0.1134
     21 C14         3.5461    3.5146    1.7008 C.ar      1 <0>        -0.1111
     22 C15         2.6514    3.1195    0.7219 C.ar      1 <0>        -0.0167
     23 Cl1         2.8815    3.6291   -0.9216 Cl        1 <0>        -0.0723
     24 C16        -1.2866    2.9758    1.1976 C.2       1 <0>         0.4724
     25 O3         -0.6113    3.9743    1.1149 O.2       1 <0>        -0.4776
     26 O4         -2.4830    3.0230    1.8043 O.3       1 <0>        -0.3476
     27 C17        -2.9015    4.3071    2.3375 C.3       1 <0>         0.0766
     28 C18        -3.6746    5.0772    1.2651 C.3       1 <0>        -0.1698
     29 C19        -3.8017    4.0850    3.5546 C.3       1 <0>        -0.1497
     30 C20        -3.1333    0.9470    0.1750 C.3       1 <0>        -0.1841
     31 H6         -2.9473   -0.2671   -3.9673 H         1 <0>         0.0892
     32 H7         -2.4266    1.1899   -3.0874 H         1 <0>         0.0639
     33 H8         -1.2133    0.0572   -3.7300 H         1 <0>         0.0886
     34 H9         -1.9880   -1.6846   -2.1596 H         1 <0>         0.1363
     35 H10        -3.2355   -0.5797   -1.5343 H         1 <0>         0.1165
     36 H11         0.5506    1.2855    2.6210 H         1 <0>         0.1255
     37 H12         2.1486    1.9807    4.3600 H         1 <0>         0.1245
     38 H13         4.0672    3.4072    3.7709 H         1 <0>         0.1272
     39 H14         4.3878    4.1401    1.4426 H         1 <0>         0.1297
     40 H15        -2.0235    4.8806    2.6348 H         1 <0>         0.0864
     41 H16        -3.9887    6.0412    1.6654 H         1 <0>         0.0741
     42 H17        -3.0333    5.2355    0.3980 H         1 <0>         0.0618
     43 H18        -4.5526    4.5037    0.9678 H         1 <0>         0.0658
     44 H19        -3.2509    3.5364    4.3186 H         1 <0>         0.0661
     45 H20        -4.1158    5.0490    3.9549 H         1 <0>         0.0766
     46 H21        -4.6796    3.5115    3.2573 H         1 <0>         0.0676
     47 H22        -3.5614    1.8997    0.4865 H         1 <0>         0.1060
     48 H23        -3.7902    0.4751   -0.5557 H         1 <0>         0.0810
     49 H24        -3.0272    0.2954    1.0424 H         1 <0>         0.0854
     50 N1         -1.2575   -0.0881   -1.0104 N.4       1 <0>        -0.3633
     51 H25        -1.1269   -0.7578   -0.2431 H         1 <0>         0.4395
     52 O5          1.3008   -1.1586   -3.3727 O.co2     1 <0>        -0.7247
     53 O6          2.4338   -0.8847    0.7890 O.co2     1 <0>        -0.7128
@<TRIPOS>BOND
     1    1    2 1
     2    1   31 1
     3    1   32 1
     4    1   33 1
     5    2   34 1
     6    2   35 1
     7    2   50 1
     8    3    4 1
     9    3    5 1
    10    3   30 1
    11    3   50 1
    12    5    6 1
    13    5    7 1
    14    5   24 1
    15    7    8 1
    16    7    9 1
    17    7   17 1
    18    9   10 1
    19    9   11 1
    20    9   15 1
    21   11   12 1
    22   11   13 1
    23   11   50 1
    24   13   14 2
    25   13   52 1
    26   15   16 2
    27   15   53 1
    28   17   22 ar
    29   17   18 ar
    30   18   19 ar
    31   18   36 1
    32   19   20 ar
    33   19   37 1
    34   20   21 ar
    35   20   38 1
    36   21   22 ar
    37   21   39 1
    38   22   23 1
    39   24   25 2
    40   24   26 1
    41   26   27 1
    42   27   28 1
    43   27   29 1
    44   27   40 1
    45   28   41 1
    46   28   42 1
    47   28   43 1
    48   29   44 1
    49   29   45 1
    50   29   46 1
    51   30   47 1
    52   30   48 1
    53   30   49 1
    54   50   51 1
