@<TRIPOS>MOLECULE
ZINC01484895
   64    68     0     0     0
SMALL
USER_CHARGES

@<TRIPOS>ATOM
      1 C1          3.3104    0.8367   -3.4351 C.ar      1 <0>        -0.1079
      2 C2          4.1648    1.8941   -3.6893 C.ar      1 <0>        -0.0948
      3 C3          4.1851    2.9889   -2.8451 C.ar      1 <0>        -0.0412
      4 C4          3.3519    3.0296   -1.7442 C.ar      1 <0>        -0.0912
      5 C5          2.4926    1.9694   -1.4860 C.ar      1 <0>         0.1197
      6 C6          2.4782    0.8687   -2.3337 C.ar      1 <0>        -0.1041
      7 N1          1.6490    2.0071   -0.3734 N.pl3     1 <0>        -1.0581
      8 S1          0.0325    2.3081   -0.5698 S.o2      1 <0>         2.6866
      9 O1         -0.5385    2.3250    0.7313 O.2       1 <0>        -0.9496
     10 O2         -0.4230    1.4303   -1.5903 O.2       1 <0>        -0.9404
     11 C7         -0.1192    3.9436   -1.2076 C.ar      1 <0>        -0.6532
     12 C8         -0.3203    5.0043   -0.3422 C.ar      1 <0>        -0.0177
     13 C9         -0.4350    6.2879   -0.8344 C.ar      1 <0>        -0.0933
     14 C10        -0.3585    6.5140   -2.2101 C.ar      1 <0>         0.0333
     15 C11        -0.1607    5.4383   -3.0781 C.ar      1 <0>        -0.0916
     16 C12        -0.0423    4.1605   -2.5720 C.ar      1 <0>        -0.0125
     17 C13        -0.4817    7.8432   -2.7285 C.1       1 <0>         0.2417
     18 N2         -0.5795    8.8976   -3.1397 N.1       1 <0>        -0.3906
     19 C14         5.1178    4.1388   -3.1260 C.3       1 <0>         0.0530
     20 H1          4.9418    4.9345   -2.4022 H         1 <0>         0.0876
     21 C15         6.5447    3.6666   -3.0165 C.2       1 <0>        -0.2710
     22 C16         7.5390    4.2479   -3.7849 C.2       1 <0>         0.2444
     23 C17         8.8575    3.7721   -3.6481 C.2       1 <0>        -0.2317
     24 C18         9.1268    2.7676   -2.7848 C.2       1 <0>         0.1544
     25 O3          8.1619    2.2151   -2.0422 O.3       1 <0>        -0.2575
     26 C19         6.8874    2.6366   -2.1315 C.2       1 <0>         0.5021
     27 O4          6.0257    2.1163   -1.4421 O.2       1 <0>        -0.4501
     28 C20        10.5548    2.2979   -2.7008 C.3       1 <0>        -0.0762
     29 C21        11.3817    3.1353   -1.7783 C.3       1 <0>        -0.1199
     30 C22        11.8904    4.4665   -2.2921 C.3       1 <0>        -0.1212
     31 C23        10.7479    5.4970   -2.3398 C.3       1 <0>        -0.1263
     32 C24        10.3679    5.7147   -3.8283 C.3       1 <0>        -0.1148
     33 C25         9.9915    4.3658   -4.4409 C.3       1 <0>        -0.0719
     34 O5          7.2504    5.2501   -4.6480 O.3       1 <0>        -0.4706
     35 C26         4.8630    4.6687   -4.5385 C.3       1 <0>        -0.1228
     36 C27         4.6346    6.1732   -4.6981 C.3       1 <0>        -0.1751
     37 C28         3.4628    5.2002   -4.8517 C.3       1 <0>        -0.1801
     38 H2          3.2972   -0.0171   -4.0964 H         1 <0>         0.1269
     39 H3          4.8173    1.8648   -4.5494 H         1 <0>         0.1171
     40 H4          3.3688    3.8847   -1.0847 H         1 <0>         0.1215
     41 H5          1.8144    0.0407   -2.1333 H         1 <0>         0.1321
     42 H6          2.0101    1.8569    0.5143 H         1 <0>         0.4269
     43 H7         -0.3834    4.8274    0.7213 H         1 <0>         0.1534
     44 H8         -0.5875    7.1155   -0.1575 H         1 <0>         0.1449
     45 H9         -0.1009    5.6062   -4.1433 H         1 <0>         0.1450
     46 H10         0.1110    3.3276   -3.2421 H         1 <0>         0.1509
     47 H11        10.9957    2.3309   -3.6971 H         1 <0>         0.1088
     48 H12        10.5649    1.2675   -2.3456 H         1 <0>         0.0944
     49 H13        12.2459    2.5433   -1.4770 H         1 <0>         0.0763
     50 H14        10.7885    3.3288   -0.8846 H         1 <0>         0.0639
     51 H15        12.2983    4.3340   -3.2941 H         1 <0>         0.0701
     52 H16        12.6770    4.8310   -1.6314 H         1 <0>         0.0701
     53 H17        11.0811    6.4381   -1.9024 H         1 <0>         0.0656
     54 H18         9.8860    5.1184   -1.7904 H         1 <0>         0.0607
     55 H19        11.2183    6.1353   -4.3649 H         1 <0>         0.0726
     56 H20         9.5198    6.3961   -3.8956 H         1 <0>         0.0590
     57 H21        10.8510    3.6963   -4.4065 H         1 <0>         0.0872
     58 H22         9.6794    4.5066   -5.4757 H         1 <0>         0.0811
     59 H23         7.3138    6.1337   -4.2602 H         1 <0>         0.4011
     60 H24         5.3959    4.1531   -5.3373 H         1 <0>         0.1119
     61 H25         4.6658    6.7854   -3.7968 H         1 <0>         0.0888
     62 H26         5.0169    6.6472   -5.6021 H         1 <0>         0.0957
     63 H27         3.0748    5.0345   -5.8568 H         1 <0>         0.0943
     64 H28         2.7231    5.1719   -4.0516 H         1 <0>         0.0925
@<TRIPOS>BOND
     1    1    6 ar
     2    1    2 ar
     3    1   38 1
     4    2    3 ar
     5    2   39 1
     6    3    4 ar
     7    3   19 1
     8    4    5 ar
     9    4   40 1
    10    5    6 ar
    11    5    7 1
    12    6   41 1
    13    7    8 1
    14    7   42 1
    15    8    9 2
    16    8   10 2
    17    8   11 1
    18   11   16 ar
    19   11   12 ar
    20   12   13 ar
    21   12   43 1
    22   13   14 ar
    23   13   44 1
    24   14   15 ar
    25   14   17 1
    26   15   16 ar
    27   15   45 1
    28   16   46 1
    29   17   18 3
    30   19   20 1
    31   19   21 1
    32   19   35 1
    33   21   26 1
    34   21   22 2
    35   22   23 1
    36   22   34 1
    37   23   33 1
    38   23   24 2
    39   24   25 1
    40   24   28 1
    41   25   26 1
    42   26   27 2
    43   28   29 1
    44   28   47 1
    45   28   48 1
    46   29   30 1
    47   29   49 1
    48   29   50 1
    49   30   31 1
    50   30   51 1
    51   30   52 1
    52   31   32 1
    53   31   53 1
    54   31   54 1
    55   32   33 1
    56   32   55 1
    57   32   56 1
    58   33   57 1
    59   33   58 1
    60   34   59 1
    61   35   37 1
    62   35   36 1
    63   35   60 1
    64   36   37 1
    65   36   61 1
    66   36   62 1
    67   37   63 1
    68   37   64 1
@<TRIPOS>MOLECULE
ZINC03786324
   60    62     0     0     0
SMALL
USER_CHARGES

@<TRIPOS>ATOM
      1 C1         -1.9057    8.7208   -7.3563 C.2       1 <0>        -0.1861
      2 C2         -2.2550    7.8881   -6.4073 C.2       1 <0>        -0.1606
      3 C3         -1.2306    6.9638   -5.8012 C.3       1 <0>         0.1447
      4 N1         -1.2070    7.1471   -4.3448 N.am      1 <0>        -0.6013
      5 C4         -0.2424    8.1047   -3.8148 C.3       1 <0>         0.1617
      6 H1         -0.2487    8.9847   -4.4809 H         1 <0>         0.0957
      7 C5         -0.6389    8.5706   -2.4147 C.3       1 <0>         0.0767
      8 H2         -1.7247    8.7267   -2.3828 H         1 <0>         0.0748
      9 C6         -0.2533    7.5663   -1.3499 C.3       1 <0>         0.0662
     10 H3          0.8325    7.5404   -1.2409 H         1 <0>         0.0765
     11 C7         -0.7594    6.1626   -1.5977 C.3       1 <0>         0.1637
     12 H4         -0.0180    5.6002   -2.1683 H         1 <0>         0.0875
     13 N2         -2.0249    6.1703   -2.3283 N.am      1 <0>        -0.6156
     14 C8         -2.0834    6.4599   -3.6371 C.2       1 <0>         0.7090
     15 O1         -3.0855    6.0952   -4.2322 O.2       1 <0>        -0.5855
     16 C9         -3.2662    5.8491   -1.6117 C.3       1 <0>         0.1503
     17 C10        -3.9081    7.1221   -1.1234 C.2       1 <0>        -0.1788
     18 C11        -5.1485    7.3951   -1.4445 C.2       1 <0>        -0.1702
     19 C12        -0.9676    5.4610   -0.2498 C.3       1 <0>        -0.0773
     20 C13         0.3580    5.3194    0.4528 C.ar      1 <0>        -0.0826
     21 C14         0.7385    6.2472    1.4044 C.ar      1 <0>        -0.1009
     22 C15         1.9547    6.1175    2.0485 C.ar      1 <0>        -0.1249
     23 C16         2.7904    5.0602    1.7411 C.ar      1 <0>        -0.1210
     24 C17         2.4123    4.1354    0.7858 C.ar      1 <0>        -0.1208
     25 C18         1.1938    4.2621    0.1454 C.ar      1 <0>        -0.1189
     26 O2         -0.7893    8.0169   -0.0953 O.3       1 <0>        -0.5530
     27 O3         -0.0029    9.8247   -2.1341 O.3       1 <0>        -0.5541
     28 C19         1.1633    7.5137   -3.8360 C.3       1 <0>        -0.0953
     29 C20         1.6069    7.3237   -5.2637 C.ar      1 <0>        -0.0832
     30 C21         1.5085    6.0797   -5.8583 C.ar      1 <0>        -0.1121
     31 C22         1.9109    5.9065   -7.1694 C.ar      1 <0>        -0.1186
     32 C23         2.4214    6.9750   -7.8825 C.ar      1 <0>        -0.1195
     33 C24         2.5247    8.2179   -7.2862 C.ar      1 <0>        -0.1159
     34 C25         2.1174    8.3922   -5.9768 C.ar      1 <0>        -0.1161
     35 H5         -0.8836    8.7450   -7.7044 H         1 <0>         0.0947
     36 H6         -2.6398    9.3833   -7.7906 H         1 <0>         0.0979
     37 H7         -3.2771    7.8640   -6.0593 H         1 <0>         0.1137
     38 H8         -0.2472    7.1918   -6.2122 H         1 <0>         0.1007
     39 H9         -1.4908    5.9310   -6.0333 H         1 <0>         0.0849
     40 H10        -3.9505    5.3318   -2.2842 H         1 <0>         0.0921
     41 H11        -3.0387    5.2072   -0.7606 H         1 <0>         0.0929
     42 H12        -3.3456    7.8093   -0.5089 H         1 <0>         0.1137
     43 H13        -5.6085    8.3074   -1.0946 H         1 <0>         0.0960
     44 H14        -5.7110    6.7079   -2.0591 H         1 <0>         0.0982
     45 H15        -1.3976    4.4735   -0.4169 H         1 <0>         0.0793
     46 H16        -1.6444    6.0524    0.3669 H         1 <0>         0.0992
     47 H17         0.0857    7.0734    1.6443 H         1 <0>         0.1338
     48 H18         2.2521    6.8425    2.7917 H         1 <0>         0.1198
     49 H19         3.7407    4.9591    2.2442 H         1 <0>         0.1194
     50 H20         3.0672    3.3118    0.5425 H         1 <0>         0.1204
     51 H21         0.8967    3.5375   -0.5983 H         1 <0>         0.1185
     52 H22        -0.5180    8.9122    0.1494 H         1 <0>         0.3699
     53 H23        -0.2088   10.1832   -1.2600 H         1 <0>         0.3811
     54 H24         1.8501    8.1917   -3.3293 H         1 <0>         0.0927
     55 H25         1.1604    6.5508   -3.3253 H         1 <0>         0.0756
     56 H26         1.1138    5.2439   -5.2997 H         1 <0>         0.1190
     57 H27         1.8306    4.9354   -7.6352 H         1 <0>         0.1233
     58 H28         2.7399    6.8387   -8.9055 H         1 <0>         0.1225
     59 H29         2.9239    9.0526   -7.8433 H         1 <0>         0.1232
     60 H30         2.1984    9.3632   -5.5108 H         1 <0>         0.1231
@<TRIPOS>BOND
     1    1    2 2
     2    1   35 1
     3    1   36 1
     4    2    3 1
     5    2   37 1
     6    3    4 1
     7    3   38 1
     8    3   39 1
     9    4   14 am
    10    4    5 1
    11    5    6 1
    12    5    7 1
    13    5   28 1
    14    7    8 1
    15    7    9 1
    16    7   27 1
    17    9   10 1
    18    9   11 1
    19    9   26 1
    20   11   12 1
    21   11   13 1
    22   11   19 1
    23   13   14 am
    24   13   16 1
    25   14   15 2
    26   16   17 1
    27   16   40 1
    28   16   41 1
    29   17   18 2
    30   17   42 1
    31   18   43 1
    32   18   44 1
    33   19   20 1
    34   19   45 1
    35   19   46 1
    36   20   25 ar
    37   20   21 ar
    38   21   22 ar
    39   21   47 1
    40   22   23 ar
    41   22   48 1
    42   23   24 ar
    43   23   49 1
    44   24   25 ar
    45   24   50 1
    46   25   51 1
    47   26   52 1
    48   27   53 1
    49   28   29 1
    50   28   54 1
    51   28   55 1
    52   29   34 ar
    53   29   30 ar
    54   30   31 ar
    55   30   56 1
    56   31   32 ar
    57   31   57 1
    58   32   33 ar
    59   32   58 1
    60   33   34 ar
    61   33   59 1
    62   34   60 1
@<TRIPOS>MOLECULE
ZINC03808264
   45    47     0     0     0
SMALL
USER_CHARGES

@<TRIPOS>ATOM
      1 C1          3.9887    3.0047   -0.0199 C.ar      1 <0>        -0.1235
      2 C2          3.3289    2.7719   -1.2121 C.ar      1 <0>        -0.1194
      3 C3          2.0321    2.2931   -1.2023 C.ar      1 <0>        -0.1154
      4 C4          1.3951    2.0474   -0.0003 C.ar      1 <0>        -0.0789
      5 C5          2.0530    2.2855    1.1919 C.ar      1 <0>        -0.1139
      6 C6          3.3517    2.7590    1.1821 C.ar      1 <0>        -0.1181
      7 C7         -0.0187    1.5258    0.0104 C.3       1 <0>        -0.0625
      8 C8          0.0021   -0.0041    0.0020 C.3       1 <0>        -0.1063
      9 S1         -1.6997   -0.6320    0.0149 S.3       1 <0>        -0.0734
     10 C9         -1.5080   -2.3834    0.0037 C.2       1 <0>        -0.3457
     11 C10        -1.4484   -3.0788   -1.1974 C.2       1 <0>         0.3030
     12 C11        -1.2907   -4.4750   -1.1638 C.2       1 <0>        -0.3060
     13 C12        -1.2092   -5.1173    0.0345 C.2       1 <0>         0.2703
     14 O1         -1.2730   -4.4354    1.1931 O.3       1 <0>        -0.2596
     15 C13        -1.4188   -3.0992    1.2097 C.2       1 <0>         0.5193
     16 O2         -1.4734   -2.5061    2.2748 O.2       1 <0>        -0.4556
     17 C14        -1.0488   -6.5836    0.0630 C.ar      1 <0>        -0.1546
     18 C15        -0.9869   -7.3051   -1.1323 C.ar      1 <0>        -0.0231
     19 C16        -0.8327   -8.6738   -1.1010 C.ar      1 <0>        -0.2243
     20 C17        -0.7485   -9.3379    0.1164 C.ar      1 <0>         0.1847
     21 C18        -0.8150   -8.6252    1.3072 C.ar      1 <0>        -0.1662
     22 C19        -0.9642   -7.2558    1.2853 C.ar      1 <0>        -0.0250
     23 O3         -0.6014  -10.6877    0.1426 O.3       1 <0>        -0.2754
     24 C20        -0.5402  -11.3582   -1.1178 C.3       1 <0>         0.0120
     25 C21        -0.3769  -12.8392   -0.8916 C.2       1 <0>         0.4686
     26 O4         -0.3188  -13.2757    0.2335 O.co2     1 <0>        -0.6112
     27 O5         -1.5367   -2.4220   -2.3808 O.3       1 <0>        -0.4727
     28 H1          5.0021    3.3781   -0.0276 H         1 <0>         0.1209
     29 H2          3.8265    2.9638   -2.1511 H         1 <0>         0.1218
     30 H3          1.5166    2.1112   -2.1337 H         1 <0>         0.1224
     31 H4          1.5538    2.0978    2.1311 H         1 <0>         0.1235
     32 H5          3.8674    2.9405    2.1135 H         1 <0>         0.1223
     33 H6         -0.5459    1.8868   -0.8726 H         1 <0>         0.0829
     34 H7         -0.5289    1.8773    0.9072 H         1 <0>         0.0839
     35 H8          0.5123   -0.3556   -0.8948 H         1 <0>         0.0772
     36 H9          0.5293   -0.3651    0.8851 H         1 <0>         0.0824
     37 H10        -1.2382   -5.0369   -2.0847 H         1 <0>         0.1674
     38 H11        -1.0563   -6.7902   -2.0791 H         1 <0>         0.1357
     39 H12        -0.7809   -9.2318   -2.0243 H         1 <0>         0.1434
     40 H13        -0.7498   -9.1455    2.2513 H         1 <0>         0.1435
     41 H14        -1.0161   -6.7026    2.2114 H         1 <0>         0.1411
     42 H15        -1.4606  -11.1747   -1.6721 H         1 <0>         0.0730
     43 H16         0.3088  -10.9821   -1.6886 H         1 <0>         0.0728
     44 H17        -0.6843   -2.1353   -2.7361 H         1 <0>         0.4093
     45 O6         -0.2959  -13.6734   -1.9401 O.co2     1 <0>        -0.7505
@<TRIPOS>BOND
     1    1    6 ar
     2    1    2 ar
     3    1   28 1
     4    2    3 ar
     5    2   29 1
     6    3    4 ar
     7    3   30 1
     8    4    5 ar
     9    4    7 1
    10    5    6 ar
    11    5   31 1
    12    6   32 1
    13    7    8 1
    14    7   33 1
    15    7   34 1
    16    8    9 1
    17    8   35 1
    18    8   36 1
    19    9   10 1
    20   10   15 1
    21   10   11 2
    22   11   12 1
    23   11   27 1
    24   12   13 2
    25   12   37 1
    26   13   14 1
    27   13   17 1
    28   14   15 1
    29   15   16 2
    30   17   22 ar
    31   17   18 ar
    32   18   19 ar
    33   18   38 1
    34   19   20 ar
    35   19   39 1
    36   20   21 ar
    37   20   23 1
    38   21   22 ar
    39   21   40 1
    40   22   41 1
    41   23   24 1
    42   24   25 1
    43   24   42 1
    44   24   43 1
    45   25   26 2
    46   25   45 1
    47   27   44 1
@<TRIPOS>MOLECULE
ZINC03815629
   73    76     0     0     0
SMALL
USER_CHARGES

@<TRIPOS>ATOM
      1 C1         -6.7311    8.0967  -10.2636 C.3       1 <0>        -0.1552
      2 C2         -5.4363    7.2940  -10.1224 C.3       1 <0>        -0.1260
      3 C3         -4.3139    8.2168   -9.6431 C.3       1 <0>        -0.1539
      4 C4         -3.0008    7.4339   -9.5828 C.3       1 <0>         0.1209
      5 C5         -1.8475    8.3882   -9.2531 C.3       1 <0>        -0.1664
      6 C6         -2.0260    8.9047   -7.8470 C.2       1 <0>         0.3317
      7 C7         -2.6802    8.1616   -6.9367 C.3       1 <0>        -0.2262
      8 C8         -3.2047    6.8953   -7.2885 C.2       1 <0>         0.5228
      9 O1         -3.7722    6.2184   -6.4519 O.2       1 <0>        -0.4277
     10 O2         -3.0802    6.4401   -8.5543 O.3       1 <0>        -0.3243
     11 C9         -2.8503    8.6781   -5.5312 C.3       1 <0>        -0.0069
     12 H1         -2.7644    9.7647   -5.5305 H         1 <0>         0.1141
     13 C10        -4.2286    8.2751   -5.0031 C.3       1 <0>        -0.1404
     14 C11        -4.4509    8.9038   -3.6261 C.3       1 <0>        -0.1518
     15 C12        -1.7816    8.0892   -4.6468 C.ar      1 <0>        -0.0670
     16 C13        -1.5850    6.7204   -4.6188 C.ar      1 <0>        -0.1010
     17 C14        -0.6056    6.1760   -3.8088 C.ar      1 <0>        -0.1117
     18 C15         0.1835    6.9985   -3.0286 C.ar      1 <0>        -0.1118
     19 C16        -0.0151    8.3729   -3.0500 C.ar      1 <0>         0.1165
     20 C17        -1.0001    8.9167   -3.8650 C.ar      1 <0>        -0.0847
     21 N1          0.7775    9.2071   -2.2582 N.pl3     1 <0>        -1.0561
     22 S1          0.1723    9.8304   -0.8484 S.o2      1 <0>         2.6940
     23 O3         -0.9796   10.5848   -1.1993 O.2       1 <0>        -0.9165
     24 O4          1.2720   10.3990   -0.1508 O.2       1 <0>        -0.9417
     25 C18        -0.3917    8.4721    0.1219 C.ar      1 <0>        -0.4216
     26 C19         0.5073    7.7854    0.9185 C.ar      1 <0>        -0.0811
     27 C20         0.0613    6.7191    1.6788 C.ar      1 <0>        -0.0402
     28 C21        -1.2949    6.3759    1.6098 C.ar      1 <0>        -0.0183
     29 C22        -2.1358    7.1162    0.7771 C.ar      1 <0>         0.1345
     30 N2         -1.6640    8.1265    0.0765 N.ar      1 <0>        -0.3763
     31 C23        -1.8088    5.2805    2.3757 C.1       1 <0>         0.2424
     32 N3         -2.2165    4.4116    2.9834 N.1       1 <0>        -0.3774
     33 O5         -1.5307   10.1103   -7.5033 O.2       1 <0>        -0.5064
     34 C24        -2.7412    6.7618  -10.9325 C.3       1 <0>        -0.1012
     35 C25        -1.4320    5.9729  -10.8661 C.3       1 <0>        -0.0867
     36 C26        -1.1763    5.3108  -12.1955 C.ar      1 <0>        -0.0845
     37 C27        -1.6561    4.0371  -12.4369 C.ar      1 <0>        -0.1150
     38 C28        -1.4253    3.4315  -13.6579 C.ar      1 <0>        -0.1177
     39 C29        -0.7070    4.0961  -14.6343 C.ar      1 <0>        -0.1228
     40 C30        -0.2228    5.3678  -14.3910 C.ar      1 <0>        -0.1181
     41 C31        -0.4573    5.9751  -13.1715 C.ar      1 <0>        -0.1180
     42 H2         -7.0003    8.5249   -9.2981 H         1 <0>         0.0532
     43 H3         -6.5849    8.8976  -10.9883 H         1 <0>         0.0566
     44 H4         -7.5307    7.4393  -10.6051 H         1 <0>         0.0606
     45 H5         -5.1671    6.8657  -11.0879 H         1 <0>         0.0767
     46 H6         -5.5825    6.4930   -9.3977 H         1 <0>         0.0716
     47 H7         -4.5556    8.5978   -8.6508 H         1 <0>         0.0587
     48 H8         -4.2082    9.0509  -10.3367 H         1 <0>         0.0961
     49 H9         -1.8526    9.1525   -9.8980 H         1 <0>         0.1121
     50 H10        -0.8998    7.8551   -9.3284 H         1 <0>         0.1361
     51 H11        -4.9980    8.6256   -5.6910 H         1 <0>         0.0599
     52 H12        -4.2827    7.1896   -4.9199 H         1 <0>         0.1083
     53 H13        -5.4328    8.6167   -3.2498 H         1 <0>         0.0601
     54 H14        -3.6815    8.5533   -2.9381 H         1 <0>         0.0669
     55 H15        -4.3968    9.9893   -3.7092 H         1 <0>         0.0560
     56 H16        -2.1981    6.0754   -5.2307 H         1 <0>         0.1389
     57 H17        -0.4547    5.1068   -3.7893 H         1 <0>         0.1287
     58 H18         0.9513    6.5729   -2.3994 H         1 <0>         0.1261
     59 H19        -1.1542    9.9854   -3.8874 H         1 <0>         0.1370
     60 H20         1.6824    9.4213   -2.5342 H         1 <0>         0.4285
     61 H21         1.5462    8.0789    0.9467 H         1 <0>         0.1655
     62 H22         0.7415    6.1654    2.3091 H         1 <0>         0.1596
     63 H23        -3.1830    6.8607    0.7100 H         1 <0>         0.1803
     64 H24        -3.3699    8.8661   -7.1037 H         1 <0>         0.1817
     65 H25        -3.5625    6.0838  -11.1647 H         1 <0>         0.0937
     66 H26        -2.6677    7.5229  -11.7093 H         1 <0>         0.0952
     67 H27        -0.6107    6.6509  -10.6339 H         1 <0>         0.0756
     68 H28        -1.5054    5.2117  -10.0893 H         1 <0>         0.0857
     69 H29        -2.2140    3.5163  -11.6727 H         1 <0>         0.1227
     70 H30        -1.8039    2.4381  -13.8482 H         1 <0>         0.1219
     71 H31        -0.5245    3.6220  -15.5873 H         1 <0>         0.1210
     72 H32         0.3383    5.8871  -15.1538 H         1 <0>         0.1216
     73 H33        -0.0790    6.9687  -12.9814 H         1 <0>         0.1212
@<TRIPOS>BOND
     1    1    2 1
     2    1   42 1
     3    1   43 1
     4    1   44 1
     5    2    3 1
     6    2   45 1
     7    2   46 1
     8    3    4 1
     9    3   47 1
    10    3   48 1
    11    4   10 1
    12    4    5 1
    13    4   34 1
    14    5   50 1
    15    5    6 1
    16    5   49 1
    17    6    7 1
    18    6   33 2
    19    7    8 1
    20    7   11 1
    21    7   64 1
    22    8    9 2
    23    8   10 1
    24   11   12 1
    25   11   13 1
    26   11   15 1
    27   13   14 1
    28   13   51 1
    29   13   52 1
    30   14   53 1
    31   14   54 1
    32   14   55 1
    33   15   20 ar
    34   15   16 ar
    35   16   17 ar
    36   16   56 1
    37   17   18 ar
    38   17   57 1
    39   18   19 ar
    40   18   58 1
    41   19   20 ar
    42   19   21 1
    43   20   59 1
    44   21   22 1
    45   21   60 1
    46   22   23 2
    47   22   24 2
    48   22   25 1
    49   25   30 ar
    50   25   26 ar
    51   26   27 ar
    52   26   61 1
    53   27   28 ar
    54   27   62 1
    55   28   29 ar
    56   28   31 1
    57   29   30 ar
    58   29   63 1
    59   31   32 3
    60   34   35 1
    61   34   65 1
    62   34   66 1
    63   35   36 1
    64   35   67 1
    65   35   68 1
    66   36   41 ar
    67   36   37 ar
    68   37   38 ar
    69   37   69 1
    70   38   39 ar
    71   38   70 1
    72   39   40 ar
    73   39   71 1
    74   40   41 ar
    75   40   72 1
    76   41   73 1
@<TRIPOS>MOLECULE
ZINC03815630
   75    78     0     0     0
SMALL
USER_CHARGES

@<TRIPOS>ATOM
      1 C1         -7.9764   13.7959    0.5936 C.3       1 <0>        -0.1552
      2 C2         -6.5000   13.3946    0.5957 C.3       1 <0>        -0.1260
      3 C3         -6.0158   13.2393    2.0388 C.3       1 <0>        -0.1539
      4 C4         -4.5192   12.9210    2.0431 C.3       1 <0>         0.1208
      5 C5         -3.9982   12.9173    3.4846 C.3       1 <0>        -0.1664
      6 C6         -4.6170   11.7585    4.2261 C.2       1 <0>         0.3317
      7 C7         -4.9979   10.6576    3.5538 C.3       1 <0>        -0.2263
      8 C8         -4.8228   10.5776    2.1518 C.2       1 <0>         0.5228
      9 O1         -5.1461    9.5677    1.5553 O.2       1 <0>        -0.4275
     10 O2         -4.3018   11.6242    1.4750 O.3       1 <0>        -0.3241
     11 C9         -5.6093    9.4993    4.2991 C.3       1 <0>        -0.0069
     12 H1         -6.0296    9.8540    5.2402 H         1 <0>         0.1141
     13 C10        -6.7172    8.8738    3.4493 C.3       1 <0>        -0.1403
     14 C11        -7.4209    7.7793    4.2542 C.3       1 <0>        -0.1519
     15 C12        -4.5483    8.4667    4.5804 C.ar      1 <0>        -0.0668
     16 C13        -3.7567    7.9914    3.5506 C.ar      1 <0>        -0.1003
     17 C14        -2.7822    7.0440    3.8043 C.ar      1 <0>        -0.1113
     18 C15        -2.5925    6.5729    5.0888 C.ar      1 <0>        -0.1124
     19 C16        -3.3895    7.0438    6.1242 C.ar      1 <0>         0.1150
     20 C17        -4.3679    7.9957    5.8658 C.ar      1 <0>        -0.0845
     21 N1         -3.2040    6.5656    7.4234 N.pl3     1 <0>        -1.0550
     22 S1         -4.2455    5.4398    8.0479 S.o2      1 <0>         2.6942
     23 O3         -5.5410    6.0229    8.0153 O.2       1 <0>        -0.9146
     24 O4         -3.6550    4.9624    9.2490 O.2       1 <0>        -0.9401
     25 C18        -4.2767    4.0805    6.9272 C.ar      1 <0>        -0.4156
     26 C19        -3.3082    3.0985    7.0174 C.ar      1 <0>        -0.0835
     27 C20        -3.3415    2.0335    6.1305 C.ar      1 <0>        -0.0354
     28 C21        -4.3522    1.9960    5.1818 C.ar      1 <0>        -0.1862
     29 C22        -5.2827    3.0170    5.1485 C.ar      1 <0>         0.1371
     30 N2         -5.2234    4.0122    6.0120 N.ar      1 <0>        -0.3754
     31 C23        -4.4312    0.8592    4.1957 C.3       1 <0>         0.5135
     32 F1         -5.2179   -0.1673    4.7293 F         1 <0>        -0.1675
     33 F2         -3.1443    0.3747    3.9384 F         1 <0>        -0.1701
     34 F3         -5.0049    1.3148    3.0038 F         1 <0>        -0.1676
     35 O5         -4.7886   11.8264    5.5613 O.2       1 <0>        -0.5065
     36 C24        -3.7676   13.9754    1.2281 C.3       1 <0>        -0.1012
     37 C25        -2.2728   13.6492    1.2273 C.3       1 <0>        -0.0867
     38 C26        -1.5324   14.6877    0.4245 C.ar      1 <0>        -0.0845
     39 C27        -1.3326   14.5008   -0.9305 C.ar      1 <0>        -0.1149
     40 C28        -0.6573   15.4555   -1.6677 C.ar      1 <0>        -0.1177
     41 C29        -0.1739   16.5927   -1.0482 C.ar      1 <0>        -0.1228
     42 C30        -0.3692   16.7772    0.3078 C.ar      1 <0>        -0.1181
     43 C31        -1.0483   15.8246    1.0442 C.ar      1 <0>        -0.1180
     44 H2         -8.5632   13.0248    1.0927 H         1 <0>         0.0532
     45 H3         -8.0965   14.7422    1.1209 H         1 <0>         0.0566
     46 H4         -8.3214   13.9065   -0.4345 H         1 <0>         0.0607
     47 H5         -5.9131   14.1657    0.0966 H         1 <0>         0.0768
     48 H6         -6.3799   12.4483    0.0684 H         1 <0>         0.0716
     49 H7         -6.5613   12.4274    2.5197 H         1 <0>         0.0586
     50 H8         -6.1914   14.1674    2.5828 H         1 <0>         0.0962
     51 H9         -4.2470   13.7768    3.9311 H         1 <0>         0.1121
     52 H10        -2.9135   12.8103    3.4803 H         1 <0>         0.1362
     53 H11        -7.4393    9.6415    3.1714 H         1 <0>         0.0604
     54 H12        -6.2831    8.4401    2.5484 H         1 <0>         0.1085
     55 H13        -8.2102    7.3336    3.6488 H         1 <0>         0.0606
     56 H14        -6.6988    7.0115    4.5321 H         1 <0>         0.0660
     57 H15        -7.8550    8.2129    5.1551 H         1 <0>         0.0560
     58 H16        -3.9004    8.3609    2.5460 H         1 <0>         0.1396
     59 H17        -2.1657    6.6750    2.9979 H         1 <0>         0.1293
     60 H18        -1.8281    5.8361    5.2870 H         1 <0>         0.1254
     61 H19        -4.9863    8.3673    6.6694 H         1 <0>         0.1372
     62 H20        -2.4650    6.8930    7.9598 H         1 <0>         0.4290
     63 H21        -2.5355    3.1599    7.7694 H         1 <0>         0.1671
     64 H22        -2.5977    1.2518    6.1771 H         1 <0>         0.1628
     65 H23        -6.0701    2.9976    4.4097 H         1 <0>         0.1820
     66 H24        -5.8958   11.0487    3.7558 H         1 <0>         0.1818
     67 H25        -4.1399   13.9761    0.2036 H         1 <0>         0.0938
     68 H26        -3.9248   14.9582    1.6724 H         1 <0>         0.0952
     69 H27        -1.9005   13.6485    2.2518 H         1 <0>         0.0755
     70 H28        -2.1156   12.6664    0.7829 H         1 <0>         0.0857
     71 H29        -1.7070   13.6105   -1.4138 H         1 <0>         0.1228
     72 H30        -0.5051   15.3115   -2.7272 H         1 <0>         0.1220
     73 H31         0.3560   17.3373   -1.6237 H         1 <0>         0.1210
     74 H32         0.0085   17.6657    0.7918 H         1 <0>         0.1217
     75 H33        -1.2008   15.9687    2.1036 H         1 <0>         0.1211
@<TRIPOS>BOND
     1    1    2 1
     2    1   44 1
     3    1   45 1
     4    1   46 1
     5    2    3 1
     6    2   47 1
     7    2   48 1
     8    3    4 1
     9    3   49 1
    10    3   50 1
    11    4   10 1
    12    4    5 1
    13    4   36 1
    14    5   52 1
    15    5    6 1
    16    5   51 1
    17    6    7 1
    18    6   35 2
    19    7    8 1
    20    7   11 1
    21    7   66 1
    22    8    9 2
    23    8   10 1
    24   11   12 1
    25   11   13 1
    26   11   15 1
    27   13   14 1
    28   13   53 1
    29   13   54 1
    30   14   55 1
    31   14   56 1
    32   14   57 1
    33   15   20 ar
    34   15   16 ar
    35   16   17 ar
    36   16   58 1
    37   17   18 ar
    38   17   59 1
    39   18   19 ar
    40   18   60 1
    41   19   20 ar
    42   19   21 1
    43   20   61 1
    44   21   22 1
    45   21   62 1
    46   22   23 2
    47   22   24 2
    48   22   25 1
    49   25   30 ar
    50   25   26 ar
    51   26   27 ar
    52   26   63 1
    53   27   28 ar
    54   27   64 1
    55   28   29 ar
    56   28   31 1
    57   29   30 ar
    58   29   65 1
    59   31   32 1
    60   31   33 1
    61   31   34 1
    62   36   37 1
    63   36   67 1
    64   36   68 1
    65   37   38 1
    66   37   69 1
    67   37   70 1
    68   38   43 ar
    69   38   39 ar
    70   39   40 ar
    71   39   71 1
    72   40   41 ar
    73   40   72 1
    74   41   42 ar
    75   41   73 1
    76   42   43 ar
    77   42   74 1
    78   43   75 1
@<TRIPOS>MOLECULE
ZINC03815631
   73    77     0     0     0
SMALL
USER_CHARGES

@<TRIPOS>ATOM
      1 C1         -1.4322   -5.4378   -5.0484 C.3       1 <0>        -0.1554
      2 C2         -1.8470   -3.9991   -4.7339 C.3       1 <0>        -0.1192
      3 C3         -1.4760   -3.0928   -5.9095 C.3       1 <0>        -0.0446
      4 H1         -0.4104   -3.1866   -6.1184 H         1 <0>         0.1092
      5 C4         -2.2765   -3.5076   -7.1456 C.3       1 <0>        -0.1158
      6 C5         -1.7390   -2.7687   -8.3729 C.3       1 <0>        -0.0896
      7 C6         -2.0669   -1.2769   -8.2572 C.3       1 <0>        -0.1678
      8 C7         -1.5974   -0.5595   -9.5257 C.3       1 <0>         0.0637
      9 O1         -2.2226   -1.1505  -10.6667 O.3       1 <0>        -0.3802
     10 C8         -1.9121   -2.5330  -10.8516 C.3       1 <0>         0.0595
     11 C9         -2.3962   -3.3301   -9.6375 C.3       1 <0>        -0.1506
     12 C10        -1.7955   -1.6619   -5.5610 C.2       1 <0>         0.1809
     13 C11        -0.7896   -0.7913   -5.3540 C.2       1 <0>        -0.2859
     14 C12        -1.0805    0.5536   -5.0334 C.2       1 <0>         0.2303
     15 C13        -2.4043    0.9397   -4.9277 C.2       1 <0>        -0.2670
     16 C14        -3.4060   -0.0124   -5.1535 C.2       1 <0>         0.4990
     17 O2         -4.5803    0.3080   -5.0704 O.2       1 <0>        -0.4349
     18 O3         -3.0765   -1.2784   -5.4621 O.3       1 <0>        -0.2608
     19 C15        -2.7627    2.3620   -4.5815 C.3       1 <0>         0.0528
     20 H2         -2.8164    2.4698   -3.4982 H         1 <0>         0.0858
     21 C16        -4.0992    2.7050   -5.1874 C.ar      1 <0>        -0.0328
     22 C17        -4.2438    2.7479   -6.5623 C.ar      1 <0>        -0.1115
     23 C18        -5.4684    3.0617   -7.1223 C.ar      1 <0>        -0.0916
     24 C19        -6.5517    3.3339   -6.3098 C.ar      1 <0>        -0.1387
     25 C20        -6.4100    3.2916   -4.9288 C.ar      1 <0>         0.1484
     26 C21        -5.1769    2.9807   -4.3694 C.ar      1 <0>        -0.1122
     27 N1         -7.5033    3.5668   -4.1042 N.pl3     1 <0>        -1.0544
     28 S1         -8.9812    2.8986   -4.4383 S.o2      1 <0>         2.7244
     29 O4         -9.2306    3.1332   -5.8175 O.2       1 <0>        -0.9347
     30 O5         -9.8665    3.3402   -3.4182 O.2       1 <0>        -0.9565
     31 C22        -8.8202    1.1547   -4.2451 C.2       1 <0>        -0.5568
     32 C23        -9.0261    0.4620   -3.1088 C.2       1 <0>         0.0663
     33 N2         -8.7939   -0.8552   -3.4003 N.pl3     1 <0>        -0.4544
     34 C24        -8.4541   -0.9215   -4.7055 C.2       1 <0>         0.1926
     35 N3         -8.4671    0.2848   -5.2031 N.2       1 <0>        -0.3983
     36 C25        -8.8957   -1.9824   -2.4701 C.3       1 <0>         0.0652
     37 C26        -1.6941    3.3064   -5.1356 C.3       1 <0>        -0.1227
     38 C27        -0.7975    4.0279   -4.1274 C.3       1 <0>        -0.1749
     39 C28        -1.8770    4.8047   -4.8853 C.3       1 <0>        -0.1776
     40 O6         -0.0829    1.4456   -4.8285 O.3       1 <0>        -0.4734
     41 H3         -1.7602   -6.0948   -4.2429 H         1 <0>         0.0608
     42 H4         -1.8934   -5.7525   -5.9845 H         1 <0>         0.0625
     43 H5         -0.3475   -5.4910   -5.1418 H         1 <0>         0.0581
     44 H6         -1.3300   -3.6598   -3.8363 H         1 <0>         0.0687
     45 H7         -2.9239   -3.9590   -4.5700 H         1 <0>         0.0726
     46 H8         -2.1796   -4.5826   -7.2974 H         1 <0>         0.0845
     47 H9         -3.3267   -3.2544   -7.0002 H         1 <0>         0.0783
     48 H10        -0.6588   -2.9010   -8.4339 H         1 <0>         0.0736
     49 H11        -3.1434   -1.1483   -8.1448 H         1 <0>         0.0736
     50 H12        -1.5565   -0.8580   -7.3900 H         1 <0>         0.0768
     51 H13        -0.5151   -0.6530   -9.6150 H         1 <0>         0.0487
     52 H14        -1.8677    0.4949   -9.4684 H         1 <0>         0.0917
     53 H15        -0.8339   -2.6523  -10.9583 H         1 <0>         0.0493
     54 H16        -2.4091   -2.9005  -11.7494 H         1 <0>         0.0943
     55 H17        -2.1211   -4.3781   -9.7565 H         1 <0>         0.0747
     56 H18        -3.4796   -3.2452   -9.5533 H         1 <0>         0.0738
     57 H19         0.2362   -1.1187   -5.4374 H         1 <0>         0.1581
     58 H20        -3.3983    2.5356   -7.1998 H         1 <0>         0.1123
     59 H21        -5.5779    3.0944   -8.1962 H         1 <0>         0.1245
     60 H22        -7.5078    3.5797   -6.7479 H         1 <0>         0.1530
     61 H23        -5.0622    2.9513   -3.2959 H         1 <0>         0.1160
     62 H24        -7.3969    4.1493   -3.3359 H         1 <0>         0.4236
     63 H25        -9.3176    0.8677   -2.1513 H         1 <0>         0.1912
     64 H26        -8.2077   -1.8231   -5.2468 H         1 <0>         0.2125
     65 H27        -7.9317   -2.1434   -1.9875 H         1 <0>         0.0834
     66 H28        -9.6486   -1.7621   -1.7133 H         1 <0>         0.0915
     67 H29        -9.1825   -2.8803   -3.0174 H         1 <0>         0.0944
     68 H30        -1.2459    3.0054   -6.0825 H         1 <0>         0.1092
     69 H31        -0.9689    3.8297   -3.0694 H         1 <0>         0.0887
     70 H32         0.2405    4.2019   -4.4112 H         1 <0>         0.0950
     71 H33        -1.5488    5.4894   -5.6674 H         1 <0>         0.0936
     72 H34        -2.7588    5.1176   -4.3263 H         1 <0>         0.0930
     73 H35         0.2152    1.4982   -3.9101 H         1 <0>         0.4022
@<TRIPOS>BOND
     1    1    2 1
     2    1   41 1
     3    1   42 1
     4    1   43 1
     5    2    3 1
     6    2   44 1
     7    2   45 1
     8    3    4 1
     9    3    5 1
    10    3   12 1
    11    5    6 1
    12    5   46 1
    13    5   47 1
    14    6   11 1
    15    6    7 1
    16    6   48 1
    17    7    8 1
    18    7   49 1
    19    7   50 1
    20    8    9 1
    21    8   51 1
    22    8   52 1
    23    9   10 1
    24   10   11 1
    25   10   53 1
    26   10   54 1
    27   11   55 1
    28   11   56 1
    29   12   18 1
    30   12   13 2
    31   13   14 1
    32   13   57 1
    33   14   15 2
    34   14   40 1
    35   15   16 1
    36   15   19 1
    37   16   17 2
    38   16   18 1
    39   19   20 1
    40   19   21 1
    41   19   37 1
    42   21   26 ar
    43   21   22 ar
    44   22   23 ar
    45   22   58 1
    46   23   24 ar
    47   23   59 1
    48   24   25 ar
    49   24   60 1
    50   25   26 ar
    51   25   27 1
    52   26   61 1
    53   27   28 1
    54   27   62 1
    55   28   29 2
    56   28   30 2
    57   28   31 1
    58   31   35 1
    59   31   32 2
    60   32   33 1
    61   32   63 1
    62   33   34 1
    63   33   36 1
    64   34   35 2
    65   34   64 1
    66   36   65 1
    67   36   66 1
    68   36   67 1
    69   37   39 1
    70   37   38 1
    71   37   68 1
    72   38   39 1
    73   38   69 1
    74   38   70 1
    75   39   71 1
    76   39   72 1
    77   40   73 1
@<TRIPOS>MOLECULE
ZINC03815631
   74    78     0     0     0
SMALL
USER_CHARGES

@<TRIPOS>ATOM
      1 C1         -1.4322   -5.4378   -5.0484 C.3       1 <0>        -0.1579
      2 C2         -1.8470   -3.9991   -4.7339 C.3       1 <0>        -0.1170
      3 C3         -1.4760   -3.0928   -5.9095 C.3       1 <0>        -0.0476
      4 H1         -0.4104   -3.1866   -6.1184 H         1 <0>         0.1137
      5 C4         -2.2765   -3.5076   -7.1456 C.3       1 <0>        -0.1135
      6 C5         -1.7390   -2.7687   -8.3729 C.3       1 <0>        -0.0931
      7 C6         -2.0669   -1.2769   -8.2572 C.3       1 <0>        -0.1640
      8 C7         -1.5974   -0.5595   -9.5257 C.3       1 <0>         0.0617
      9 O1         -2.2226   -1.1505  -10.6667 O.3       1 <0>        -0.3803
     10 C8         -1.9121   -2.5330  -10.8516 C.3       1 <0>         0.0575
     11 C9         -2.3962   -3.3301   -9.6375 C.3       1 <0>        -0.1491
     12 C10        -1.7955   -1.6619   -5.5610 C.2       1 <0>         0.1852
     13 C11        -0.7896   -0.7913   -5.3540 C.2       1 <0>        -0.2818
     14 C12        -1.0805    0.5536   -5.0334 C.2       1 <0>         0.2494
     15 C13        -2.4043    0.9397   -4.9277 C.2       1 <0>        -0.2840
     16 C14        -3.4060   -0.0124   -5.1535 C.2       1 <0>         0.5121
     17 O2         -4.5803    0.3080   -5.0704 O.2       1 <0>        -0.4765
     18 O3         -3.0765   -1.2784   -5.4621 O.3       1 <0>        -0.2601
     19 C15        -2.7627    2.3620   -4.5815 C.3       1 <0>         0.0520
     20 H2         -2.8164    2.4698   -3.4982 H         1 <0>         0.0885
     21 C16        -4.0992    2.7050   -5.1874 C.ar      1 <0>        -0.0196
     22 C17        -4.2438    2.7479   -6.5623 C.ar      1 <0>        -0.0998
     23 C18        -5.4684    3.0617   -7.1223 C.ar      1 <0>        -0.0909
     24 C19        -6.5517    3.3339   -6.3098 C.ar      1 <0>        -0.1620
     25 C20        -6.4100    3.2916   -4.9288 C.ar      1 <0>         0.1197
     26 C21        -5.1769    2.9807   -4.3694 C.ar      1 <0>        -0.1047
     27 N1         -7.5033    3.5668   -4.1042 N.pl3     1 <0>        -1.0368
     28 S1         -8.9812    2.8986   -4.4383 S.o2      1 <0>         2.7021
     29 O4         -9.2306    3.1332   -5.8175 O.2       1 <0>        -0.9131
     30 O5         -9.8665    3.3402   -3.4182 O.2       1 <0>        -0.9109
     31 C22        -8.8202    1.1547   -4.2451 C.2       1 <0>        -0.5528
     32 C23        -9.0261    0.4620   -3.1088 C.2       1 <0>         0.1558
     33 N2         -8.7939   -0.8552   -3.4003 N.pl3     1 <0>        -0.4179
     34 C24        -8.4541   -0.9215   -4.7055 C.cat     1 <0>         0.3311
     35 C25        -8.8957   -1.9824   -2.4701 C.3       1 <0>         0.0516
     36 C26        -1.6941    3.3064   -5.1356 C.3       1 <0>        -0.1312
     37 C27        -0.7975    4.0279   -4.1274 C.3       1 <0>        -0.1713
     38 C28        -1.8770    4.8047   -4.8853 C.3       1 <0>        -0.1772
     39 O6         -0.0829    1.4456   -4.8285 O.3       1 <0>        -0.4716
     40 H3         -1.7602   -6.0948   -4.2429 H         1 <0>         0.0629
     41 H4         -1.8934   -5.7525   -5.9845 H         1 <0>         0.0630
     42 H5         -0.3475   -5.4910   -5.1418 H         1 <0>         0.0610
     43 H6         -1.3300   -3.6598   -3.8363 H         1 <0>         0.0699
     44 H7         -2.9239   -3.9590   -4.5700 H         1 <0>         0.0695
     45 H8         -2.1796   -4.5826   -7.2974 H         1 <0>         0.0875
     46 H9         -3.3267   -3.2544   -7.0002 H         1 <0>         0.0743
     47 H10        -0.6588   -2.9010   -8.4339 H         1 <0>         0.0771
     48 H11        -3.1434   -1.1483   -8.1448 H         1 <0>         0.0686
     49 H12        -1.5565   -0.8580   -7.3900 H         1 <0>         0.0742
     50 H13        -0.5151   -0.6530   -9.6150 H         1 <0>         0.0516
     51 H14        -1.8677    0.4949   -9.4684 H         1 <0>         0.0908
     52 H15        -0.8339   -2.6523  -10.9583 H         1 <0>         0.0525
     53 H16        -2.4091   -2.9005  -11.7494 H         1 <0>         0.0967
     54 H17        -2.1211   -4.3781   -9.7565 H         1 <0>         0.0773
     55 H18        -3.4796   -3.2452   -9.5533 H         1 <0>         0.0710
     56 H19         0.2362   -1.1187   -5.4374 H         1 <0>         0.1639
     57 H20        -3.3983    2.5356   -7.1998 H         1 <0>         0.1206
     58 H21        -5.5779    3.0944   -8.1962 H         1 <0>         0.1320
     59 H22        -7.5078    3.5797   -6.7479 H         1 <0>         0.1547
     60 H23        -5.0622    2.9513   -3.2959 H         1 <0>         0.1232
     61 H24        -7.3969    4.1493   -3.3359 H         1 <0>         0.4358
     62 H25        -9.3176    0.8677   -2.1513 H         1 <0>         0.2388
     63 H26        -8.2077   -1.8231   -5.2468 H         1 <0>         0.2700
     64 H27        -7.9317   -2.1434   -1.9875 H         1 <0>         0.1146
     65 H28        -9.6486   -1.7621   -1.7133 H         1 <0>         0.1220
     66 H29        -9.1825   -2.8803   -3.0174 H         1 <0>         0.1203
     67 H30        -1.2459    3.0054   -6.0825 H         1 <0>         0.1110
     68 H31        -0.9689    3.8297   -3.0694 H         1 <0>         0.0906
     69 H32         0.2405    4.2019   -4.4112 H         1 <0>         0.0988
     70 H33        -1.5488    5.4894   -5.6674 H         1 <0>         0.0965
     71 H34        -2.7588    5.1176   -4.3263 H         1 <0>         0.0920
     72 H35         0.2152    1.4982   -3.9101 H         1 <0>         0.4083
     73 N3         -8.4674    0.2845   -5.2018 N.pl3     1 <0>        -0.4248
     74 H36        -8.2428    0.5291   -6.1734 H         1 <0>         0.4882
@<TRIPOS>BOND
     1    1    2 1
     2    1   40 1
     3    1   41 1
     4    1   42 1
     5    2    3 1
     6    2   43 1
     7    2   44 1
     8    3    4 1
     9    3    5 1
    10    3   12 1
    11    5    6 1
    12    5   45 1
    13    5   46 1
    14    6   11 1
    15    6    7 1
    16    6   47 1
    17    7    8 1
    18    7   48 1
    19    7   49 1
    20    8    9 1
    21    8   50 1
    22    8   51 1
    23    9   10 1
    24   10   11 1
    25   10   52 1
    26   10   53 1
    27   11   54 1
    28   11   55 1
    29   12   18 1
    30   12   13 2
    31   13   14 1
    32   13   56 1
    33   14   15 2
    34   14   39 1
    35   15   16 1
    36   15   19 1
    37   16   17 2
    38   16   18 1
    39   19   20 1
    40   19   21 1
    41   19   36 1
    42   21   26 ar
    43   21   22 ar
    44   22   23 ar
    45   22   57 1
    46   23   24 ar
    47   23   58 1
    48   24   25 ar
    49   24   59 1
    50   25   26 ar
    51   25   27 1
    52   26   60 1
    53   27   28 1
    54   27   61 1
    55   28   29 2
    56   28   30 2
    57   28   31 1
    58   31   32 2
    59   31   73 1
    60   32   33 1
    61   32   62 1
    62   33   34 1
    63   33   35 1
    64   34   63 1
    65   34   73 2
    66   35   64 1
    67   35   65 1
    68   35   66 1
    69   36   38 1
    70   36   37 1
    71   36   67 1
    72   37   38 1
    73   37   68 1
    74   37   69 1
    75   38   70 1
    76   38   71 1
    77   39   72 1
    78   73   74 1
@<TRIPOS>MOLECULE
ZINC03815632
   62    65     0     0     0
SMALL
USER_CHARGES

@<TRIPOS>ATOM
      1 C1          1.4495   -2.1835   -6.6431 C.3       1 <0>        -0.1564
      2 C2          0.5588   -3.0638   -5.7642 C.3       1 <0>        -0.1233
      3 C3         -0.9000   -2.9073   -6.1980 C.3       1 <0>        -0.0435
      4 C4         -1.7720   -3.8955   -5.4208 C.3       1 <0>        -0.1217
      5 C5         -1.3918   -5.3258   -5.8088 C.3       1 <0>        -0.1536
      6 C6         -1.3602   -1.5006   -5.9147 C.2       1 <0>         0.1676
      7 C7         -1.7856   -0.7266   -6.9309 C.2       1 <0>        -0.2753
      8 C8         -2.2241    0.5914   -6.6730 C.2       1 <0>         0.2306
      9 C9         -2.1930    1.0591   -5.3718 C.2       1 <0>        -0.2669
     10 C10        -1.7398    0.2062   -4.3579 C.2       1 <0>         0.4988
     11 O1         -1.7089    0.5967   -3.2024 O.2       1 <0>        -0.4365
     12 O2         -1.3384   -1.0416   -4.6550 O.3       1 <0>        -0.2609
     13 C11        -2.6449    2.4602   -5.0499 C.3       1 <0>         0.0527
     14 H1         -1.8031    3.1454   -5.1495 H         1 <0>         0.0862
     15 C12        -3.1666    2.5075   -3.6369 C.ar      1 <0>        -0.0323
     16 C13        -4.3081    1.8039   -3.2981 C.ar      1 <0>        -0.1125
     17 C14        -4.7900    1.8442   -2.0027 C.ar      1 <0>        -0.0922
     18 C15        -4.1325    2.5883   -1.0425 C.ar      1 <0>        -0.1390
     19 C16        -2.9859    3.2960   -1.3793 C.ar      1 <0>         0.1484
     20 C17        -2.5072    3.2572   -2.6830 C.ar      1 <0>        -0.1121
     21 N1         -2.3189    4.0498   -0.4109 N.pl3     1 <0>        -1.0544
     22 S1         -2.0431    3.4100    1.0914 S.o2      1 <0>         2.7249
     23 O3         -3.2802    2.8712    1.5367 O.2       1 <0>        -0.9351
     24 O4         -1.3319    4.3952    1.8281 O.2       1 <0>        -0.9564
     25 C18        -0.9459    2.0470    0.8837 C.2       1 <0>        -0.5571
     26 C19         0.3993    2.1016    0.9178 C.2       1 <0>         0.0664
     27 N2          0.8527    0.8263    0.7137 N.pl3     1 <0>        -0.4544
     28 C20        -0.2319    0.0362    0.5618 C.2       1 <0>         0.1926
     29 N3         -1.3039    0.7739    0.6598 N.2       1 <0>        -0.3988
     30 C21         2.2531    0.3983    0.6689 C.3       1 <0>         0.0652
     31 C22        -3.7557    2.8729   -6.0177 C.3       1 <0>        -0.1234
     32 C23        -3.4324    3.9643   -7.0402 C.3       1 <0>        -0.1743
     33 C24        -4.3504    4.2731   -5.8549 C.3       1 <0>        -0.1775
     34 O5         -2.6611    1.3830   -7.6807 O.3       1 <0>        -0.4737
     35 H2          1.2101   -1.1347   -6.4677 H         1 <0>         0.0497
     36 H3          2.4957   -2.3636   -6.3959 H         1 <0>         0.0604
     37 H4          1.2773   -2.4250   -7.6920 H         1 <0>         0.0588
     38 H5          0.6626   -2.7603   -4.7225 H         1 <0>         0.0728
     39 H6          0.8597   -4.1060   -5.8707 H         1 <0>         0.0818
     40 H7         -0.9852   -3.1094   -7.2658 H         1 <0>         0.1089
     41 H8         -1.6152   -3.7552   -4.3513 H         1 <0>         0.0746
     42 H9         -2.8210   -3.7207   -5.6602 H         1 <0>         0.0690
     43 H10        -2.0753   -6.0263   -5.3289 H         1 <0>         0.0610
     44 H11        -1.4570   -5.4382   -6.8910 H         1 <0>         0.0576
     45 H12        -0.3723   -5.5319   -5.4828 H         1 <0>         0.0597
     46 H13        -1.7960   -1.1137   -7.9391 H         1 <0>         0.1578
     47 H14        -4.8241    1.2214   -4.0470 H         1 <0>         0.1126
     48 H15        -5.6816    1.2936   -1.7415 H         1 <0>         0.1243
     49 H16        -4.5098    2.6199   -0.0311 H         1 <0>         0.1532
     50 H17        -1.6184    3.8100   -2.9492 H         1 <0>         0.1163
     51 H18        -2.0173    4.9481   -0.6183 H         1 <0>         0.4237
     52 H19         1.0041    2.9824    1.0754 H         1 <0>         0.1913
     53 H20        -0.2149   -1.0289    0.3840 H         1 <0>         0.2129
     54 H21         2.6196    0.4612   -0.3557 H         1 <0>         0.0835
     55 H22         2.8516    1.0461    1.3094 H         1 <0>         0.0915
     56 H23         2.3299   -0.6308    1.0197 H         1 <0>         0.0946
     57 H24        -4.4279    2.0738   -6.3302 H         1 <0>         0.1088
     58 H25        -2.4283    4.3882   -7.0233 H         1 <0>         0.0889
     59 H26        -3.8922    3.8833   -8.0251 H         1 <0>         0.0951
     60 H27        -5.4139    4.3953   -6.0605 H         1 <0>         0.0936
     61 H28        -3.9507    4.9002   -5.0579 H         1 <0>         0.0931
     62 H29        -1.9648    1.9077   -8.0990 H         1 <0>         0.4022
@<TRIPOS>BOND
     1    1    2 1
     2    1   35 1
     3    1   36 1
     4    1   37 1
     5    2    3 1
     6    2   38 1
     7    2   39 1
     8    3    4 1
     9    3    6 1
    10    3   40 1
    11    4    5 1
    12    4   41 1
    13    4   42 1
    14    5   43 1
    15    5   44 1
    16    5   45 1
    17    6   12 1
    18    6    7 2
    19    7    8 1
    20    7   46 1
    21    8    9 2
    22    8   34 1
    23    9   10 1
    24    9   13 1
    25   10   11 2
    26   10   12 1
    27   13   14 1
    28   13   15 1
    29   13   31 1
    30   15   20 ar
    31   15   16 ar
    32   16   17 ar
    33   16   47 1
    34   17   18 ar
    35   17   48 1
    36   18   19 ar
    37   18   49 1
    38   19   20 ar
    39   19   21 1
    40   20   50 1
    41   21   22 1
    42   21   51 1
    43   22   23 2
    44   22   24 2
    45   22   25 1
    46   25   29 1
    47   25   26 2
    48   26   27 1
    49   26   52 1
    50   27   28 1
    51   27   30 1
    52   28   29 2
    53   28   53 1
    54   30   54 1
    55   30   55 1
    56   30   56 1
    57   31   33 1
    58   31   32 1
    59   31   57 1
    60   32   33 1
    61   32   58 1
    62   32   59 1
    63   33   60 1
    64   33   61 1
    65   34   62 1
@<TRIPOS>MOLECULE
ZINC03815632
   63    66     0     0     0
SMALL
USER_CHARGES

@<TRIPOS>ATOM
      1 C1          1.4495   -2.1835   -6.6431 C.3       1 <0>        -0.1584
      2 C2          0.5588   -3.0638   -5.7642 C.3       1 <0>        -0.1215
      3 C3         -0.9000   -2.9073   -6.1980 C.3       1 <0>        -0.0465
      4 C4         -1.7720   -3.8955   -5.4208 C.3       1 <0>        -0.1190
      5 C5         -1.3918   -5.3258   -5.8088 C.3       1 <0>        -0.1564
      6 C6         -1.3602   -1.5006   -5.9147 C.2       1 <0>         0.1716
      7 C7         -1.7856   -0.7266   -6.9309 C.2       1 <0>        -0.2710
      8 C8         -2.2241    0.5914   -6.6730 C.2       1 <0>         0.2499
      9 C9         -2.1930    1.0591   -5.3718 C.2       1 <0>        -0.2839
     10 C10        -1.7398    0.2062   -4.3579 C.2       1 <0>         0.5119
     11 O1         -1.7089    0.5967   -3.2024 O.2       1 <0>        -0.4781
     12 O2         -1.3384   -1.0416   -4.6550 O.3       1 <0>        -0.2603
     13 C11        -2.6449    2.4602   -5.0499 C.3       1 <0>         0.0518
     14 H1         -1.8031    3.1454   -5.1495 H         1 <0>         0.0889
     15 C12        -3.1666    2.5075   -3.6369 C.ar      1 <0>        -0.0190
     16 C13        -4.3081    1.8039   -3.2981 C.ar      1 <0>        -0.1007
     17 C14        -4.7900    1.8442   -2.0027 C.ar      1 <0>        -0.0915
     18 C15        -4.1325    2.5883   -1.0425 C.ar      1 <0>        -0.1622
     19 C16        -2.9859    3.2960   -1.3793 C.ar      1 <0>         0.1198
     20 C17        -2.5072    3.2572   -2.6830 C.ar      1 <0>        -0.1046
     21 N1         -2.3189    4.0498   -0.4109 N.pl3     1 <0>        -1.0369
     22 S1         -2.0431    3.4100    1.0914 S.o2      1 <0>         2.7027
     23 O3         -3.2802    2.8712    1.5367 O.2       1 <0>        -0.9135
     24 O4         -1.3319    4.3952    1.8281 O.2       1 <0>        -0.9109
     25 C18        -0.9459    2.0470    0.8837 C.2       1 <0>        -0.5530
     26 C19         0.3993    2.1016    0.9178 C.2       1 <0>         0.1558
     27 N2          0.8527    0.8263    0.7137 N.pl3     1 <0>        -0.4180
     28 C20        -0.2319    0.0362    0.5618 C.cat     1 <0>         0.3312
     29 C21         2.2531    0.3983    0.6689 C.3       1 <0>         0.0516
     30 C22        -3.7557    2.8729   -6.0177 C.3       1 <0>        -0.1319
     31 C23        -3.4324    3.9643   -7.0402 C.3       1 <0>        -0.1707
     32 C24        -4.3504    4.2731   -5.8549 C.3       1 <0>        -0.1772
     33 O5         -2.6611    1.3830   -7.6807 O.3       1 <0>        -0.4719
     34 H2          1.2101   -1.1347   -6.4677 H         1 <0>         0.0478
     35 H3          2.4957   -2.3636   -6.3959 H         1 <0>         0.0625
     36 H4          1.2773   -2.4250   -7.6920 H         1 <0>         0.0621
     37 H5          0.6626   -2.7603   -4.7225 H         1 <0>         0.0691
     38 H6          0.8597   -4.1060   -5.8707 H         1 <0>         0.0850
     39 H7         -0.9852   -3.1094   -7.2658 H         1 <0>         0.1135
     40 H8         -1.6152   -3.7552   -4.3513 H         1 <0>         0.0709
     41 H9         -2.8210   -3.7207   -5.6602 H         1 <0>         0.0696
     42 H10        -2.0753   -6.0263   -5.3289 H         1 <0>         0.0629
     43 H11        -1.4570   -5.4382   -6.8910 H         1 <0>         0.0606
     44 H12        -0.3723   -5.5319   -5.4828 H         1 <0>         0.0606
     45 H13        -1.7960   -1.1137   -7.9391 H         1 <0>         0.1638
     46 H14        -4.8241    1.2214   -4.0470 H         1 <0>         0.1208
     47 H15        -5.6816    1.2936   -1.7415 H         1 <0>         0.1318
     48 H16        -4.5098    2.6199   -0.0311 H         1 <0>         0.1548
     49 H17        -1.6184    3.8100   -2.9492 H         1 <0>         0.1235
     50 H18        -2.0173    4.9481   -0.6183 H         1 <0>         0.4359
     51 H19         1.0041    2.9824    1.0754 H         1 <0>         0.2389
     52 H20        -0.2149   -1.0289    0.3840 H         1 <0>         0.2702
     53 H21         2.6196    0.4612   -0.3557 H         1 <0>         0.1147
     54 H22         2.8516    1.0461    1.3094 H         1 <0>         0.1220
     55 H23         2.3299   -0.6308    1.0197 H         1 <0>         0.1204
     56 H24        -4.4279    2.0738   -6.3302 H         1 <0>         0.1107
     57 H25        -2.4283    4.3882   -7.0233 H         1 <0>         0.0908
     58 H26        -3.8922    3.8833   -8.0251 H         1 <0>         0.0990
     59 H27        -5.4139    4.3953   -6.0605 H         1 <0>         0.0965
     60 H28        -3.9507    4.9002   -5.0579 H         1 <0>         0.0922
     61 H29        -1.9648    1.9077   -8.0990 H         1 <0>         0.4084
     62 N3         -1.3026    0.7744    0.6599 N.pl3     1 <0>        -0.4249
     63 H30        -2.2679    0.4339    0.5785 H         1 <0>         0.4881
@<TRIPOS>BOND
     1    1    2 1
     2    1   34 1
     3    1   35 1
     4    1   36 1
     5    2    3 1
     6    2   37 1
     7    2   38 1
     8    3    4 1
     9    3    6 1
    10    3   39 1
    11    4    5 1
    12    4   40 1
    13    4   41 1
    14    5   42 1
    15    5   43 1
    16    5   44 1
    17    6   12 1
    18    6    7 2
    19    7    8 1
    20    7   45 1
    21    8    9 2
    22    8   33 1
    23    9   10 1
    24    9   13 1
    25   10   11 2
    26   10   12 1
    27   13   14 1
    28   13   15 1
    29   13   30 1
    30   15   20 ar
    31   15   16 ar
    32   16   17 ar
    33   16   46 1
    34   17   18 ar
    35   17   47 1
    36   18   19 ar
    37   18   48 1
    38   19   20 ar
    39   19   21 1
    40   20   49 1
    41   21   22 1
    42   21   50 1
    43   22   23 2
    44   22   24 2
    45   22   25 1
    46   25   26 2
    47   25   62 1
    48   26   27 1
    49   26   51 1
    50   27   28 1
    51   27   29 1
    52   28   52 1
    53   28   62 2
    54   29   53 1
    55   29   54 1
    56   29   55 1
    57   30   32 1
    58   30   31 1
    59   30   56 1
    60   31   32 1
    61   31   57 1
    62   31   58 1
    63   32   59 1
    64   32   60 1
    65   33   61 1
    66   62   63 1
@<TRIPOS>MOLECULE
ZINC03815633
   57    61     0     0     0
SMALL
USER_CHARGES

@<TRIPOS>ATOM
      1 C1          0.6792    0.8869    1.9362 C.3       1 <0>         0.0632
      2 N1          0.2157    0.8976    0.5465 N.pl3     1 <0>        -0.4549
      3 C2         -0.7102    0.0552   -0.0074 C.2       1 <0>         0.0761
      4 C3         -0.8379    0.4122   -1.2996 C.2       1 <0>        -0.5681
      5 N2         -0.0160    1.4475   -1.5273 N.2       1 <0>        -0.4103
      6 C4          0.6219    1.7405   -0.4272 C.2       1 <0>         0.1895
      7 S1         -1.9020   -0.3447   -2.4826 S.o2      1 <0>         2.7234
      8 O1         -1.3452   -0.0738   -3.7617 O.2       1 <0>        -0.9264
      9 O2         -2.1457   -1.6668   -2.0224 O.2       1 <0>        -0.9513
     10 N3         -3.3515    0.4534   -2.4187 N.pl3     1 <0>        -1.0531
     11 C5         -3.4258    1.7973   -2.7920 C.ar      1 <0>         0.1501
     12 C6         -2.4700    2.6991   -2.3407 C.ar      1 <0>        -0.1581
     13 C7         -2.5435    4.0259   -2.7159 C.ar      1 <0>        -0.0940
     14 C8         -3.5733    4.4598   -3.5309 C.ar      1 <0>        -0.1284
     15 C9         -4.5293    3.5661   -3.9771 C.ar      1 <0>        -0.0642
     16 C10        -4.4586    2.2364   -3.6103 C.ar      1 <0>        -0.0950
     17 C11        -5.6495    4.0434   -4.8650 C.3       1 <0>         0.0529
     18 H1         -5.8405    5.0993   -4.6732 H         1 <0>         0.1010
     19 C12        -5.2600    3.8576   -6.3089 C.2       1 <0>        -0.2420
     20 C13        -5.0884    4.9469   -7.1198 C.2       1 <0>         0.2344
     21 C14        -4.7042    4.7125   -8.5188 C.ar      1 <0>        -0.2122
     22 C15        -4.5086    5.7792   -9.4005 C.ar      1 <0>        -0.0049
     23 C16        -4.1567    5.5326  -10.6965 C.ar      1 <0>        -0.2282
     24 C17        -3.9915    4.2242  -11.1453 C.ar      1 <0>         0.1910
     25 C18        -4.1821    3.1559  -10.2843 C.ar      1 <0>        -0.1765
     26 C19        -4.5397    3.3899   -8.9649 C.ar      1 <0>         0.2000
     27 O3         -4.7308    2.3629   -8.1090 O.3       1 <0>        -0.2678
     28 C20        -5.0777    2.5683   -6.8281 C.2       1 <0>         0.5246
     29 O4         -5.2381    1.6069   -6.0963 O.2       1 <0>        -0.4439
     30 O5         -3.6415    3.9942  -12.4367 O.3       1 <0>        -0.3050
     31 C21        -3.4601    5.1385  -13.2732 C.3       1 <0>         0.0228
     32 O6         -5.2633    6.2019   -6.6465 O.3       1 <0>        -0.4755
     33 C22        -6.9142    3.2345   -4.5698 C.3       1 <0>        -0.1501
     34 C23        -8.2001    4.0130   -4.2843 C.3       1 <0>        -0.1776
     35 C24        -7.4736    3.2922   -3.1469 C.3       1 <0>        -0.1697
     36 H2          0.0451    1.5401    2.5357 H         1 <0>         0.0869
     37 H3          0.6283   -0.1288    2.3284 H         1 <0>         0.0935
     38 H4          1.7090    1.2416    1.9785 H         1 <0>         0.0964
     39 H5         -1.2374   -0.7420    0.4954 H         1 <0>         0.1962
     40 H6          1.3505    2.5296   -0.3132 H         1 <0>         0.2186
     41 H7         -4.1490   -0.0124   -2.1221 H         1 <0>         0.4259
     42 H8         -1.6682    2.3618   -1.7007 H         1 <0>         0.1463
     43 H9         -1.7986    4.7267   -2.3688 H         1 <0>         0.1249
     44 H10        -3.6309    5.4990   -3.8192 H         1 <0>         0.1192
     45 H11        -5.2057    1.5388   -3.9592 H         1 <0>         0.1438
     46 H12        -4.6357    6.7955   -9.0578 H         1 <0>         0.1456
     47 H13        -4.0052    6.3568  -11.3777 H         1 <0>         0.1429
     48 H14        -4.0523    2.1442  -10.6392 H         1 <0>         0.1555
     49 H15        -4.3892    5.7066  -13.3183 H         1 <0>         0.0620
     50 H16        -2.6695    5.7669  -12.8629 H         1 <0>         0.0621
     51 H17        -3.1830    4.8148  -14.2765 H         1 <0>         0.1075
     52 H18        -4.4608    6.6006   -6.2831 H         1 <0>         0.4070
     53 H19        -7.0056    2.2915   -5.1087 H         1 <0>         0.1181
     54 H20        -8.1450    5.1014   -4.3068 H         1 <0>         0.0943
     55 H21        -9.1377    3.5822   -4.6355 H         1 <0>         0.0933
     56 H22        -7.9333    2.3872   -2.7498 H         1 <0>         0.0942
     57 H23        -6.9404    3.9061   -2.4210 H         1 <0>         0.0942
@<TRIPOS>BOND
     1    1    2 1
     2    1   36 1
     3    1   37 1
     4    1   38 1
     5    2    6 1
     6    2    3 1
     7    3    4 2
     8    3   39 1
     9    4    5 1
    10    4    7 1
    11    5    6 2
    12    6   40 1
    13    7    8 2
    14    7    9 2
    15    7   10 1
    16   10   11 1
    17   10   41 1
    18   11   16 ar
    19   11   12 ar
    20   12   13 ar
    21   12   42 1
    22   13   14 ar
    23   13   43 1
    24   14   15 ar
    25   14   44 1
    26   15   16 ar
    27   15   17 1
    28   16   45 1
    29   17   18 1
    30   17   19 1
    31   17   33 1
    32   19   28 1
    33   19   20 2
    34   20   21 1
    35   20   32 1
    36   21   26 ar
    37   21   22 ar
    38   22   23 ar
    39   22   46 1
    40   23   24 ar
    41   23   47 1
    42   24   25 ar
    43   24   30 1
    44   25   26 ar
    45   25   48 1
    46   26   27 1
    47   27   28 1
    48   28   29 2
    49   30   31 1
    50   31   49 1
    51   31   50 1
    52   31   51 1
    53   32   52 1
    54   33   35 1
    55   33   34 1
    56   33   53 1
    57   34   35 1
    58   34   54 1
    59   34   55 1
    60   35   56 1
    61   35   57 1
@<TRIPOS>MOLECULE
ZINC03815633
   58    62     0     0     0
SMALL
USER_CHARGES

@<TRIPOS>ATOM
      1 C1          0.6792    0.8869    1.9362 C.3       1 <0>         0.0496
      2 N1          0.2157    0.8976    0.5465 N.pl3     1 <0>        -0.4170
      3 C2         -0.7102    0.0552   -0.0074 C.2       1 <0>         0.1631
      4 C3         -0.8379    0.4122   -1.2996 C.2       1 <0>        -0.5616
      5 C4          0.6219    1.7405   -0.4272 C.cat     1 <0>         0.3267
      6 S1         -1.9020   -0.3447   -2.4826 S.o2      1 <0>         2.7032
      7 O1         -1.3452   -0.0738   -3.7617 O.2       1 <0>        -0.9032
      8 O2         -2.1457   -1.6668   -2.0224 O.2       1 <0>        -0.9039
      9 N2         -3.3515    0.4534   -2.4187 N.pl3     1 <0>        -1.0385
     10 C5         -3.4258    1.7973   -2.7920 C.ar      1 <0>         0.1476
     11 C6         -2.4700    2.6991   -2.3407 C.ar      1 <0>        -0.1954
     12 C7         -2.5435    4.0259   -2.7159 C.ar      1 <0>        -0.0895
     13 C8         -3.5733    4.4598   -3.5309 C.ar      1 <0>        -0.1193
     14 C9         -4.5293    3.5661   -3.9771 C.ar      1 <0>        -0.0373
     15 C10        -4.4586    2.2364   -3.6103 C.ar      1 <0>        -0.0847
     16 C11        -5.6495    4.0434   -4.8650 C.3       1 <0>         0.0490
     17 H1         -5.8405    5.0993   -4.6732 H         1 <0>         0.1056
     18 C12        -5.2600    3.8576   -6.3089 C.2       1 <0>        -0.2603
     19 C13        -5.0884    4.9469   -7.1198 C.2       1 <0>         0.2506
     20 C14        -4.7042    4.7125   -8.5188 C.ar      1 <0>        -0.2198
     21 C15        -4.5086    5.7792   -9.4005 C.ar      1 <0>        -0.0020
     22 C16        -4.1567    5.5326  -10.6965 C.ar      1 <0>        -0.2265
     23 C17        -3.9915    4.2242  -11.1453 C.ar      1 <0>         0.1983
     24 C18        -4.1821    3.1559  -10.2843 C.ar      1 <0>        -0.1781
     25 C19        -4.5397    3.3899   -8.9649 C.ar      1 <0>         0.2005
     26 O3         -4.7308    2.3629   -8.1090 O.3       1 <0>        -0.2661
     27 C20        -5.0777    2.5683   -6.8281 C.2       1 <0>         0.5277
     28 O4         -5.2381    1.6069   -6.0963 O.2       1 <0>        -0.4552
     29 O5         -3.6415    3.9942  -12.4367 O.3       1 <0>        -0.3028
     30 C21        -3.4601    5.1385  -13.2732 C.3       1 <0>         0.0212
     31 O6         -5.2633    6.2019   -6.6465 O.3       1 <0>        -0.4739
     32 C22        -6.9142    3.2345   -4.5698 C.3       1 <0>        -0.1563
     33 C23        -8.2001    4.0130   -4.2843 C.3       1 <0>        -0.1726
     34 C24        -7.4736    3.2922   -3.1469 C.3       1 <0>        -0.1722
     35 H2          0.0451    1.5401    2.5357 H         1 <0>         0.1175
     36 H3          0.6283   -0.1288    2.3284 H         1 <0>         0.1238
     37 H4          1.7090    1.2416    1.9785 H         1 <0>         0.1221
     38 H5         -1.2374   -0.7420    0.4954 H         1 <0>         0.2425
     39 H6          1.3505    2.5296   -0.3132 H         1 <0>         0.2750
     40 H7         -4.1490   -0.0124   -2.1221 H         1 <0>         0.4388
     41 H8         -1.6682    2.3618   -1.7007 H         1 <0>         0.1028
     42 H9         -1.7986    4.7267   -2.3688 H         1 <0>         0.1315
     43 H10        -3.6309    5.4990   -3.8192 H         1 <0>         0.1303
     44 H11        -5.2057    1.5388   -3.9592 H         1 <0>         0.1547
     45 H12        -4.6357    6.7955   -9.0578 H         1 <0>         0.1473
     46 H13        -4.0052    6.3568  -11.3777 H         1 <0>         0.1458
     47 H14        -4.0523    2.1442  -10.6392 H         1 <0>         0.1569
     48 H15        -4.3892    5.7066  -13.3183 H         1 <0>         0.0643
     49 H16        -2.6695    5.7669  -12.8629 H         1 <0>         0.0633
     50 H17        -3.1830    4.8148  -14.2765 H         1 <0>         0.1105
     51 H18        -4.4608    6.6006   -6.2831 H         1 <0>         0.4080
     52 H19        -7.0056    2.2915   -5.1087 H         1 <0>         0.1205
     53 H20        -8.1450    5.1014   -4.3068 H         1 <0>         0.0966
     54 H21        -9.1377    3.5822   -4.6355 H         1 <0>         0.0973
     55 H22        -7.9333    2.3872   -2.7498 H         1 <0>         0.0962
     56 H23        -6.9404    3.9061   -2.4210 H         1 <0>         0.0926
     57 N3         -0.0162    1.4468   -1.5261 N.pl3     1 <0>        -0.4355
     58 H24         0.0937    1.9322   -2.4242 H         1 <0>         0.4904
@<TRIPOS>BOND
     1    1    2 1
     2    1   35 1
     3    1   36 1
     4    1   37 1
     5    2    5 1
     6    2    3 1
     7    3    4 2
     8    3   38 1
     9    4    6 1
    10    4   57 1
    11    5   39 1
    12    5   57 2
    13    6    7 2
    14    6    8 2
    15    6    9 1
    16    9   10 1
    17    9   40 1
    18   10   15 ar
    19   10   11 ar
    20   11   12 ar
    21   11   41 1
    22   12   13 ar
    23   12   42 1
    24   13   14 ar
    25   13   43 1
    26   14   15 ar
    27   14   16 1
    28   15   44 1
    29   16   17 1
    30   16   18 1
    31   16   32 1
    32   18   27 1
    33   18   19 2
    34   19   20 1
    35   19   31 1
    36   20   25 ar
    37   20   21 ar
    38   21   22 ar
    39   21   45 1
    40   22   23 ar
    41   22   46 1
    42   23   24 ar
    43   23   29 1
    44   24   25 ar
    45   24   47 1
    46   25   26 1
    47   26   27 1
    48   27   28 2
    49   29   30 1
    50   30   48 1
    51   30   49 1
    52   30   50 1
    53   31   51 1
    54   32   34 1
    55   32   33 1
    56   32   52 1
    57   33   34 1
    58   33   53 1
    59   33   54 1
    60   34   55 1
    61   34   56 1
    62   57   58 1
@<TRIPOS>MOLECULE
ZINC03815634
   63    67     0     0     0
SMALL
USER_CHARGES

@<TRIPOS>ATOM
      1 C1         13.5124   -0.8331    6.7843 C.3       1 <0>         0.0635
      2 N1         13.5998   -1.4699    5.4678 N.pl3     1 <0>        -0.4549
      3 C2         13.3990   -2.7955    5.1918 C.2       1 <0>         0.0757
      4 C3         13.5768   -2.9486    3.8657 C.2       1 <0>        -0.5676
      5 N2         13.8830   -1.7502    3.3470 N.2       1 <0>        -0.4091
      6 C4         13.8936   -0.8588    4.3000 C.2       1 <0>         0.1896
      7 S1         13.4390   -4.4599    2.9702 S.o2      1 <0>         2.7251
      8 O1         13.6689   -5.5070    3.9030 O.2       1 <0>        -0.9531
      9 O2         14.2169   -4.3057    1.7911 O.2       1 <0>        -0.9283
     10 N3         11.8625   -4.5980    2.4826 N.pl3     1 <0>        -1.0545
     11 C5         11.3301   -3.6817    1.5727 C.ar      1 <0>         0.1578
     12 C6         11.5696   -2.3226    1.7326 C.ar      1 <0>        -0.1606
     13 C7         11.0421   -1.4195    0.8310 C.ar      1 <0>        -0.0849
     14 C8         10.2808   -1.8670   -0.2335 C.ar      1 <0>        -0.1155
     15 C9         10.0359   -3.2185   -0.3923 C.ar      1 <0>        -0.0265
     16 C10        10.5605   -4.1273    0.5058 C.ar      1 <0>        -0.1177
     17 C11         9.2007   -3.7010   -1.5502 C.3       1 <0>         0.0505
     18 H1          9.0799   -4.7824   -1.4854 H         1 <0>         0.0898
     19 C12         7.8470   -3.0406   -1.5028 C.2       1 <0>        -0.2645
     20 C13         7.1495   -2.7813   -2.6686 C.2       1 <0>         0.2310
     21 C14         5.8815   -2.1648   -2.5778 C.2       1 <0>        -0.2697
     22 C15         5.3833   -1.8351   -1.3713 C.2       1 <0>         0.1575
     23 O3          6.0658   -2.0898   -0.2456 O.3       1 <0>        -0.2636
     24 C16         7.2737   -2.6784   -0.2776 C.2       1 <0>         0.5028
     25 O4          7.8717   -2.8979    0.7629 O.2       1 <0>        -0.4457
     26 C17         4.0320   -1.1737   -1.2841 C.3       1 <0>        -0.0728
     27 C18         2.9463   -2.2453   -1.1667 C.3       1 <0>        -0.0762
     28 C19         1.5950   -1.5840   -1.0795 C.ar      1 <0>        -0.0884
     29 C20         0.8811   -1.3158   -2.2324 C.ar      1 <0>        -0.1150
     30 C21        -0.3585   -0.7091   -2.1524 C.ar      1 <0>        -0.1182
     31 C22        -0.8840   -0.3706   -0.9194 C.ar      1 <0>        -0.1202
     32 C23        -0.1702   -0.6392    0.2335 C.ar      1 <0>        -0.1174
     33 C24         1.0693   -1.2458    0.1535 C.ar      1 <0>        -0.1140
     34 O5          7.6693   -3.1166   -3.8729 O.3       1 <0>        -0.4732
     35 C25         9.8968   -3.3436   -2.8650 C.3       1 <0>        -0.1246
     36 C26        10.0927   -4.4643   -3.8881 C.3       1 <0>        -0.1761
     37 C27        11.2921   -3.9231   -3.1059 C.3       1 <0>        -0.1777
     38 H2         14.4898   -0.8589    7.2660 H         1 <0>         0.0866
     39 H3         13.1925    0.2022    6.6665 H         1 <0>         0.0965
     40 H4         12.7897   -1.3689    7.3997 H         1 <0>         0.0932
     41 H5         13.1467   -3.5698    5.9012 H         1 <0>         0.1957
     42 H6         14.1063    0.1928    4.1759 H         1 <0>         0.2185
     43 H7         11.3088   -5.3153    2.8288 H         1 <0>         0.4249
     44 H8         12.1679   -1.9728    2.5609 H         1 <0>         0.1444
     45 H9         11.2278   -0.3628    0.9547 H         1 <0>         0.1214
     46 H10         9.8734   -1.1589   -0.9399 H         1 <0>         0.1125
     47 H11        10.3728   -5.1832    0.3785 H         1 <0>         0.1216
     48 H12         5.3154   -1.9555   -3.4734 H         1 <0>         0.1601
     49 H13         3.8600   -0.5790   -2.1812 H         1 <0>         0.1074
     50 H14         4.0001   -0.5266   -0.4075 H         1 <0>         0.0976
     51 H15         3.1184   -2.8401   -0.2696 H         1 <0>         0.0815
     52 H16         2.9783   -2.8924   -2.0433 H         1 <0>         0.0813
     53 H17         1.2918   -1.5800   -3.1957 H         1 <0>         0.1228
     54 H18        -0.9161   -0.4993   -3.0531 H         1 <0>         0.1231
     55 H19        -1.8503    0.1078   -0.8572 H         1 <0>         0.1223
     56 H20        -0.5807   -0.3744    1.1967 H         1 <0>         0.1232
     57 H21         1.6270   -1.4556    1.0543 H         1 <0>         0.1232
     58 H22         7.4347   -4.0069   -4.1684 H         1 <0>         0.4034
     59 H23         9.6945   -2.3430   -3.2471 H         1 <0>         0.1109
     60 H24         9.7257   -5.4562   -3.6244 H         1 <0>         0.0897
     61 H25        10.0197   -4.2009   -4.9432 H         1 <0>         0.0952
     62 H26        12.0077   -3.3040   -3.6469 H         1 <0>         0.0943
     63 H27        11.7144   -4.5587   -2.3276 H         1 <0>         0.0953
@<TRIPOS>BOND
     1    1    2 1
     2    1   38 1
     3    1   39 1
     4    1   40 1
     5    2    6 1
     6    2    3 1
     7    3    4 2
     8    3   41 1
     9    4    5 1
    10    4    7 1
    11    5    6 2
    12    6   42 1
    13    7    8 2
    14    7    9 2
    15    7   10 1
    16   10   11 1
    17   10   43 1
    18   11   16 ar
    19   11   12 ar
    20   12   13 ar
    21   12   44 1
    22   13   14 ar
    23   13   45 1
    24   14   15 ar
    25   14   46 1
    26   15   16 ar
    27   15   17 1
    28   16   47 1
    29   17   18 1
    30   17   19 1
    31   17   35 1
    32   19   24 1
    33   19   20 2
    34   20   21 1
    35   20   34 1
    36   21   22 2
    37   21   48 1
    38   22   23 1
    39   22   26 1
    40   23   24 1
    41   24   25 2
    42   26   27 1
    43   26   49 1
    44   26   50 1
    45   27   28 1
    46   27   51 1
    47   27   52 1
    48   28   33 ar
    49   28   29 ar
    50   29   30 ar
    51   29   53 1
    52   30   31 ar
    53   30   54 1
    54   31   32 ar
    55   31   55 1
    56   32   33 ar
    57   32   56 1
    58   33   57 1
    59   34   58 1
    60   35   37 1
    61   35   36 1
    62   35   59 1
    63   36   37 1
    64   36   60 1
    65   36   61 1
    66   37   62 1
    67   37   63 1
@<TRIPOS>MOLECULE
ZINC03815634
   64    68     0     0     0
SMALL
USER_CHARGES

@<TRIPOS>ATOM
      1 C1         13.5124   -0.8331    6.7843 C.3       1 <0>         0.0500
      2 N1         13.5998   -1.4699    5.4678 N.pl3     1 <0>        -0.4172
      3 C2         13.3990   -2.7955    5.1918 C.2       1 <0>         0.1629
      4 C3         13.5768   -2.9486    3.8657 C.2       1 <0>        -0.5611
      5 C4         13.8936   -0.8588    4.3000 C.cat     1 <0>         0.3272
      6 S1         13.4390   -4.4599    2.9702 S.o2      1 <0>         2.7055
      7 O1         13.6689   -5.5070    3.9030 O.2       1 <0>        -0.9062
      8 O2         14.2169   -4.3057    1.7911 O.2       1 <0>        -0.9057
      9 N2         11.8625   -4.5980    2.4826 N.pl3     1 <0>        -1.0399
     10 C5         11.3301   -3.6817    1.5727 C.ar      1 <0>         0.1560
     11 C6         11.5696   -2.3226    1.7326 C.ar      1 <0>        -0.1978
     12 C7         11.0421   -1.4195    0.8310 C.ar      1 <0>        -0.0805
     13 C8         10.2808   -1.8670   -0.2335 C.ar      1 <0>        -0.1058
     14 C9         10.0359   -3.2185   -0.3923 C.ar      1 <0>         0.0009
     15 C10        10.5605   -4.1273    0.5058 C.ar      1 <0>        -0.1083
     16 C11         9.2007   -3.7010   -1.5502 C.3       1 <0>         0.0476
     17 H1          9.0799   -4.7824   -1.4854 H         1 <0>         0.0935
     18 C12         7.8470   -3.0406   -1.5028 C.2       1 <0>        -0.2837
     19 C13         7.1495   -2.7813   -2.6686 C.2       1 <0>         0.2480
     20 C14         5.8815   -2.1648   -2.5778 C.2       1 <0>        -0.2728
     21 C15         5.3833   -1.8351   -1.3713 C.2       1 <0>         0.1669
     22 O3          6.0658   -2.0898   -0.2456 O.3       1 <0>        -0.2607
     23 C16         7.2737   -2.6784   -0.2776 C.2       1 <0>         0.5072
     24 O4          7.8717   -2.8979    0.7629 O.2       1 <0>        -0.4625
     25 C17         4.0320   -1.1737   -1.2841 C.3       1 <0>        -0.0753
     26 C18         2.9463   -2.2453   -1.1667 C.3       1 <0>        -0.0749
     27 C19         1.5950   -1.5840   -1.0795 C.ar      1 <0>        -0.0921
     28 C20         0.8811   -1.3158   -2.2324 C.ar      1 <0>        -0.1145
     29 C21        -0.3585   -0.7091   -2.1524 C.ar      1 <0>        -0.1169
     30 C22        -0.8840   -0.3706   -0.9194 C.ar      1 <0>        -0.1176
     31 C23        -0.1702   -0.6392    0.2335 C.ar      1 <0>        -0.1171
     32 C24         1.0693   -1.2458    0.1535 C.ar      1 <0>        -0.1144
     33 O5          7.6693   -3.1166   -3.8729 O.3       1 <0>        -0.4737
     34 C25         9.8968   -3.3436   -2.8650 C.3       1 <0>        -0.1302
     35 C26        10.0927   -4.4643   -3.8881 C.3       1 <0>        -0.1714
     36 C27        11.2921   -3.9231   -3.1059 C.3       1 <0>        -0.1801
     37 H2         14.4898   -0.8589    7.2660 H         1 <0>         0.1176
     38 H3         13.1925    0.2022    6.6665 H         1 <0>         0.1219
     39 H4         12.7897   -1.3689    7.3997 H         1 <0>         0.1231
     40 H5         13.1467   -3.5698    5.9012 H         1 <0>         0.2421
     41 H6         14.1063    0.1928    4.1759 H         1 <0>         0.2748
     42 H7         11.3088   -5.3153    2.8288 H         1 <0>         0.4379
     43 H8         12.1679   -1.9728    2.5609 H         1 <0>         0.1008
     44 H9         11.2278   -0.3628    0.9547 H         1 <0>         0.1280
     45 H10         9.8734   -1.1589   -0.9399 H         1 <0>         0.1237
     46 H11        10.3728   -5.1832    0.3785 H         1 <0>         0.1324
     47 H12         5.3154   -1.9555   -3.4734 H         1 <0>         0.1643
     48 H13         3.8600   -0.5790   -2.1812 H         1 <0>         0.1104
     49 H14         4.0001   -0.5266   -0.4075 H         1 <0>         0.0990
     50 H15         3.1184   -2.8401   -0.2696 H         1 <0>         0.0808
     51 H16         2.9783   -2.8924   -2.0433 H         1 <0>         0.0818
     52 H17         1.2918   -1.5800   -3.1957 H         1 <0>         0.1229
     53 H18        -0.9161   -0.4993   -3.0531 H         1 <0>         0.1246
     54 H19        -1.8503    0.1078   -0.8572 H         1 <0>         0.1239
     55 H20        -0.5807   -0.3744    1.1967 H         1 <0>         0.1239
     56 H21         1.6270   -1.4556    1.0543 H         1 <0>         0.1221
     57 H22         7.4347   -4.0069   -4.1684 H         1 <0>         0.4080
     58 H23         9.6945   -2.3430   -3.2471 H         1 <0>         0.1137
     59 H24         9.7257   -5.4562   -3.6244 H         1 <0>         0.0926
     60 H25        10.0197   -4.2009   -4.9432 H         1 <0>         0.0994
     61 H26        12.0077   -3.3040   -3.6469 H         1 <0>         0.0958
     62 H27        11.7144   -4.5587   -2.3276 H         1 <0>         0.0929
     63 N3         13.8827   -1.7505    3.3483 N.pl3     1 <0>        -0.4346
     64 H28        14.0780   -1.5639    2.3577 H         1 <0>         0.4909
@<TRIPOS>BOND
     1    1    2 1
     2    1   37 1
     3    1   38 1
     4    1   39 1
     5    2    5 1
     6    2    3 1
     7    3    4 2
     8    3   40 1
     9    4    6 1
    10    4   63 1
    11    5   41 1
    12    5   63 2
    13    6    7 2
    14    6    8 2
    15    6    9 1
    16    9   10 1
    17    9   42 1
    18   10   15 ar
    19   10   11 ar
    20   11   12 ar
    21   11   43 1
    22   12   13 ar
    23   12   44 1
    24   13   14 ar
    25   13   45 1
    26   14   15 ar
    27   14   16 1
    28   15   46 1
    29   16   17 1
    30   16   18 1
    31   16   34 1
    32   18   23 1
    33   18   19 2
    34   19   20 1
    35   19   33 1
    36   20   21 2
    37   20   47 1
    38   21   22 1
    39   21   25 1
    40   22   23 1
    41   23   24 2
    42   25   26 1
    43   25   48 1
    44   25   49 1
    45   26   27 1
    46   26   50 1
    47   26   51 1
    48   27   32 ar
    49   27   28 ar
    50   28   29 ar
    51   28   52 1
    52   29   30 ar
    53   29   53 1
    54   30   31 ar
    55   30   54 1
    56   31   32 ar
    57   31   55 1
    58   32   56 1
    59   33   57 1
    60   34   36 1
    61   34   35 1
    62   34   58 1
    63   35   36 1
    64   35   59 1
    65   35   60 1
    66   36   61 1
    67   36   62 1
    68   63   64 1
@<TRIPOS>MOLECULE
ZINC03815635
   73    76     0     0     0
SMALL
USER_CHARGES

@<TRIPOS>ATOM
      1 C1         -5.2290    0.8425    5.1478 C.3       1 <0>        -0.1534
      2 C2         -4.3208    0.2062    4.0936 C.3       1 <0>        -0.1233
      3 C3         -4.8811    0.4910    2.6987 C.3       1 <0>        -0.1521
      4 C4         -4.0387   -0.2403    1.6516 C.3       1 <0>         0.1277
      5 C5         -4.6057    0.0317    0.2537 C.3       1 <0>        -0.1687
      6 C6         -5.9621   -0.6188    0.1404 C.2       1 <0>         0.3336
      7 C7         -6.2487   -1.7068    0.8773 C.3       1 <0>        -0.2271
      8 C8         -5.2873   -2.2444    1.7656 C.2       1 <0>         0.5226
      9 O1         -5.5474   -3.2416    2.4122 O.2       1 <0>        -0.4265
     10 O2         -4.0808   -1.6511    1.8956 O.3       1 <0>        -0.3272
     11 C9         -7.6028   -2.3572    0.7567 C.3       1 <0>        -0.0060
     12 H1         -8.0823   -2.0297   -0.1657 H         1 <0>         0.1138
     13 C10        -7.4378   -3.8781    0.7336 C.3       1 <0>        -0.1409
     14 C11        -8.7973   -4.5349    0.4862 C.3       1 <0>        -0.1519
     15 C12        -8.4564   -1.9624    1.9343 C.ar      1 <0>        -0.0588
     16 C13        -7.9767   -2.1267    3.2211 C.ar      1 <0>        -0.1309
     17 C14        -8.7544   -1.7605    4.3041 C.ar      1 <0>        -0.0871
     18 C15       -10.0180   -1.2397    4.1043 C.ar      1 <0>        -0.1576
     19 C16       -10.5050   -1.0787    2.8136 C.ar      1 <0>         0.1536
     20 C17        -9.7187   -1.4424    1.7274 C.ar      1 <0>        -0.1189
     21 N1        -11.7825   -0.5528    2.6080 N.pl3     1 <0>        -1.0551
     22 S1        -13.0560   -1.0909    3.5196 S.o2      1 <0>         2.7240
     23 O3        -14.1967   -0.3562    3.0974 O.2       1 <0>        -0.9510
     24 O4        -13.0087   -2.5107    3.4853 O.2       1 <0>        -0.9268
     25 C18       -12.7403   -0.6167    5.1869 C.2       1 <0>        -0.5690
     26 C19       -13.1183    0.5389    5.7661 C.2       1 <0>         0.0763
     27 N2        -12.6730    0.4976    7.0598 N.pl3     1 <0>        -0.4544
     28 C20       -12.0379   -0.6825    7.2263 C.2       1 <0>         0.1905
     29 N3        -12.0865   -1.3458    6.1034 N.2       1 <0>        -0.4096
     30 C21       -12.8519    1.5392    8.0744 C.3       1 <0>         0.0631
     31 O5         -6.8859   -0.1104   -0.6992 O.2       1 <0>        -0.5112
     32 C22        -2.5913    0.2504    1.7231 C.3       1 <0>        -0.1008
     33 C23        -1.7775   -0.3963    0.6003 C.3       1 <0>        -0.0887
     34 C24        -0.3519    0.0870    0.6707 C.ar      1 <0>        -0.0843
     35 C25         0.5757   -0.6044    1.4273 C.ar      1 <0>        -0.1149
     36 C26         1.8848   -0.1643    1.4873 C.ar      1 <0>        -0.1175
     37 C27         2.2650    0.9702    0.7950 C.ar      1 <0>        -0.1229
     38 C28         1.3361    1.6648    0.0431 C.ar      1 <0>        -0.1182
     39 C29         0.0270    1.2248   -0.0170 C.ar      1 <0>        -0.1182
     40 H2         -5.2732    1.9196    4.9869 H         1 <0>         0.0536
     41 H3         -6.2311    0.4215    5.0658 H         1 <0>         0.0557
     42 H4         -4.8299    0.6396    6.1415 H         1 <0>         0.0575
     43 H5         -4.2767   -0.8710    4.2545 H         1 <0>         0.0712
     44 H6         -3.3187    0.6272    4.1756 H         1 <0>         0.0698
     45 H7         -4.8492    1.5634    2.5063 H         1 <0>         0.0906
     46 H8         -5.9124    0.1425    2.6433 H         1 <0>         0.0769
     47 H9         -4.6913    1.0183    0.1149 H         1 <0>         0.1169
     48 H10        -3.9358   -0.3840   -0.4990 H         1 <0>         0.1266
     49 H11        -6.7492   -4.1567   -0.0641 H         1 <0>         0.0610
     50 H12        -7.0403   -4.2151    1.6909 H         1 <0>         0.1075
     51 H13        -9.4859   -4.2563    1.2839 H         1 <0>         0.0653
     52 H14        -9.1948   -4.1979   -0.4711 H         1 <0>         0.0534
     53 H15        -8.6798   -5.6184    0.4697 H         1 <0>         0.0615
     54 H16        -6.9909   -2.5381    3.3802 H         1 <0>         0.1410
     55 H17        -8.3751   -1.8859    5.3075 H         1 <0>         0.1258
     56 H18       -10.6268   -0.9583    4.9508 H         1 <0>         0.1474
     57 H19       -10.0942   -1.3182    0.7225 H         1 <0>         0.1282
     58 H20       -11.9237    0.1277    1.9313 H         1 <0>         0.4259
     59 H21       -13.6675    1.3433    5.2996 H         1 <0>         0.1959
     60 H22       -11.5708   -1.0228    8.1386 H         1 <0>         0.2190
     61 H23       -13.7808    1.3626    8.6166 H         1 <0>         0.0870
     62 H24       -12.0141    1.5153    8.7713 H         1 <0>         0.0969
     63 H25       -12.8938    2.5148    7.5900 H         1 <0>         0.0933
     64 H26        -6.1477   -2.1337   -0.0214 H         1 <0>         0.1847
     65 H27        -2.1621   -0.0233    2.6869 H         1 <0>         0.0924
     66 H28        -2.5691    1.3343    1.6100 H         1 <0>         0.0946
     67 H29        -2.2068   -0.1226   -0.3635 H         1 <0>         0.0754
     68 H30        -1.7998   -1.4802    0.7134 H         1 <0>         0.0838
     69 H31         0.2788   -1.4909    1.9679 H         1 <0>         0.1229
     70 H32         2.6105   -0.7070    2.0748 H         1 <0>         0.1221
     71 H33         3.2877    1.3140    0.8419 H         1 <0>         0.1211
     72 H34         1.6330    2.5516   -0.4972 H         1 <0>         0.1216
     73 H35        -0.6988    1.7677   -0.6042 H         1 <0>         0.1211
@<TRIPOS>BOND
     1    1    2 1
     2    1   40 1
     3    1   41 1
     4    1   42 1
     5    2    3 1
     6    2   43 1
     7    2   44 1
     8    3    4 1
     9    3   45 1
    10    3   46 1
    11    4   10 1
    12    4    5 1
    13    4   32 1
    14    5   48 1
    15    5    6 1
    16    5   47 1
    17    6    7 1
    18    6   31 2
    19    7    8 1
    20    7   11 1
    21    7   64 1
    22    8    9 2
    23    8   10 1
    24   11   12 1
    25   11   13 1
    26   11   15 1
    27   13   14 1
    28   13   49 1
    29   13   50 1
    30   14   51 1
    31   14   52 1
    32   14   53 1
    33   15   20 ar
    34   15   16 ar
    35   16   17 ar
    36   16   54 1
    37   17   18 ar
    38   17   55 1
    39   18   19 ar
    40   18   56 1
    41   19   20 ar
    42   19   21 1
    43   20   57 1
    44   21   22 1
    45   21   58 1
    46   22   23 2
    47   22   24 2
    48   22   25 1
    49   25   29 1
    50   25   26 2
    51   26   27 1
    52   26   59 1
    53   27   28 1
    54   27   30 1
    55   28   29 2
    56   28   60 1
    57   30   61 1
    58   30   62 1
    59   30   63 1
    60   32   33 1
    61   32   65 1
    62   32   66 1
    63   33   34 1
    64   33   67 1
    65   33   68 1
    66   34   39 ar
    67   34   35 ar
    68   35   36 ar
    69   35   69 1
    70   36   37 ar
    71   36   70 1
    72   37   38 ar
    73   37   71 1
    74   38   39 ar
    75   38   72 1
    76   39   73 1
@<TRIPOS>MOLECULE
ZINC03815635
   74    77     0     0     0
SMALL
USER_CHARGES

@<TRIPOS>ATOM
      1 C1         -5.2290    0.8425    5.1478 C.3       1 <0>        -0.1510
      2 C2         -4.3208    0.2062    4.0936 C.3       1 <0>        -0.1262
      3 C3         -4.8811    0.4910    2.6987 C.3       1 <0>        -0.1497
      4 C4         -4.0387   -0.2403    1.6516 C.3       1 <0>         0.1254
      5 C5         -4.6057    0.0317    0.2537 C.3       1 <0>        -0.1573
      6 C6         -5.9621   -0.6188    0.1404 C.2       1 <0>         0.3469
      7 C7         -6.2487   -1.7068    0.8773 C.3       1 <0>        -0.2515
      8 C8         -5.2873   -2.2444    1.7656 C.2       1 <0>         0.5162
      9 O1         -5.5474   -3.2416    2.4122 O.2       1 <0>        -0.4486
     10 O2         -4.0808   -1.6511    1.8956 O.3       1 <0>        -0.3220
     11 C9         -7.6028   -2.3572    0.7567 C.3       1 <0>        -0.0085
     12 H1         -8.0823   -2.0297   -0.1657 H         1 <0>         0.1236
     13 C10        -7.4378   -3.8781    0.7336 C.3       1 <0>        -0.1532
     14 C11        -8.7973   -4.5349    0.4862 C.3       1 <0>        -0.1510
     15 C12        -8.4564   -1.9624    1.9343 C.ar      1 <0>        -0.0339
     16 C13        -7.9767   -2.1267    3.2211 C.ar      1 <0>        -0.1220
     17 C14        -8.7544   -1.7605    4.3041 C.ar      1 <0>        -0.0829
     18 C15       -10.0180   -1.2397    4.1043 C.ar      1 <0>        -0.1938
     19 C16       -10.5050   -1.0787    2.8136 C.ar      1 <0>         0.1518
     20 C17        -9.7187   -1.4424    1.7274 C.ar      1 <0>        -0.1089
     21 N1        -11.7825   -0.5528    2.6080 N.pl3     1 <0>        -1.0407
     22 S1        -13.0560   -1.0909    3.5196 S.o2      1 <0>         2.7048
     23 O3        -14.1967   -0.3562    3.0974 O.2       1 <0>        -0.9036
     24 O4        -13.0087   -2.5107    3.4853 O.2       1 <0>        -0.9040
     25 C18       -12.7403   -0.6167    5.1869 C.2       1 <0>        -0.5632
     26 C19       -13.1183    0.5389    5.7661 C.2       1 <0>         0.1640
     27 N2        -12.6730    0.4976    7.0598 N.pl3     1 <0>        -0.4169
     28 C20       -12.0379   -0.6825    7.2263 C.cat     1 <0>         0.3282
     29 C21       -12.8519    1.5392    8.0744 C.3       1 <0>         0.0495
     30 O5         -6.8859   -0.1104   -0.6992 O.2       1 <0>        -0.4821
     31 C22        -2.5913    0.2504    1.7231 C.3       1 <0>        -0.1026
     32 C23        -1.7775   -0.3963    0.6003 C.3       1 <0>        -0.0878
     33 C24        -0.3519    0.0870    0.6707 C.ar      1 <0>        -0.0879
     34 C25         0.5757   -0.6044    1.4273 C.ar      1 <0>        -0.1153
     35 C26         1.8848   -0.1643    1.4873 C.ar      1 <0>        -0.1168
     36 C27         2.2650    0.9702    0.7950 C.ar      1 <0>        -0.1203
     37 C28         1.3361    1.6648    0.0431 C.ar      1 <0>        -0.1171
     38 C29         0.0270    1.2248   -0.0170 C.ar      1 <0>        -0.1180
     39 H2         -5.2732    1.9196    4.9869 H         1 <0>         0.0553
     40 H3         -6.2311    0.4215    5.0658 H         1 <0>         0.0493
     41 H4         -4.8299    0.6396    6.1415 H         1 <0>         0.0585
     42 H5         -4.2767   -0.8710    4.2545 H         1 <0>         0.0710
     43 H6         -3.3187    0.6272    4.1756 H         1 <0>         0.0739
     44 H7         -4.8492    1.5634    2.5063 H         1 <0>         0.0930
     45 H8         -5.9124    0.1425    2.6433 H         1 <0>         0.0727
     46 H9         -4.6913    1.0183    0.1149 H         1 <0>         0.1166
     47 H10        -3.9899   -0.3496   -0.4358 H         1 <0>         0.1166
     48 H11        -6.7492   -4.1567   -0.0641 H         1 <0>         0.0704
     49 H12        -7.0403   -4.2151    1.6909 H         1 <0>         0.1095
     50 H13        -9.4859   -4.2563    1.2839 H         1 <0>         0.0601
     51 H14        -9.1948   -4.1979   -0.4711 H         1 <0>         0.0580
     52 H15        -8.6798   -5.6184    0.4697 H         1 <0>         0.0659
     53 H16        -6.9909   -2.5381    3.3802 H         1 <0>         0.1524
     54 H17        -8.3751   -1.8859    5.3075 H         1 <0>         0.1327
     55 H18       -10.6268   -0.9583    4.9508 H         1 <0>         0.1041
     56 H19       -10.0942   -1.3182    0.7225 H         1 <0>         0.1398
     57 H20       -11.9237    0.1277    1.9313 H         1 <0>         0.4390
     58 H21       -13.6675    1.3433    5.2996 H         1 <0>         0.2424
     59 H22       -11.5708   -1.0228    8.1386 H         1 <0>         0.2753
     60 H23       -13.7808    1.3626    8.6166 H         1 <0>         0.1181
     61 H24       -12.0141    1.5153    8.7713 H         1 <0>         0.1223
     62 H25       -12.8938    2.5148    7.5900 H         1 <0>         0.1234
     63 H26        -5.9923   -2.5297    0.3703 H         1 <0>         0.1908
     64 H27        -2.1621   -0.0233    2.6869 H         1 <0>         0.0934
     65 H28        -2.5691    1.3343    1.6100 H         1 <0>         0.0970
     66 H29        -2.2068   -0.1226   -0.3635 H         1 <0>         0.0754
     67 H30        -1.7998   -1.4802    0.7134 H         1 <0>         0.0827
     68 H31         0.2788   -1.4909    1.9679 H         1 <0>         0.1220
     69 H32         2.6105   -0.7070    2.0748 H         1 <0>         0.1230
     70 H33         3.2877    1.3140    0.8419 H         1 <0>         0.1227
     71 H34         1.6330    2.5516   -0.4972 H         1 <0>         0.1229
     72 H35        -0.6988    1.7677   -0.6042 H         1 <0>         0.1209
     73 N3        -12.0870   -1.3446    6.1036 N.pl3     1 <0>        -0.4357
     74 H36       -11.6878   -2.2774    5.9465 H         1 <0>         0.4910
@<TRIPOS>BOND
     1    1    2 1
     2    1   39 1
     3    1   40 1
     4    1   41 1
     5    2    3 1
     6    2   42 1
     7    2   43 1
     8    3    4 1
     9    3   44 1
    10    3   45 1
    11    4   10 1
    12    4    5 1
    13    4   31 1
    14    5   47 1
    15    5    6 1
    16    5   46 1
    17    6    7 1
    18    6   30 2
    19    7    8 1
    20    7   11 1
    21    7   63 1
    22    8    9 2
    23    8   10 1
    24   11   12 1
    25   11   13 1
    26   11   15 1
    27   13   14 1
    28   13   48 1
    29   13   49 1
    30   14   50 1
    31   14   51 1
    32   14   52 1
    33   15   20 ar
    34   15   16 ar
    35   16   17 ar
    36   16   53 1
    37   17   18 ar
    38   17   54 1
    39   18   19 ar
    40   18   55 1
    41   19   20 ar
    42   19   21 1
    43   20   56 1
    44   21   22 1
    45   21   57 1
    46   22   23 2
    47   22   24 2
    48   22   25 1
    49   25   26 2
    50   25   73 1
    51   26   27 1
    52   26   58 1
    53   27   28 1
    54   27   29 1
    55   28   59 1
    56   28   73 2
    57   29   60 1
    58   29   61 1
    59   29   62 1
    60   31   32 1
    61   31   64 1
    62   31   65 1
    63   32   33 1
    64   32   66 1
    65   32   67 1
    66   33   38 ar
    67   33   34 ar
    68   34   35 ar
    69   34   68 1
    70   35   36 ar
    71   35   69 1
    72   36   37 ar
    73   36   70 1
    74   37   38 ar
    75   37   71 1
    76   38   72 1
    77   73   74 1
@<TRIPOS>MOLECULE
ZINC03815636
   70    75     0     0     0
SMALL
USER_CHARGES

@<TRIPOS>ATOM
      1 C1          1.9975    1.1882    0.3158 C.3       1 <0>         0.0652
      2 N1          0.6089    1.6485    0.2376 N.pl3     1 <0>        -0.4542
      3 C2          0.1824    2.9492    0.2504 C.2       1 <0>         0.0666
      4 C3         -1.1610    2.9196    0.1601 C.2       1 <0>        -0.5568
      5 N2         -1.5439    1.6361    0.0890 N.2       1 <0>        -0.3987
      6 C4         -0.4895    0.8689    0.1398 C.2       1 <0>         0.1928
      7 S1         -2.2281    4.3215    0.1344 S.o2      1 <0>         2.7248
      8 O1         -3.4981    3.8735    0.5878 O.2       1 <0>        -0.9351
      9 O2         -1.5231    5.3802    0.7679 O.2       1 <0>        -0.9565
     10 N3         -2.4197    4.7620   -1.4503 N.pl3     1 <0>        -1.0544
     11 C5         -3.0640    3.9010   -2.3416 C.ar      1 <0>         0.1482
     12 C6         -4.2438    3.2689   -1.9691 C.ar      1 <0>        -0.1390
     13 C7         -4.8785    2.4187   -2.8528 C.ar      1 <0>        -0.0929
     14 C8         -4.3412    2.1963   -4.1077 C.ar      1 <0>        -0.1122
     15 C9         -3.1672    2.8237   -4.4816 C.ar      1 <0>        -0.0328
     16 C10        -2.5298    3.6792   -3.6043 C.ar      1 <0>        -0.1106
     17 C11        -2.5855    2.5783   -5.8500 C.3       1 <0>         0.0527
     18 H1         -1.7260    3.2312   -6.0018 H         1 <0>         0.0857
     19 C12        -2.1494    1.1400   -5.9599 C.2       1 <0>        -0.2669
     20 C13        -2.1619    0.4925   -7.1820 C.2       1 <0>         0.2313
     21 C14        -1.7400   -0.8546   -7.2404 C.2       1 <0>        -0.2745
     22 C15        -1.3464   -1.4813   -6.1157 C.2       1 <0>         0.1717
     23 O3         -1.3424   -0.8482   -4.9337 O.3       1 <0>        -0.2601
     24 C16        -1.7300    0.4342   -4.8255 C.2       1 <0>         0.5002
     25 O4         -1.7160    0.9846   -3.7368 O.2       1 <0>        -0.4386
     26 C17        -0.9028   -2.9198   -6.1864 C.3       1 <0>        -0.0352
     27 C18         0.5444   -3.0316   -5.7029 C.3       1 <0>        -0.0854
     28 C19         1.0356   -4.4683   -5.8913 C.3       1 <0>        -0.1536
     29 C20         1.4045   -5.2593   -4.6347 C.3       1 <0>        -0.1783
     30 C21         2.5037   -4.7603   -5.5747 C.3       1 <0>        -0.1797
     31 C22        -1.8056   -3.7762   -5.2963 C.3       1 <0>        -0.0843
     32 C23        -3.2306   -3.7641   -5.8532 C.3       1 <0>        -0.1608
     33 C24        -4.3242   -3.1424   -4.9824 C.3       1 <0>        -0.1786
     34 C25        -4.2645   -4.6599   -5.1681 C.3       1 <0>        -0.1756
     35 O5         -2.5662    1.1383   -8.3011 O.3       1 <0>        -0.4742
     36 C26        -3.6442    2.8730   -6.9145 C.3       1 <0>        -0.1226
     37 C27        -3.2539    3.8114   -8.0582 C.3       1 <0>        -0.1757
     38 C28        -4.2161    4.2911   -6.9685 C.3       1 <0>        -0.1779
     39 H2          2.4104    1.1067   -0.6896 H         1 <0>         0.0835
     40 H3          2.5849    1.9022    0.8931 H         1 <0>         0.0915
     41 H4          2.0302    0.2134    0.8023 H         1 <0>         0.0944
     42 H5          0.8038    3.8298    0.3191 H         1 <0>         0.1912
     43 H6         -0.4941   -0.2105    0.1048 H         1 <0>         0.2124
     44 H7         -2.0844    5.6181   -1.7597 H         1 <0>         0.4237
     45 H8         -4.6643    3.4427   -0.9896 H         1 <0>         0.1530
     46 H9         -5.7957    1.9270   -2.5639 H         1 <0>         0.1241
     47 H10        -4.8396    1.5308   -4.7969 H         1 <0>         0.1128
     48 H11        -1.6152    4.1723   -3.8986 H         1 <0>         0.1163
     49 H12        -1.7371   -1.3810   -8.1834 H         1 <0>         0.1569
     50 H13        -0.9699   -3.2704   -7.2163 H         1 <0>         0.1100
     51 H14         1.1737   -2.3539   -6.2798 H         1 <0>         0.0724
     52 H15         0.5963   -2.7654   -4.6471 H         1 <0>         0.0755
     53 H16         0.5798   -5.0166   -6.7158 H         1 <0>         0.1081
     54 H17         1.2973   -4.7562   -3.6737 H         1 <0>         0.0945
     55 H18         1.1914   -6.3283   -4.6322 H         1 <0>         0.0948
     56 H19         3.0137   -5.5009   -6.1907 H         1 <0>         0.0953
     57 H20         3.1197   -3.9288   -5.2321 H         1 <0>         0.0934
     58 H21        -1.4316   -4.7998   -5.2773 H         1 <0>         0.0862
     59 H22        -1.8076   -3.3712   -4.2843 H         1 <0>         0.0749
     60 H23        -3.3124   -3.6356   -6.9325 H         1 <0>         0.1042
     61 H24        -4.0285   -2.7420   -4.0127 H         1 <0>         0.0942
     62 H25        -5.1257   -2.6046   -5.4888 H         1 <0>         0.0919
     63 H26        -5.0267   -5.1205   -5.7965 H         1 <0>         0.0942
     64 H27        -3.9295   -5.2578   -4.3205 H         1 <0>         0.0946
     65 H28        -1.8536    1.5892   -8.7742 H         1 <0>         0.4020
     66 H29        -4.3188    2.0491   -7.1475 H         1 <0>         0.1098
     67 H30        -2.2430    4.2189   -8.0522 H         1 <0>         0.0889
     68 H31        -3.6720    3.6051   -9.0435 H         1 <0>         0.0950
     69 H32        -5.2668    4.4001   -7.2374 H         1 <0>         0.0935
     70 H33        -3.8384    5.0139   -6.2454 H         1 <0>         0.0930
@<TRIPOS>BOND
     1    1    2 1
     2    1   39 1
     3    1   40 1
     4    1   41 1
     5    2    6 1
     6    2    3 1
     7    3    4 2
     8    3   42 1
     9    4    5 1
    10    4    7 1
    11    5    6 2
    12    6   43 1
    13    7    8 2
    14    7    9 2
    15    7   10 1
    16   10   11 1
    17   10   44 1
    18   11   16 ar
    19   11   12 ar
    20   12   13 ar
    21   12   45 1
    22   13   14 ar
    23   13   46 1
    24   14   15 ar
    25   14   47 1
    26   15   16 ar
    27   15   17 1
    28   16   48 1
    29   17   18 1
    30   17   19 1
    31   17   36 1
    32   19   24 1
    33   19   20 2
    34   20   21 1
    35   20   35 1
    36   21   22 2
    37   21   49 1
    38   22   23 1
    39   22   26 1
    40   23   24 1
    41   24   25 2
    42   26   27 1
    43   26   31 1
    44   26   50 1
    45   27   28 1
    46   27   51 1
    47   27   52 1
    48   28   30 1
    49   28   29 1
    50   28   53 1
    51   29   30 1
    52   29   54 1
    53   29   55 1
    54   30   56 1
    55   30   57 1
    56   31   32 1
    57   31   58 1
    58   31   59 1
    59   32   34 1
    60   32   33 1
    61   32   60 1
    62   33   34 1
    63   33   61 1
    64   33   62 1
    65   34   63 1
    66   34   64 1
    67   35   65 1
    68   36   38 1
    69   36   37 1
    70   36   66 1
    71   37   38 1
    72   37   67 1
    73   37   68 1
    74   38   69 1
    75   38   70 1
@<TRIPOS>MOLECULE
ZINC03815636
   71    76     0     0     0
SMALL
USER_CHARGES

@<TRIPOS>ATOM
      1 C1          1.9975    1.1882    0.3158 C.3       1 <0>         0.0516
      2 N1          0.6089    1.6485    0.2376 N.pl3     1 <0>        -0.4178
      3 C2          0.1824    2.9492    0.2504 C.2       1 <0>         0.1561
      4 C3         -1.1610    2.9196    0.1601 C.2       1 <0>        -0.5529
      5 C4         -0.4895    0.8689    0.1398 C.cat     1 <0>         0.3312
      6 S1         -2.2281    4.3215    0.1344 S.o2      1 <0>         2.7025
      7 O1         -3.4981    3.8735    0.5878 O.2       1 <0>        -0.9135
      8 O2         -1.5231    5.3802    0.7679 O.2       1 <0>        -0.9110
      9 N2         -2.4197    4.7620   -1.4503 N.pl3     1 <0>        -1.0368
     10 C5         -3.0640    3.9010   -2.3416 C.ar      1 <0>         0.1194
     11 C6         -4.2438    3.2689   -1.9691 C.ar      1 <0>        -0.1622
     12 C7         -4.8785    2.4187   -2.8528 C.ar      1 <0>        -0.0921
     13 C8         -4.3412    2.1963   -4.1077 C.ar      1 <0>        -0.1007
     14 C9         -3.1672    2.8237   -4.4816 C.ar      1 <0>        -0.0197
     15 C10        -2.5298    3.6792   -3.6043 C.ar      1 <0>        -0.1029
     16 C11        -2.5855    2.5783   -5.8500 C.3       1 <0>         0.0519
     17 H1         -1.7260    3.2312   -6.0018 H         1 <0>         0.0884
     18 C12        -2.1494    1.1400   -5.9599 C.2       1 <0>        -0.2838
     19 C13        -2.1619    0.4925   -7.1820 C.2       1 <0>         0.2506
     20 C14        -1.7400   -0.8546   -7.2404 C.2       1 <0>        -0.2703
     21 C15        -1.3464   -1.4813   -6.1157 C.2       1 <0>         0.1758
     22 O3         -1.3424   -0.8482   -4.9337 O.3       1 <0>        -0.2595
     23 C16        -1.7300    0.4342   -4.8255 C.2       1 <0>         0.5132
     24 O4         -1.7160    0.9846   -3.7368 O.2       1 <0>        -0.4799
     25 C17        -0.9028   -2.9198   -6.1864 C.3       1 <0>        -0.0383
     26 C18         0.5444   -3.0316   -5.7029 C.3       1 <0>        -0.0824
     27 C19         1.0356   -4.4683   -5.8913 C.3       1 <0>        -0.1570
     28 C20         1.4045   -5.2593   -4.6347 C.3       1 <0>        -0.1776
     29 C21         2.5037   -4.7603   -5.5747 C.3       1 <0>        -0.1777
     30 C22        -1.8056   -3.7762   -5.2963 C.3       1 <0>        -0.0822
     31 C23        -3.2306   -3.7641   -5.8532 C.3       1 <0>        -0.1631
     32 C24        -4.3242   -3.1424   -4.9824 C.3       1 <0>        -0.1800
     33 C25        -4.2645   -4.6599   -5.1681 C.3       1 <0>        -0.1731
     34 O5         -2.5662    1.1383   -8.3011 O.3       1 <0>        -0.4724
     35 C26        -3.6442    2.8730   -6.9145 C.3       1 <0>        -0.1311
     36 C27        -3.2539    3.8114   -8.0582 C.3       1 <0>        -0.1721
     37 C28        -4.2161    4.2911   -6.9685 C.3       1 <0>        -0.1775
     38 H2          2.4104    1.1067   -0.6896 H         1 <0>         0.1147
     39 H3          2.5849    1.9022    0.8931 H         1 <0>         0.1221
     40 H4          2.0302    0.2134    0.8023 H         1 <0>         0.1203
     41 H5          0.8038    3.8298    0.3191 H         1 <0>         0.2388
     42 H6         -0.4941   -0.2105    0.1048 H         1 <0>         0.2698
     43 H7         -2.0844    5.6181   -1.7597 H         1 <0>         0.4359
     44 H8         -4.6643    3.4427   -0.9896 H         1 <0>         0.1547
     45 H9         -5.7957    1.9270   -2.5639 H         1 <0>         0.1316
     46 H10        -4.8396    1.5308   -4.7969 H         1 <0>         0.1211
     47 H11        -1.6152    4.1723   -3.8986 H         1 <0>         0.1235
     48 H12        -1.7371   -1.3810   -8.1834 H         1 <0>         0.1628
     49 H13        -0.9699   -3.2704   -7.2163 H         1 <0>         0.1145
     50 H14         1.1737   -2.3539   -6.2798 H         1 <0>         0.0730
     51 H15         0.5963   -2.7654   -4.6471 H         1 <0>         0.0721
     52 H16         0.5798   -5.0166   -6.7158 H         1 <0>         0.1100
     53 H17         1.2973   -4.7562   -3.6737 H         1 <0>         0.0920
     54 H18         1.1914   -6.3283   -4.6322 H         1 <0>         0.0966
     55 H19         3.0137   -5.5009   -6.1907 H         1 <0>         0.0979
     56 H20         3.1197   -3.9288   -5.2321 H         1 <0>         0.0931
     57 H21        -1.4316   -4.7998   -5.2773 H         1 <0>         0.0892
     58 H22        -1.8076   -3.3712   -4.2843 H         1 <0>         0.0714
     59 H23        -3.3124   -3.6356   -6.9325 H         1 <0>         0.1061
     60 H24        -4.0285   -2.7420   -4.0127 H         1 <0>         0.0896
     61 H25        -5.1257   -2.6046   -5.4888 H         1 <0>         0.0924
     62 H26        -5.0267   -5.1205   -5.7965 H         1 <0>         0.0972
     63 H27        -3.9295   -5.2578   -4.3205 H         1 <0>         0.0956
     64 H28        -1.8536    1.5892   -8.7742 H         1 <0>         0.4082
     65 H29        -4.3188    2.0491   -7.1475 H         1 <0>         0.1116
     66 H30        -2.2430    4.2189   -8.0522 H         1 <0>         0.0908
     67 H31        -3.6720    3.6051   -9.0435 H         1 <0>         0.0988
     68 H32        -5.2668    4.4001   -7.2374 H         1 <0>         0.0963
     69 H33        -3.8384    5.0139   -6.2454 H         1 <0>         0.0920
     70 N3         -1.5427    1.6365    0.0891 N.pl3     1 <0>        -0.4249
     71 H34        -2.5124    1.3093    0.0076 H         1 <0>         0.4879
@<TRIPOS>BOND
     1    1    2 1
     2    1   38 1
     3    1   39 1
     4    1   40 1
     5    2    5 1
     6    2    3 1
     7    3    4 2
     8    3   41 1
     9    4    6 1
    10    4   70 1
    11    5   42 1
    12    5   70 2
    13    6    7 2
    14    6    8 2
    15    6    9 1
    16    9   10 1
    17    9   43 1
    18   10   15 ar
    19   10   11 ar
    20   11   12 ar
    21   11   44 1
    22   12   13 ar
    23   12   45 1
    24   13   14 ar
    25   13   46 1
    26   14   15 ar
    27   14   16 1
    28   15   47 1
    29   16   17 1
    30   16   18 1
    31   16   35 1
    32   18   23 1
    33   18   19 2
    34   19   20 1
    35   19   34 1
    36   20   21 2
    37   20   48 1
    38   21   22 1
    39   21   25 1
    40   22   23 1
    41   23   24 2
    42   25   26 1
    43   25   30 1
    44   25   49 1
    45   26   27 1
    46   26   50 1
    47   26   51 1
    48   27   29 1
    49   27   28 1
    50   27   52 1
    51   28   29 1
    52   28   53 1
    53   28   54 1
    54   29   55 1
    55   29   56 1
    56   30   31 1
    57   30   57 1
    58   30   58 1
    59   31   33 1
    60   31   32 1
    61   31   59 1
    62   32   33 1
    63   32   60 1
    64   32   61 1
    65   33   62 1
    66   33   63 1
    67   34   64 1
    68   35   37 1
    69   35   36 1
    70   35   65 1
    71   36   37 1
    72   36   66 1
    73   36   67 1
    74   37   68 1
    75   37   69 1
    76   70   71 1
@<TRIPOS>MOLECULE
ZINC03815637
   69    73     0     0     0
SMALL
USER_CHARGES

@<TRIPOS>ATOM
      1 C1          1.0241   -4.4425   -5.4781 C.3       1 <0>        -0.1558
      2 C2          0.4745   -3.0167   -5.5558 C.3       1 <0>        -0.1203
      3 C3         -0.9412   -3.0467   -6.1352 C.3       1 <0>        -0.0362
      4 H1         -0.9342   -3.5833   -7.0840 H         1 <0>         0.1099
      5 C4         -1.8784   -3.7555   -5.1554 C.3       1 <0>        -0.0800
      6 C5         -3.2440   -3.8944   -5.7775 C.ar      1 <0>        -0.0900
      7 C6         -4.1644   -2.8697   -5.6601 C.ar      1 <0>        -0.1112
      8 C7         -5.4153   -2.9951   -6.2349 C.ar      1 <0>        -0.1136
      9 C8         -5.7494   -4.1493   -6.9182 C.ar      1 <0>        -0.1192
     10 C9         -4.8308   -5.1761   -7.0312 C.ar      1 <0>        -0.1176
     11 C10        -3.5781   -5.0486   -6.4609 C.ar      1 <0>        -0.1150
     12 C11        -1.4223   -1.6362   -6.3594 C.2       1 <0>         0.1671
     13 C12        -1.7577   -1.2416   -7.6021 C.2       1 <0>        -0.2687
     14 C13        -2.2091    0.0791   -7.8209 C.2       1 <0>         0.2329
     15 C14        -2.2950    0.9391   -6.7412 C.2       1 <0>        -0.2675
     16 C15        -1.9262    0.4715   -5.4738 C.2       1 <0>         0.4988
     17 O1         -1.9891    1.2149   -4.5085 O.2       1 <0>        -0.4369
     18 O2         -1.5083   -0.7964   -5.3177 O.3       1 <0>        -0.2615
     19 C16        -2.7712    2.3569   -6.9264 C.3       1 <0>         0.0529
     20 H2         -1.9236    2.9951   -7.1762 H         1 <0>         0.0856
     21 C17        -3.4077    2.8438   -5.6501 C.ar      1 <0>        -0.0313
     22 C18        -4.5726    2.2561   -5.1913 C.ar      1 <0>        -0.1120
     23 C19        -5.1597    2.6995   -4.0206 C.ar      1 <0>        -0.0923
     24 C20        -4.5843    3.7317   -3.3055 C.ar      1 <0>        -0.1391
     25 C21        -3.4145    4.3240   -3.7634 C.ar      1 <0>         0.1487
     26 C22        -2.8299    3.8793   -4.9427 C.ar      1 <0>        -0.1123
     27 N1         -2.8303    5.3683   -3.0430 N.pl3     1 <0>        -1.0544
     28 S1         -2.6787    5.2560   -1.3978 S.o2      1 <0>         2.7245
     29 O3         -3.9479    4.8561   -0.8993 O.2       1 <0>        -0.9350
     30 O4         -2.0316    6.4457   -0.9674 O.2       1 <0>        -0.9564
     31 C23        -1.5668    3.9299   -1.0664 C.2       1 <0>        -0.5570
     32 C24        -0.2291    4.0297   -0.9473 C.2       1 <0>         0.0664
     33 N2          0.2407    2.7698   -0.6910 N.pl3     1 <0>        -0.4543
     34 C25        -0.8270    1.9435   -0.6623 C.2       1 <0>         0.1927
     35 N3         -1.9041    2.6434   -0.8925 N.2       1 <0>        -0.3986
     36 C26         1.6404    2.3891   -0.4856 C.3       1 <0>         0.0652
     37 C27        -3.7981    2.4060   -8.0595 C.3       1 <0>        -0.1227
     38 C28        -3.3910    3.1173   -9.3515 C.3       1 <0>        -0.1739
     39 C29        -4.4035    3.7678   -8.4056 C.3       1 <0>        -0.1778
     40 O5         -2.5506    0.4949   -9.0632 O.3       1 <0>        -0.4735
     41 H3          2.0032   -4.4289   -4.9993 H         1 <0>         0.0610
     42 H4          0.3433   -5.0631   -4.8955 H         1 <0>         0.0617
     43 H5          1.1174   -4.8512   -6.4843 H         1 <0>         0.0581
     44 H6          1.1171   -2.4140   -6.1976 H         1 <0>         0.0690
     45 H7          0.4489   -2.5823   -4.5564 H         1 <0>         0.0747
     46 H8         -1.4822   -4.7443   -4.9244 H         1 <0>         0.0915
     47 H9         -1.9547   -3.1713   -4.2383 H         1 <0>         0.0842
     48 H10        -3.9049   -1.9697   -5.1224 H         1 <0>         0.1139
     49 H11        -6.1331   -2.1930   -6.1464 H         1 <0>         0.1208
     50 H12        -6.7283   -4.2491   -7.3635 H         1 <0>         0.1215
     51 H13        -5.0920   -6.0781   -7.5647 H         1 <0>         0.1222
     52 H14        -2.8605   -5.8510   -6.5488 H         1 <0>         0.1220
     53 H15        -1.6822   -1.9324   -8.4289 H         1 <0>         0.1560
     54 H16        -5.0245    1.4489   -5.7485 H         1 <0>         0.1122
     55 H17        -6.0693    2.2384   -3.6651 H         1 <0>         0.1238
     56 H18        -5.0437    4.0780   -2.3915 H         1 <0>         0.1530
     57 H19        -1.9226    4.3407   -5.3038 H         1 <0>         0.1162
     58 H20        -2.5133    6.1594   -3.5064 H         1 <0>         0.4237
     59 H21         0.3598    4.9305   -1.0374 H         1 <0>         0.1912
     60 H22        -0.7944    0.8789   -0.4833 H         1 <0>         0.2128
     61 H23         2.0901    2.1278   -1.4435 H         1 <0>         0.0836
     62 H24         2.1835    3.2254   -0.0454 H         1 <0>         0.0914
     63 H25         1.6889    1.5311    0.1848 H         1 <0>         0.0946
     64 H26        -4.4426    1.5315   -8.1481 H         1 <0>         0.1085
     65 H27        -2.3915    3.5502   -9.3942 H         1 <0>         0.0887
     66 H28        -3.7680    2.7110  -10.2900 H         1 <0>         0.0949
     67 H29        -5.4463    3.7892   -8.7222 H         1 <0>         0.0934
     68 H30        -4.0706    4.6287   -7.8258 H         1 <0>         0.0930
     69 H31        -1.8177    0.8764   -9.5656 H         1 <0>         0.4020
@<TRIPOS>BOND
     1    1    2 1
     2    1   41 1
     3    1   42 1
     4    1   43 1
     5    2    3 1
     6    2   44 1
     7    2   45 1
     8    3    4 1
     9    3    5 1
    10    3   12 1
    11    5    6 1
    12    5   46 1
    13    5   47 1
    14    6   11 ar
    15    6    7 ar
    16    7    8 ar
    17    7   48 1
    18    8    9 ar
    19    8   49 1
    20    9   10 ar
    21    9   50 1
    22   10   11 ar
    23   10   51 1
    24   11   52 1
    25   12   18 1
    26   12   13 2
    27   13   14 1
    28   13   53 1
    29   14   15 2
    30   14   40 1
    31   15   16 1
    32   15   19 1
    33   16   17 2
    34   16   18 1
    35   19   20 1
    36   19   21 1
    37   19   37 1
    38   21   26 ar
    39   21   22 ar
    40   22   23 ar
    41   22   54 1
    42   23   24 ar
    43   23   55 1
    44   24   25 ar
    45   24   56 1
    46   25   26 ar
    47   25   27 1
    48   26   57 1
    49   27   28 1
    50   27   58 1
    51   28   29 2
    52   28   30 2
    53   28   31 1
    54   31   35 1
    55   31   32 2
    56   32   33 1
    57   32   59 1
    58   33   34 1
    59   33   36 1
    60   34   35 2
    61   34   60 1
    62   36   61 1
    63   36   62 1
    64   36   63 1
    65   37   39 1
    66   37   38 1
    67   37   64 1
    68   38   39 1
    69   38   65 1
    70   38   66 1
    71   39   67 1
    72   39   68 1
    73   40   69 1
@<TRIPOS>MOLECULE
ZINC03815637
   70    74     0     0     0
SMALL
USER_CHARGES

@<TRIPOS>ATOM
      1 C1          1.0241   -4.4425   -5.4781 C.3       1 <0>        -0.1584
      2 C2          0.4745   -3.0167   -5.5558 C.3       1 <0>        -0.1177
      3 C3         -0.9412   -3.0467   -6.1352 C.3       1 <0>        -0.0393
      4 H1         -0.9342   -3.5833   -7.0840 H         1 <0>         0.1142
      5 C4         -1.8784   -3.7555   -5.1554 C.3       1 <0>        -0.0771
      6 C5         -3.2440   -3.8944   -5.7775 C.ar      1 <0>        -0.0945
      7 C6         -4.1644   -2.8697   -5.6601 C.ar      1 <0>        -0.1155
      8 C7         -5.4153   -2.9951   -6.2349 C.ar      1 <0>        -0.1150
      9 C8         -5.7494   -4.1493   -6.9182 C.ar      1 <0>        -0.1161
     10 C9         -4.8308   -5.1761   -7.0312 C.ar      1 <0>        -0.1134
     11 C10        -3.5781   -5.0486   -6.4609 C.ar      1 <0>        -0.1127
     12 C11        -1.4223   -1.6362   -6.3594 C.2       1 <0>         0.1719
     13 C12        -1.7577   -1.2416   -7.6021 C.2       1 <0>        -0.2648
     14 C13        -2.2091    0.0791   -7.8209 C.2       1 <0>         0.2522
     15 C14        -2.2950    0.9391   -6.7412 C.2       1 <0>        -0.2846
     16 C15        -1.9262    0.4715   -5.4738 C.2       1 <0>         0.5119
     17 O1         -1.9891    1.2149   -4.5085 O.2       1 <0>        -0.4787
     18 O2         -1.5083   -0.7964   -5.3177 O.3       1 <0>        -0.2606
     19 C16        -2.7712    2.3569   -6.9264 C.3       1 <0>         0.0522
     20 H2         -1.9236    2.9951   -7.1762 H         1 <0>         0.0882
     21 C17        -3.4077    2.8438   -5.6501 C.ar      1 <0>        -0.0181
     22 C18        -4.5726    2.2561   -5.1913 C.ar      1 <0>        -0.1003
     23 C19        -5.1597    2.6995   -4.0206 C.ar      1 <0>        -0.0916
     24 C20        -4.5843    3.7317   -3.3055 C.ar      1 <0>        -0.1623
     25 C21        -3.4145    4.3240   -3.7634 C.ar      1 <0>         0.1199
     26 C22        -2.8299    3.8793   -4.9427 C.ar      1 <0>        -0.1048
     27 N1         -2.8303    5.3683   -3.0430 N.pl3     1 <0>        -1.0369
     28 S1         -2.6787    5.2560   -1.3978 S.o2      1 <0>         2.7023
     29 O3         -3.9479    4.8561   -0.8993 O.2       1 <0>        -0.9134
     30 O4         -2.0316    6.4457   -0.9674 O.2       1 <0>        -0.9109
     31 C23        -1.5668    3.9299   -1.0664 C.2       1 <0>        -0.5530
     32 C24        -0.2291    4.0297   -0.9473 C.2       1 <0>         0.1558
     33 N2          0.2407    2.7698   -0.6910 N.pl3     1 <0>        -0.4179
     34 C25        -0.8270    1.9435   -0.6623 C.cat     1 <0>         0.3313
     35 C26         1.6404    2.3891   -0.4856 C.3       1 <0>         0.0516
     36 C27        -3.7981    2.4060   -8.0595 C.3       1 <0>        -0.1311
     37 C28        -3.3910    3.1173   -9.3515 C.3       1 <0>        -0.1703
     38 C29        -4.4035    3.7678   -8.4056 C.3       1 <0>        -0.1775
     39 O5         -2.5506    0.4949   -9.0632 O.3       1 <0>        -0.4717
     40 H3          2.0032   -4.4289   -4.9993 H         1 <0>         0.0628
     41 H4          0.3433   -5.0631   -4.8955 H         1 <0>         0.0627
     42 H5          1.1174   -4.8512   -6.4843 H         1 <0>         0.0611
     43 H6          1.1171   -2.4140   -6.1976 H         1 <0>         0.0696
     44 H7          0.4489   -2.5823   -4.5564 H         1 <0>         0.0712
     45 H8         -1.4822   -4.7443   -4.9244 H         1 <0>         0.0939
     46 H9         -1.9547   -3.1713   -4.2383 H         1 <0>         0.0803
     47 H10        -3.9049   -1.9697   -5.1224 H         1 <0>         0.1091
     48 H11        -6.1331   -2.1930   -6.1464 H         1 <0>         0.1201
     49 H12        -6.7283   -4.2491   -7.3635 H         1 <0>         0.1239
     50 H13        -5.0920   -6.0781   -7.5647 H         1 <0>         0.1254
     51 H14        -2.8605   -5.8510   -6.5488 H         1 <0>         0.1241
     52 H15        -1.6822   -1.9324   -8.4289 H         1 <0>         0.1618
     53 H16        -5.0245    1.4489   -5.7485 H         1 <0>         0.1205
     54 H17        -6.0693    2.2384   -3.6651 H         1 <0>         0.1314
     55 H18        -5.0437    4.0780   -2.3915 H         1 <0>         0.1546
     56 H19        -1.9226    4.3407   -5.3038 H         1 <0>         0.1234
     57 H20        -2.5133    6.1594   -3.5064 H         1 <0>         0.4359
     58 H21         0.3598    4.9305   -1.0374 H         1 <0>         0.2388
     59 H22        -0.7944    0.8789   -0.4833 H         1 <0>         0.2702
     60 H23         2.0901    2.1278   -1.4435 H         1 <0>         0.1147
     61 H24         2.1835    3.2254   -0.0454 H         1 <0>         0.1219
     62 H25         1.6889    1.5311    0.1848 H         1 <0>         0.1204
     63 H26        -4.4426    1.5315   -8.1481 H         1 <0>         0.1103
     64 H27        -2.3915    3.5502   -9.3942 H         1 <0>         0.0906
     65 H28        -3.7680    2.7110  -10.2900 H         1 <0>         0.0987
     66 H29        -5.4463    3.7892   -8.7222 H         1 <0>         0.0962
     67 H30        -4.0706    4.6287   -7.8258 H         1 <0>         0.0920
     68 H31        -1.8177    0.8764   -9.5656 H         1 <0>         0.4080
     69 N3         -1.9028    2.6439   -0.8924 N.pl3     1 <0>        -0.4250
     70 H32        -2.8578    2.2690   -0.9339 H         1 <0>         0.4881
@<TRIPOS>BOND
     1    1    2 1
     2    1   40 1
     3    1   41 1
     4    1   42 1
     5    2    3 1
     6    2   43 1
     7    2   44 1
     8    3    4 1
     9    3    5 1
    10    3   12 1
    11    5    6 1
    12    5   45 1
    13    5   46 1
    14    6   11 ar
    15    6    7 ar
    16    7    8 ar
    17    7   47 1
    18    8    9 ar
    19    8   48 1
    20    9   10 ar
    21    9   49 1
    22   10   11 ar
    23   10   50 1
    24   11   51 1
    25   12   18 1
    26   12   13 2
    27   13   14 1
    28   13   52 1
    29   14   15 2
    30   14   39 1
    31   15   16 1
    32   15   19 1
    33   16   17 2
    34   16   18 1
    35   19   20 1
    36   19   21 1
    37   19   36 1
    38   21   26 ar
    39   21   22 ar
    40   22   23 ar
    41   22   53 1
    42   23   24 ar
    43   23   54 1
    44   24   25 ar
    45   24   55 1
    46   25   26 ar
    47   25   27 1
    48   26   56 1
    49   27   28 1
    50   27   57 1
    51   28   29 2
    52   28   30 2
    53   28   31 1
    54   31   32 2
    55   31   69 1
    56   32   33 1
    57   32   58 1
    58   33   34 1
    59   33   35 1
    60   34   59 1
    61   34   69 2
    62   35   60 1
    63   35   61 1
    64   35   62 1
    65   36   38 1
    66   36   37 1
    67   36   63 1
    68   37   38 1
    69   37   64 1
    70   37   65 1
    71   38   66 1
    72   38   67 1
    73   39   68 1
    74   69   70 1
@<TRIPOS>MOLECULE
ZINC03815638
   56    59     0     0     0
SMALL
USER_CHARGES

@<TRIPOS>ATOM
      1 C1         -0.3908    3.5273   -0.5330 C.3       1 <0>        -0.1539
      2 C2          0.2524    2.9855    0.7452 C.3       1 <0>        -0.1217
      3 C3         -0.4463    1.6883    1.1573 C.3       1 <0>        -0.0798
      4 C4          0.1873    1.1546    2.4163 C.2       1 <0>         0.1585
      5 C5         -0.2936    1.5402    3.6133 C.2       1 <0>        -0.2726
      6 C6          0.2919    1.0413    4.7983 C.2       1 <0>         0.2318
      7 C7          1.3602    0.1690    4.6950 C.2       1 <0>        -0.2661
      8 C8          1.8182   -0.1908    3.4216 C.2       1 <0>         0.5026
      9 O1          2.7592   -0.9589    3.3076 O.2       1 <0>        -0.4464
     10 O2          1.2234    0.3086    2.3246 O.3       1 <0>        -0.2640
     11 C9          2.0198   -0.3849    5.9316 C.3       1 <0>         0.0507
     12 H1          2.8379    0.2700    6.2315 H         1 <0>         0.0896
     13 C10         2.5595   -1.7613    5.6393 C.ar      1 <0>        -0.0263
     14 C11         1.7100   -2.7548    5.1874 C.ar      1 <0>        -0.1155
     15 C12         2.2021   -4.0173    4.9126 C.ar      1 <0>        -0.0849
     16 C13         3.5424   -4.2936    5.0996 C.ar      1 <0>        -0.1607
     17 C14         4.3972   -3.2998    5.5587 C.ar      1 <0>         0.1578
     18 C15         3.9005   -2.0307    5.8284 C.ar      1 <0>        -0.1178
     19 N1          5.7531   -3.5759    5.7493 N.pl3     1 <0>        -1.0545
     20 S1          6.2148   -4.9720    6.5110 S.o2      1 <0>         2.7252
     21 O3          7.6357   -4.9752    6.5269 O.2       1 <0>        -0.9531
     22 O4          5.4394   -5.0622    7.6984 O.2       1 <0>        -0.9283
     23 C16         5.7196   -6.3146    5.4830 C.2       1 <0>        -0.5677
     24 C17         6.4580   -6.8795    4.5087 C.2       1 <0>         0.0758
     25 N2          5.6986   -7.8809    3.9664 N.pl3     1 <0>        -0.4549
     26 C18         4.5217   -7.8931    4.6286 C.2       1 <0>         0.1896
     27 N3          4.5434   -6.9569    5.5375 N.2       1 <0>        -0.4091
     28 C19         6.0896   -8.7729    2.8720 C.3       1 <0>         0.0635
     29 C20         0.9932   -0.4693    7.0629 C.3       1 <0>        -0.1245
     30 C21         1.1682    0.4823    8.2481 C.3       1 <0>        -0.1761
     31 C22         1.4716   -1.0091    8.4122 C.3       1 <0>        -0.1777
     32 O5         -0.1801    1.4139    6.0112 O.3       1 <0>        -0.4734
     33 H2         -0.2902    2.7912   -1.3306 H         1 <0>         0.0588
     34 H3         -1.4474    3.7252   -0.3524 H         1 <0>         0.0586
     35 H4          0.1069    4.4515   -0.8267 H         1 <0>         0.0614
     36 H5          1.3089    2.7876    0.5645 H         1 <0>         0.0704
     37 H6          0.1518    3.7217    1.5427 H         1 <0>         0.0701
     38 H7         -1.5028    1.8862    1.3380 H         1 <0>         0.1056
     39 H8         -0.3457    0.9522    0.3598 H         1 <0>         0.0958
     40 H9         -1.1264    2.2257    3.6673 H         1 <0>         0.1596
     41 H10         0.6606   -2.5427    5.0449 H         1 <0>         0.1124
     42 H11         1.5368   -4.7896    4.5557 H         1 <0>         0.1214
     43 H12         3.9253   -5.2813    4.8893 H         1 <0>         0.1444
     44 H13         4.5625   -1.2558    6.1859 H         1 <0>         0.1215
     45 H14         6.4243   -2.9499    5.4355 H         1 <0>         0.4249
     46 H15         7.4574   -6.5970    4.2125 H         1 <0>         0.1958
     47 H16         3.7003   -8.5684    4.4400 H         1 <0>         0.2185
     48 H17         6.5763   -9.6583    3.2811 H         1 <0>         0.0866
     49 H18         5.2032   -9.0715    2.3123 H         1 <0>         0.0965
     50 H19         6.7802   -8.2526    2.2083 H         1 <0>         0.0932
     51 H20        -0.0249   -0.7102    6.7569 H         1 <0>         0.1108
     52 H21         2.0147    1.1685    8.2219 H         1 <0>         0.0897
     53 H22         0.2652    0.8672    8.7221 H         1 <0>         0.0951
     54 H23         0.7682   -1.6047    8.9941 H         1 <0>         0.0943
     55 H24         2.5176   -1.3044    8.4939 H         1 <0>         0.0953
     56 H25         0.2419    2.2061    6.3711 H         1 <0>         0.4034
@<TRIPOS>BOND
     1    1    2 1
     2    1   33 1
     3    1   34 1
     4    1   35 1
     5    2    3 1
     6    2   36 1
     7    2   37 1
     8    3    4 1
     9    3   38 1
    10    3   39 1
    11    4   10 1
    12    4    5 2
    13    5    6 1
    14    5   40 1
    15    6    7 2
    16    6   32 1
    17    7    8 1
    18    7   11 1
    19    8    9 2
    20    8   10 1
    21   11   12 1
    22   11   13 1
    23   11   29 1
    24   13   18 ar
    25   13   14 ar
    26   14   15 ar
    27   14   41 1
    28   15   16 ar
    29   15   42 1
    30   16   17 ar
    31   16   43 1
    32   17   18 ar
    33   17   19 1
    34   18   44 1
    35   19   20 1
    36   19   45 1
    37   20   21 2
    38   20   22 2
    39   20   23 1
    40   23   27 1
    41   23   24 2
    42   24   25 1
    43   24   46 1
    44   25   26 1
    45   25   28 1
    46   26   27 2
    47   26   47 1
    48   28   48 1
    49   28   49 1
    50   28   50 1
    51   29   31 1
    52   29   30 1
    53   29   51 1
    54   30   31 1
    55   30   52 1
    56   30   53 1
    57   31   54 1
    58   31   55 1
    59   32   56 1
@<TRIPOS>MOLECULE
ZINC03815638
   57    60     0     0     0
SMALL
USER_CHARGES

@<TRIPOS>ATOM
      1 C1         -0.3908    3.5273   -0.5330 C.3       1 <0>        -0.1551
      2 C2          0.2524    2.9855    0.7452 C.3       1 <0>        -0.1215
      3 C3         -0.4463    1.6883    1.1573 C.3       1 <0>        -0.0822
      4 C4          0.1873    1.1546    2.4163 C.2       1 <0>         0.1676
      5 C5         -0.2936    1.5402    3.6133 C.2       1 <0>        -0.2754
      6 C6          0.2919    1.0413    4.7983 C.2       1 <0>         0.2486
      7 C7          1.3602    0.1690    4.6950 C.2       1 <0>        -0.2850
      8 C8          1.8182   -0.1908    3.4216 C.2       1 <0>         0.5070
      9 O1          2.7592   -0.9589    3.3076 O.2       1 <0>        -0.4631
     10 O2          1.2234    0.3086    2.3246 O.3       1 <0>        -0.2611
     11 C9          2.0198   -0.3849    5.9316 C.3       1 <0>         0.0478
     12 H1          2.8379    0.2700    6.2315 H         1 <0>         0.0932
     13 C10         2.5595   -1.7613    5.6393 C.ar      1 <0>         0.0011
     14 C11         1.7100   -2.7548    5.1874 C.ar      1 <0>        -0.1057
     15 C12         2.2021   -4.0173    4.9126 C.ar      1 <0>        -0.0806
     16 C13         3.5424   -4.2936    5.0996 C.ar      1 <0>        -0.1979
     17 C14         4.3972   -3.2998    5.5587 C.ar      1 <0>         0.1562
     18 C15         3.9005   -2.0307    5.8284 C.ar      1 <0>        -0.1085
     19 N1          5.7531   -3.5759    5.7493 N.pl3     1 <0>        -1.0398
     20 S1          6.2148   -4.9720    6.5110 S.o2      1 <0>         2.7056
     21 O3          7.6357   -4.9752    6.5269 O.2       1 <0>        -0.9062
     22 O4          5.4394   -5.0622    7.6984 O.2       1 <0>        -0.9057
     23 C16         5.7196   -6.3146    5.4830 C.2       1 <0>        -0.5612
     24 C17         6.4580   -6.8795    4.5087 C.2       1 <0>         0.1631
     25 N2          5.6986   -7.8809    3.9664 N.pl3     1 <0>        -0.4173
     26 C18         4.5217   -7.8931    4.6286 C.cat     1 <0>         0.3272
     27 C19         6.0896   -8.7729    2.8720 C.3       1 <0>         0.0499
     28 C20         0.9932   -0.4693    7.0629 C.3       1 <0>        -0.1302
     29 C21         1.1682    0.4823    8.2481 C.3       1 <0>        -0.1715
     30 C22         1.4716   -1.0091    8.4122 C.3       1 <0>        -0.1801
     31 O5         -0.1801    1.4139    6.0112 O.3       1 <0>        -0.4739
     32 H2         -0.2902    2.7912   -1.3306 H         1 <0>         0.0593
     33 H3         -1.4474    3.7252   -0.3524 H         1 <0>         0.0600
     34 H4          0.1069    4.4515   -0.8267 H         1 <0>         0.0635
     35 H5          1.3089    2.7876    0.5645 H         1 <0>         0.0701
     36 H6          0.1518    3.7217    1.5427 H         1 <0>         0.0712
     37 H7         -1.5028    1.8862    1.3380 H         1 <0>         0.1088
     38 H8         -0.3457    0.9522    0.3598 H         1 <0>         0.0973
     39 H9         -1.1264    2.2257    3.6673 H         1 <0>         0.1639
     40 H10         0.6606   -2.5427    5.0449 H         1 <0>         0.1236
     41 H11         1.5368   -4.7896    4.5557 H         1 <0>         0.1280
     42 H12         3.9253   -5.2813    4.8893 H         1 <0>         0.1008
     43 H13         4.5625   -1.2558    6.1859 H         1 <0>         0.1324
     44 H14         6.4243   -2.9499    5.4355 H         1 <0>         0.4378
     45 H15         7.4574   -6.5970    4.2125 H         1 <0>         0.2421
     46 H16         3.7003   -8.5684    4.4400 H         1 <0>         0.2748
     47 H17         6.5763   -9.6583    3.2811 H         1 <0>         0.1176
     48 H18         5.2032   -9.0715    2.3123 H         1 <0>         0.1219
     49 H19         6.7802   -8.2526    2.2083 H         1 <0>         0.1231
     50 H20        -0.0249   -0.7102    6.7569 H         1 <0>         0.1136
     51 H21         2.0147    1.1685    8.2219 H         1 <0>         0.0926
     52 H22         0.2652    0.8672    8.7221 H         1 <0>         0.0994
     53 H23         0.7682   -1.6047    8.9941 H         1 <0>         0.0959
     54 H24         2.5176   -1.3044    8.4939 H         1 <0>         0.0929
     55 H25         0.2419    2.2061    6.3711 H         1 <0>         0.4080
     56 N3          4.5444   -6.9572    5.5367 N.pl3     1 <0>        -0.4346
     57 H26         3.7814   -6.7456    6.1904 H         1 <0>         0.4909
@<TRIPOS>BOND
     1    1    2 1
     2    1   32 1
     3    1   33 1
     4    1   34 1
     5    2    3 1
     6    2   35 1
     7    2   36 1
     8    3    4 1
     9    3   37 1
    10    3   38 1
    11    4   10 1
    12    4    5 2
    13    5    6 1
    14    5   39 1
    15    6    7 2
    16    6   31 1
    17    7    8 1
    18    7   11 1
    19    8    9 2
    20    8   10 1
    21   11   12 1
    22   11   13 1
    23   11   28 1
    24   13   18 ar
    25   13   14 ar
    26   14   15 ar
    27   14   40 1
    28   15   16 ar
    29   15   41 1
    30   16   17 ar
    31   16   42 1
    32   17   18 ar
    33   17   19 1
    34   18   43 1
    35   19   20 1
    36   19   44 1
    37   20   21 2
    38   20   22 2
    39   20   23 1
    40   23   24 2
    41   23   56 1
    42   24   25 1
    43   24   45 1
    44   25   26 1
    45   25   27 1
    46   26   46 1
    47   26   56 2
    48   27   47 1
    49   27   48 1
    50   27   49 1
    51   28   30 1
    52   28   29 1
    53   28   50 1
    54   29   30 1
    55   29   51 1
    56   29   52 1
    57   30   53 1
    58   30   54 1
    59   31   55 1
    60   56   57 1
@<TRIPOS>MOLECULE
ZINC03815639
   74    79     0     0     0
SMALL
USER_CHARGES

@<TRIPOS>ATOM
      1 C1         -7.5571    4.2801   -3.5503 C.3       1 <0>        -0.1559
      2 C2         -6.1098    4.6738   -3.8523 C.3       1 <0>        -0.1201
      3 C3         -6.0068    6.1967   -3.9574 C.3       1 <0>        -0.0357
      4 H1         -6.7277    6.5600   -4.6899 H         1 <0>         0.1088
      5 C4         -6.3055    6.8233   -2.5939 C.3       1 <0>        -0.0788
      6 C5         -6.3104    8.3249   -2.7213 C.ar      1 <0>        -0.0894
      7 C6         -5.1313    9.0339   -2.5868 C.ar      1 <0>        -0.1117
      8 C7         -5.1350   10.4108   -2.7086 C.ar      1 <0>        -0.1132
      9 C8         -6.3195   11.0798   -2.9544 C.ar      1 <0>        -0.1191
     10 C9         -7.4994   10.3713   -3.0837 C.ar      1 <0>        -0.1168
     11 C10        -7.4949    8.9939   -2.9672 C.ar      1 <0>        -0.1150
     12 C11        -4.6147    6.5774   -4.3911 C.2       1 <0>         0.1655
     13 C12        -4.4434    7.2636   -5.5366 C.2       1 <0>        -0.2676
     14 C13        -3.1415    7.6240   -5.9506 C.2       1 <0>         0.2289
     15 C14        -2.0678    7.2580   -5.1594 C.2       1 <0>        -0.2630
     16 C15        -2.3099    6.5398   -3.9819 C.2       1 <0>         0.5000
     17 O1         -1.3769    6.2022   -3.2720 O.2       1 <0>        -0.4367
     18 O2         -3.5685    6.2262   -3.6295 O.3       1 <0>        -0.2605
     19 C16        -0.6612    7.6204   -5.5607 C.3       1 <0>         0.0547
     20 H2         -0.2122    6.7883   -6.1030 H         1 <0>         0.0828
     21 C17         0.1532    7.9140   -4.3272 C.ar      1 <0>        -0.0470
     22 C18        -0.1322    9.0290   -3.5602 C.ar      1 <0>        -0.1123
     23 C19         0.6123    9.3018   -2.4275 C.ar      1 <0>        -0.1203
     24 C20         1.6443    8.4613   -2.0584 C.ar      1 <0>        -0.0788
     25 C21         1.9336    7.3407   -2.8263 C.ar      1 <0>         0.1467
     26 C22         1.1867    7.0722   -3.9666 C.ar      1 <0>        -0.1006
     27 N1          2.9768    6.4889   -2.4563 N.pl3     1 <0>        -1.0519
     28 S1          3.1441    6.0226   -0.8761 S.o2      1 <0>         2.7004
     29 O3          3.0656    7.2057   -0.0931 O.2       1 <0>        -0.9344
     30 O4          4.2640    5.1493   -0.8268 O.2       1 <0>        -0.9643
     31 C23         1.7310    5.0529   -0.4666 C.ar      1 <0>        -0.6622
     32 C24         1.8727    3.7342   -0.1610 C.ar      1 <0>         0.0205
     33 C25         0.7689    2.9494    0.1655 C.ar      1 <0>        -0.1554
     34 C26        -0.4852    3.4797    0.1821 C.ar      1 <0>        -0.0305
     35 C27        -0.6681    4.8379   -0.1228 C.ar      1 <0>        -0.1166
     36 C28         0.4532    5.6383   -0.4548 C.ar      1 <0>         0.2150
     37 N2          0.2836    6.9310   -0.7502 N.ar      1 <0>        -0.4678
     38 C29        -0.9059    7.4817   -0.7411 C.ar      1 <0>         0.1762
     39 C30        -2.0495    6.7517   -0.4236 C.ar      1 <0>        -0.1675
     40 C31        -1.9471    5.4260   -0.1115 C.ar      1 <0>        -0.0365
     41 C32        -0.6902    8.8584   -6.4593 C.3       1 <0>        -0.1211
     42 C33        -0.3127    8.6726   -7.9303 C.3       1 <0>        -0.1814
     43 C34         0.6490    9.3868   -6.9774 C.3       1 <0>        -0.1768
     44 O5         -2.9488    8.3137   -7.0996 O.3       1 <0>        -0.4747
     45 H3         -7.8885    4.7832   -2.6420 H         1 <0>         0.0614
     46 H4         -8.1954    4.5758   -4.3830 H         1 <0>         0.0579
     47 H5         -7.6185    3.2008   -3.4110 H         1 <0>         0.0612
     48 H6         -5.7997    4.2228   -4.7950 H         1 <0>         0.0690
     49 H7         -5.4621    4.3203   -3.0500 H         1 <0>         0.0746
     50 H8         -7.2810    6.4852   -2.2444 H         1 <0>         0.0908
     51 H9         -5.5391    6.5218   -1.8798 H         1 <0>         0.0829
     52 H10        -4.2066    8.5116   -2.3904 H         1 <0>         0.1137
     53 H11        -4.2132   10.9644   -2.6072 H         1 <0>         0.1208
     54 H12        -6.3231   12.1559   -3.0451 H         1 <0>         0.1212
     55 H13        -8.4249   10.8939   -3.2754 H         1 <0>         0.1219
     56 H14        -8.4168    8.4403   -3.0678 H         1 <0>         0.1216
     57 H15        -5.2983    7.5381   -6.1369 H         1 <0>         0.1544
     58 H16        -0.9386    9.6879   -3.8466 H         1 <0>         0.1100
     59 H17         0.3868   10.1733   -1.8308 H         1 <0>         0.1201
     60 H18         2.2259    8.6753   -1.1739 H         1 <0>         0.1500
     61 H19         1.4119    6.2041   -4.5684 H         1 <0>         0.1115
     62 H20         3.6033    6.1704   -3.1249 H         1 <0>         0.4221
     63 H21         2.8566    3.2892   -0.1715 H         1 <0>         0.1473
     64 H22         0.9093    1.9055    0.4044 H         1 <0>         0.1366
     65 H23        -1.3337    2.8601    0.4321 H         1 <0>         0.1346
     66 H24        -1.0021    8.5293   -0.9854 H         1 <0>         0.1550
     67 H25        -3.0159    7.2338   -0.4239 H         1 <0>         0.1297
     68 H26        -2.8230    4.8450    0.1367 H         1 <0>         0.1340
     69 H27        -1.4639    9.5901   -6.2268 H         1 <0>         0.1133
     70 H28        -0.0438    7.6683   -8.2579 H         1 <0>         0.0884
     71 H29        -0.8379    9.2822   -8.6656 H         1 <0>         0.0941
     72 H30         0.7561   10.4660   -7.0861 H         1 <0>         0.0925
     73 H31         1.5507    8.8526   -6.6777 H         1 <0>         0.0922
     74 H32        -2.8242    7.7539   -7.8781 H         1 <0>         0.4015
@<TRIPOS>BOND
     1    1    2 1
     2    1   45 1
     3    1   46 1
     4    1   47 1
     5    2    3 1
     6    2   48 1
     7    2   49 1
     8    3    4 1
     9    3    5 1
    10    3   12 1
    11    5    6 1
    12    5   50 1
    13    5   51 1
    14    6   11 ar
    15    6    7 ar
    16    7    8 ar
    17    7   52 1
    18    8    9 ar
    19    8   53 1
    20    9   10 ar
    21    9   54 1
    22   10   11 ar
    23   10   55 1
    24   11   56 1
    25   12   18 1
    26   12   13 2
    27   13   14 1
    28   13   57 1
    29   14   15 2
    30   14   44 1
    31   15   16 1
    32   15   19 1
    33   16   17 2
    34   16   18 1
    35   19   20 1
    36   19   21 1
    37   19   41 1
    38   21   26 ar
    39   21   22 ar
    40   22   23 ar
    41   22   58 1
    42   23   24 ar
    43   23   59 1
    44   24   25 ar
    45   24   60 1
    46   25   26 ar
    47   25   27 1
    48   26   61 1
    49   27   28 1
    50   27   62 1
    51   28   29 2
    52   28   30 2
    53   28   31 1
    54   31   36 ar
    55   31   32 ar
    56   32   33 ar
    57   32   63 1
    58   33   34 ar
    59   33   64 1
    60   34   35 ar
    61   34   65 1
    62   35   40 ar
    63   35   36 ar
    64   36   37 ar
    65   37   38 ar
    66   38   39 ar
    67   38   66 1
    68   39   40 ar
    69   39   67 1
    70   40   68 1
    71   41   43 1
    72   41   42 1
    73   41   69 1
    74   42   43 1
    75   42   70 1
    76   42   71 1
    77   43   72 1
    78   43   73 1
    79   44   74 1
@<TRIPOS>MOLECULE
ZINC03815640
   62    67     0     0     0
SMALL
USER_CHARGES

@<TRIPOS>ATOM
      1 C1          9.6558    1.6250   -7.4240 C.3       1 <0>         0.0226
      2 O1          9.6180    0.7128   -6.3247 O.3       1 <0>        -0.3051
      3 C2          8.7345    0.9829   -5.3300 C.ar      1 <0>         0.1912
      4 C3          7.9162    2.1069   -5.4186 C.ar      1 <0>        -0.2278
      5 C4          7.0261    2.3936   -4.4238 C.ar      1 <0>        -0.0048
      6 C5          6.9283    1.5490   -3.3145 C.ar      1 <0>        -0.2119
      7 C6          7.7476    0.4109   -3.2206 C.ar      1 <0>         0.1987
      8 C7          8.6503    0.1360   -4.2370 C.ar      1 <0>        -0.1772
      9 O2          7.6498   -0.4014   -2.1461 O.3       1 <0>        -0.2695
     10 C8          6.7827   -0.1526   -1.1512 C.2       1 <0>         0.5248
     11 O3          6.7333   -0.9173   -0.2034 O.2       1 <0>        -0.4462
     12 C9          5.9326    0.9618   -1.1726 C.2       1 <0>        -0.2415
     13 C10         5.9760    1.8291   -2.2307 C.2       1 <0>         0.2336
     14 O4          5.1668    2.9120   -2.2773 O.3       1 <0>        -0.4751
     15 C11         4.9742    1.2038   -0.0351 C.3       1 <0>         0.0575
     16 H1          4.3349    2.0540   -0.2733 H         1 <0>         0.0961
     17 C12         5.7510    1.4963    1.2227 C.ar      1 <0>        -0.0808
     18 C13         6.0251    2.8049    1.5768 C.ar      1 <0>        -0.1159
     19 C14         6.7371    3.0777    2.7302 C.ar      1 <0>        -0.1267
     20 C15         7.1771    2.0433    3.5329 C.ar      1 <0>        -0.0756
     21 C16         6.9035    0.7281    3.1803 C.ar      1 <0>         0.1358
     22 C17         6.1833    0.4577    2.0234 C.ar      1 <0>        -0.0906
     23 N1          7.3474   -0.3203    3.9896 N.pl3     1 <0>        -1.0497
     24 S1          7.1616   -0.2337    5.6328 S.o2      1 <0>         2.6996
     25 O5          7.6795   -1.4454    6.1645 O.2       1 <0>        -0.9611
     26 O6          7.6472    1.0414    6.0298 O.2       1 <0>        -0.9337
     27 C18         5.4307   -0.2383    5.9624 C.ar      1 <0>        -0.6617
     28 C19         4.8663   -1.2777    6.6359 C.ar      1 <0>         0.0244
     29 C20         3.4999   -1.3017    6.9066 C.ar      1 <0>        -0.1496
     30 C21         2.6900   -0.2834    6.5047 C.ar      1 <0>        -0.0316
     31 C22         3.2380    0.8052    5.8080 C.ar      1 <0>        -0.1231
     32 C23         4.6285    0.8342    5.5359 C.ar      1 <0>         0.2056
     33 N2          5.1561    1.8715    4.8780 N.ar      1 <0>        -0.4714
     34 C24         4.4126    2.8746    4.4788 C.ar      1 <0>         0.1598
     35 C25         3.0406    2.9114    4.7188 C.ar      1 <0>        -0.1796
     36 C26         2.4354    1.8778    5.3752 C.ar      1 <0>        -0.0434
     37 C27         4.1098   -0.0406    0.1770 C.3       1 <0>        -0.1486
     38 C28         2.6230    0.0647   -0.1683 C.3       1 <0>        -0.1808
     39 C29         3.0663    0.0062    1.2949 C.3       1 <0>        -0.1654
     40 H2         10.4022    1.2933   -8.1459 H         1 <0>         0.1079
     41 H3          8.6771    1.6581   -7.9026 H         1 <0>         0.0621
     42 H4          9.9171    2.6195   -7.0622 H         1 <0>         0.0625
     43 H5          7.9886    2.7570   -6.2779 H         1 <0>         0.1432
     44 H6          6.3962    3.2679   -4.4961 H         1 <0>         0.1458
     45 H7          9.2856   -0.7352   -4.1764 H         1 <0>         0.1549
     46 H8          4.3164    2.7493   -2.7079 H         1 <0>         0.4070
     47 H9          5.6819    3.6155    0.9510 H         1 <0>         0.1183
     48 H10         6.9491    4.1006    3.0039 H         1 <0>         0.1242
     49 H11         7.7328    2.2571    4.4339 H         1 <0>         0.1520
     50 H12         5.9654   -0.5637    1.7485 H         1 <0>         0.1357
     51 H13         7.7644   -1.0991    3.5890 H         1 <0>         0.4252
     52 H14         5.4877   -2.0972    6.9655 H         1 <0>         0.1506
     53 H15         3.0775   -2.1388    7.4426 H         1 <0>         0.1400
     54 H16         1.6322   -0.3133    6.7204 H         1 <0>         0.1385
     55 H17         4.8760    3.6945    3.9502 H         1 <0>         0.1654
     56 H18         2.4545    3.7518    4.3773 H         1 <0>         0.1408
     57 H19         1.3731    1.8896    5.5694 H         1 <0>         0.1410
     58 H20         4.6041   -0.9939   -0.0105 H         1 <0>         0.1164
     59 H21         2.2607    1.0205   -0.5466 H         1 <0>         0.0925
     60 H22         2.1388   -0.8194   -0.5832 H         1 <0>         0.0927
     61 H23         2.8737   -0.9163    1.8427 H         1 <0>         0.0901
     62 H24         2.9958    0.9235    1.8795 H         1 <0>         0.0918
@<TRIPOS>BOND
     1    1    2 1
     2    1   40 1
     3    1   41 1
     4    1   42 1
     5    2    3 1
     6    3    8 ar
     7    3    4 ar
     8    4    5 ar
     9    4   43 1
    10    5    6 ar
    11    5   44 1
    12    6   13 1
    13    6    7 ar
    14    7    8 ar
    15    7    9 1
    16    8   45 1
    17    9   10 1
    18   10   11 2
    19   10   12 1
    20   12   13 2
    21   12   15 1
    22   13   14 1
    23   14   46 1
    24   15   16 1
    25   15   17 1
    26   15   37 1
    27   17   22 ar
    28   17   18 ar
    29   18   19 ar
    30   18   47 1
    31   19   20 ar
    32   19   48 1
    33   20   21 ar
    34   20   49 1
    35   21   22 ar
    36   21   23 1
    37   22   50 1
    38   23   24 1
    39   23   51 1
    40   24   25 2
    41   24   26 2
    42   24   27 1
    43   27   32 ar
    44   27   28 ar
    45   28   29 ar
    46   28   52 1
    47   29   30 ar
    48   29   53 1
    49   30   31 ar
    50   30   54 1
    51   31   36 ar
    52   31   32 ar
    53   32   33 ar
    54   33   34 ar
    55   34   35 ar
    56   34   55 1
    57   35   36 ar
    58   35   56 1
    59   36   57 1
    60   37   39 1
    61   37   38 1
    62   37   58 1
    63   38   39 1
    64   38   59 1
    65   38   60 1
    66   39   61 1
    67   39   62 1
@<TRIPOS>MOLECULE
ZINC03815641
   75    81     0     0     0
SMALL
USER_CHARGES

@<TRIPOS>ATOM
      1 C1         -0.1579    1.9514    0.9781 C.ar      1 <0>        -0.1555
      2 C2         -1.3471    2.6013    0.8449 C.ar      1 <0>        -0.0309
      3 C3         -1.3588    3.9863    0.6153 C.ar      1 <0>        -0.1169
      4 C4         -2.5665    4.6964    0.4774 C.ar      1 <0>        -0.0377
      5 C5         -2.5008    6.0415    0.2504 C.ar      1 <0>        -0.1645
      6 C6         -1.2615    6.6720    0.1617 C.ar      1 <0>         0.1783
      7 N1         -0.1388    6.0079    0.2910 N.ar      1 <0>        -0.4683
      8 C7         -0.1329    4.6898    0.5140 C.ar      1 <0>         0.2145
      9 C8          1.0741    3.9826    0.6514 C.ar      1 <0>        -0.6621
     10 C9          1.0486    2.6409    0.8784 C.ar      1 <0>         0.0202
     11 S1          2.6143    4.8299    0.5297 S.o2      1 <0>         2.7004
     12 O1          2.5199    5.9676    1.3758 O.2       1 <0>        -0.9343
     13 O2          3.6307    3.8487    0.6829 O.2       1 <0>        -0.9644
     14 N2          2.7377    5.4013   -1.0197 N.pl3     1 <0>        -1.0519
     15 C10         1.8448    6.3721   -1.4792 C.ar      1 <0>         0.1469
     16 C11         1.5398    7.4697   -0.6839 C.ar      1 <0>        -0.0790
     17 C12         0.6571    8.4279   -1.1414 C.ar      1 <0>        -0.1199
     18 C13         0.0771    8.2962   -2.3901 C.ar      1 <0>        -0.1118
     19 C14         0.3784    7.2051   -3.1841 C.ar      1 <0>        -0.0459
     20 C15         1.2643    6.2454   -2.7346 C.ar      1 <0>        -0.1024
     21 C16        -0.2560    7.0658   -4.5440 C.3       1 <0>         0.0544
     22 H1          0.1824    6.2140   -5.0639 H         1 <0>         0.0828
     23 C17        -1.7390    6.8492   -4.3866 C.2       1 <0>        -0.2628
     24 C18        -2.6281    7.3734   -5.3072 C.2       1 <0>         0.2276
     25 C19        -4.0097    7.1418   -5.1240 C.2       1 <0>        -0.2736
     26 C20        -4.4334    6.4306   -4.0623 C.2       1 <0>         0.1701
     27 O3         -3.5654    5.9305   -3.1711 O.3       1 <0>        -0.2590
     28 C21        -2.2411    6.1187   -3.3026 C.2       1 <0>         0.5008
     29 O4         -1.4748    5.6517   -2.4759 O.2       1 <0>        -0.4371
     30 C22        -5.9093    6.1928   -3.8719 C.3       1 <0>        -0.0348
     31 C23        -6.1882    4.6885   -3.8761 C.3       1 <0>        -0.0850
     32 C24        -7.6979    4.4495   -3.8081 C.3       1 <0>        -0.1536
     33 C25        -8.2443    3.7297   -2.5735 C.3       1 <0>        -0.1781
     34 C26        -8.1903    3.0053   -3.9200 C.3       1 <0>        -0.1796
     35 C27        -6.3538    6.7902   -2.5353 C.3       1 <0>        -0.0830
     36 C28        -6.1909    8.3110   -2.5770 C.3       1 <0>        -0.1597
     37 C29        -5.1907    8.9412   -1.6057 C.3       1 <0>        -0.1777
     38 C30        -6.6935    9.1086   -1.3720 C.3       1 <0>        -0.1759
     39 O5         -2.1829    8.0905   -6.3657 O.3       1 <0>        -0.4753
     40 C31        -0.0098    8.3399   -5.3545 C.3       1 <0>        -0.1211
     41 C32         0.5748    8.1815   -6.7595 C.3       1 <0>        -0.1814
     42 C33         1.4432    8.7344   -5.6266 C.3       1 <0>        -0.1770
     43 H2         -0.1498    0.8867    1.1589 H         1 <0>         0.1365
     44 H3         -2.2758    2.0552    0.9193 H         1 <0>         0.1342
     45 H4         -3.5186    4.1914    0.5487 H         1 <0>         0.1331
     46 H5         -3.4086    6.6161    0.1402 H         1 <0>         0.1288
     47 H6         -1.2249    7.7364   -0.0178 H         1 <0>         0.1551
     48 H7          1.9787    2.1020    0.9833 H         1 <0>         0.1473
     49 H8          3.4300    5.0617   -1.6081 H         1 <0>         0.4221
     50 H9          1.9929    7.5735    0.2910 H         1 <0>         0.1499
     51 H10         0.4196    9.2813   -0.5237 H         1 <0>         0.1202
     52 H11        -0.6130    9.0471   -2.7455 H         1 <0>         0.1098
     53 H12         1.5026    5.3957   -3.3571 H         1 <0>         0.1115
     54 H13        -4.7239    7.5374   -5.8310 H         1 <0>         0.1553
     55 H14        -6.4614    6.6670   -4.6833 H         1 <0>         0.1089
     56 H15        -5.7915    4.2480   -4.7907 H         1 <0>         0.0721
     57 H16        -5.7082    4.2275   -3.0128 H         1 <0>         0.0756
     58 H17        -8.3176    5.2284   -4.2523 H         1 <0>         0.1076
     59 H18        -7.5283    3.4264   -1.8097 H         1 <0>         0.0942
     60 H19        -9.2237    4.0351   -2.2052 H         1 <0>         0.0945
     61 H20        -9.1342    2.8340   -4.4376 H         1 <0>         0.0953
     62 H21        -7.4387    2.2253   -4.0421 H         1 <0>         0.0938
     63 H22        -7.3999    6.5417   -2.3562 H         1 <0>         0.0856
     64 H23        -5.7405    6.3810   -1.7325 H         1 <0>         0.0740
     65 H24        -6.2934    8.7679   -3.5613 H         1 <0>         0.1040
     66 H25        -4.6488    8.2724   -0.9370 H         1 <0>         0.0924
     67 H26        -4.6349    9.8130   -1.9509 H         1 <0>         0.0921
     68 H27        -7.1263   10.0905   -1.5634 H         1 <0>         0.0941
     69 H28        -7.1402    8.5500   -0.5495 H         1 <0>         0.0944
     70 H29        -1.9957    7.5580   -7.1509 H         1 <0>         0.4016
     71 H30        -0.7284    9.1440   -5.1962 H         1 <0>         0.1132
     72 H31         0.7841    7.1696   -7.1064 H         1 <0>         0.0884
     73 H32         0.2411    8.8816   -7.5254 H         1 <0>         0.0941
     74 H33         1.6804    9.7981   -5.6477 H         1 <0>         0.0926
     75 H34         2.2237    8.0865   -5.2279 H         1 <0>         0.0922
@<TRIPOS>BOND
     1    1   10 ar
     2    1    2 ar
     3    1   43 1
     4    2    3 ar
     5    2   44 1
     6    3    8 ar
     7    3    4 ar
     8    4    5 ar
     9    4   45 1
    10    5    6 ar
    11    5   46 1
    12    6    7 ar
    13    6   47 1
    14    7    8 ar
    15    8    9 ar
    16    9   10 ar
    17    9   11 1
    18   10   48 1
    19   11   12 2
    20   11   13 2
    21   11   14 1
    22   14   15 1
    23   14   49 1
    24   15   20 ar
    25   15   16 ar
    26   16   17 ar
    27   16   50 1
    28   17   18 ar
    29   17   51 1
    30   18   19 ar
    31   18   52 1
    32   19   20 ar
    33   19   21 1
    34   20   53 1
    35   21   22 1
    36   21   23 1
    37   21   40 1
    38   23   28 1
    39   23   24 2
    40   24   25 1
    41   24   39 1
    42   25   26 2
    43   25   54 1
    44   26   27 1
    45   26   30 1
    46   27   28 1
    47   28   29 2
    48   30   31 1
    49   30   35 1
    50   30   55 1
    51   31   32 1
    52   31   56 1
    53   31   57 1
    54   32   34 1
    55   32   33 1
    56   32   58 1
    57   33   34 1
    58   33   59 1
    59   33   60 1
    60   34   61 1
    61   34   62 1
    62   35   36 1
    63   35   63 1
    64   35   64 1
    65   36   38 1
    66   36   37 1
    67   36   65 1
    68   37   38 1
    69   37   66 1
    70   37   67 1
    71   38   68 1
    72   38   69 1
    73   39   70 1
    74   40   42 1
    75   40   41 1
    76   40   71 1
    77   41   42 1
    78   41   72 1
    79   41   73 1
    80   42   74 1
    81   42   75 1
@<TRIPOS>MOLECULE
ZINC03815642
   71    76     0     0     0
SMALL
USER_CHARGES

@<TRIPOS>ATOM
      1 C1          1.9320    1.9985   -1.7160 C.ar      1 <0>        -0.1014
      2 C2          0.8643    2.8371   -1.4525 C.ar      1 <0>        -0.1229
      3 C3         -0.2680    2.3451   -0.8300 C.ar      1 <0>        -0.0640
      4 C4         -0.3318    1.0162   -0.4589 C.ar      1 <0>        -0.0895
      5 C5          0.7409    0.1725   -0.7170 C.ar      1 <0>         0.1332
      6 C6          1.8749    0.6689   -1.3478 C.ar      1 <0>        -0.1528
      7 N1          0.6800   -1.1718   -0.3427 N.pl3     1 <0>        -1.0514
      8 S1          1.9746   -1.8821    0.4067 S.o2      1 <0>         2.6887
      9 O1          1.5990   -3.2250    0.6801 O.2       1 <0>        -0.9454
     10 O2          3.1213   -1.5540   -0.3658 O.2       1 <0>        -0.9421
     11 C7          2.1740   -1.0874    1.9666 C.ar      1 <0>        -0.6541
     12 C8          2.9900    0.0249    2.0735 C.ar      1 <0>        -0.0133
     13 C9          3.1468    0.6548    3.2907 C.ar      1 <0>        -0.0912
     14 C10         2.4882    0.1610    4.4186 C.ar      1 <0>         0.0350
     15 C11         1.6705   -0.9650    4.3046 C.ar      1 <0>        -0.0921
     16 C12         1.5185   -1.5820    3.0802 C.ar      1 <0>        -0.0162
     17 C13         2.6503    0.8069    5.6863 C.1       1 <0>         0.2414
     18 N2          2.7789    1.3192    6.6921 N.1       1 <0>        -0.3898
     19 C14        -1.4314    3.2613   -0.5504 C.3       1 <0>         0.0551
     20 H1         -1.0724    4.2861   -0.4560 H         1 <0>         0.0981
     21 C15        -2.4203    3.1779   -1.6846 C.2       1 <0>        -0.2618
     22 C16        -2.6832    4.2845   -2.4714 C.2       1 <0>         0.2329
     23 C17        -3.6136    4.1605   -3.5274 C.2       1 <0>        -0.2723
     24 C18        -4.2291    2.9824   -3.7412 C.2       1 <0>         0.1747
     25 O3         -3.9729    1.9157   -2.9704 O.3       1 <0>        -0.2569
     26 C19        -3.0932    1.9803   -1.9563 C.2       1 <0>         0.5107
     27 O4         -2.8800    0.9934   -1.2714 O.2       1 <0>        -0.4622
     28 C20        -5.2240    2.8606   -4.8666 C.3       1 <0>        -0.0356
     29 C21        -4.7523    1.7881   -5.8505 C.3       1 <0>        -0.0867
     30 C22        -5.6921    1.7543   -7.0573 C.3       1 <0>        -0.1542
     31 C23        -6.4863    0.4690   -7.2986 C.3       1 <0>        -0.1787
     32 C24        -5.3182    0.8306   -8.2183 C.3       1 <0>        -0.1792
     33 C25        -6.5897    2.4675   -4.2997 C.3       1 <0>        -0.0851
     34 C26        -7.1195    3.5981   -3.4155 C.3       1 <0>        -0.1609
     35 C27        -7.3254    3.2958   -1.9298 C.3       1 <0>        -0.1804
     36 C28        -8.5350    3.4515   -2.8537 C.3       1 <0>        -0.1753
     37 O5         -2.0578    5.4622   -2.2372 O.3       1 <0>        -0.4825
     38 C29        -2.1127    2.8375    0.7524 C.3       1 <0>        -0.1465
     39 C30        -2.3502    3.9180    1.8093 C.3       1 <0>        -0.1776
     40 C31        -1.2696    2.8563    2.0290 C.3       1 <0>        -0.1703
     41 H2          2.8133    2.3850   -2.2064 H         1 <0>         0.1296
     42 H3          0.9135    3.8778   -1.7372 H         1 <0>         0.1202
     43 H4         -1.2146    0.6336    0.0316 H         1 <0>         0.1439
     44 H5          2.7109    0.0156   -1.5496 H         1 <0>         0.1565
     45 H6         -0.1207   -1.6892   -0.5218 H         1 <0>         0.4299
     46 H7          3.5020    0.4032    1.2011 H         1 <0>         0.1520
     47 H8          3.7804    1.5256    3.3718 H         1 <0>         0.1452
     48 H9          1.1585   -1.3523    5.1731 H         1 <0>         0.1456
     49 H10         0.8860   -2.4529    2.9905 H         1 <0>         0.1526
     50 H11        -3.8333    5.0091   -4.1584 H         1 <0>         0.1595
     51 H12        -5.3068    3.8167   -5.3835 H         1 <0>         0.1114
     52 H13        -3.7409    2.0205   -6.1839 H         1 <0>         0.0737
     53 H14        -4.7581    0.8156   -5.3582 H         1 <0>         0.0771
     54 H15        -6.1770    2.6993   -7.3022 H         1 <0>         0.1078
     55 H16        -6.3392   -0.3525   -6.5975 H         1 <0>         0.0953
     56 H17        -7.4940    0.5683   -7.7021 H         1 <0>         0.0946
     57 H18        -5.5575    1.1677   -9.2268 H         1 <0>         0.0953
     58 H19        -4.4027    0.2469   -8.1222 H         1 <0>         0.0945
     59 H20        -7.2860    2.2905   -5.1193 H         1 <0>         0.0876
     60 H21        -6.4887    1.5589   -3.7061 H         1 <0>         0.0754
     61 H22        -6.7859    4.6005   -3.6839 H         1 <0>         0.1049
     62 H23        -7.0834    2.2914   -1.5824 H         1 <0>         0.0933
     63 H24        -7.1272    4.0993   -1.2205 H         1 <0>         0.0920
     64 H25        -9.1326    4.3574   -2.7521 H         1 <0>         0.0945
     65 H26        -9.0889    2.5495   -3.1140 H         1 <0>         0.0951
     66 H27        -1.2258    5.5682   -2.7185 H         1 <0>         0.4065
     67 H28        -2.8637    2.0533    0.6567 H         1 <0>         0.1152
     68 H29        -2.0212    4.9307    1.5765 H         1 <0>         0.0943
     69 H30        -3.2573    3.8444    2.4092 H         1 <0>         0.0927
     70 H31        -1.4662    2.0847    2.7734 H         1 <0>         0.0929
     71 H32        -0.2295    3.1702    1.9407 H         1 <0>         0.0938
@<TRIPOS>BOND
     1    1    6 ar
     2    1    2 ar
     3    1   41 1
     4    2    3 ar
     5    2   42 1
     6    3    4 ar
     7    3   19 1
     8    4    5 ar
     9    4   43 1
    10    5    6 ar
    11    5    7 1
    12    6   44 1
    13    7    8 1
    14    7   45 1
    15    8    9 2
    16    8   10 2
    17    8   11 1
    18   11   16 ar
    19   11   12 ar
    20   12   13 ar
    21   12   46 1
    22   13   14 ar
    23   13   47 1
    24   14   15 ar
    25   14   17 1
    26   15   16 ar
    27   15   48 1
    28   16   49 1
    29   17   18 3
    30   19   20 1
    31   19   21 1
    32   19   38 1
    33   21   26 1
    34   21   22 2
    35   22   23 1
    36   22   37 1
    37   23   24 2
    38   23   50 1
    39   24   25 1
    40   24   28 1
    41   25   26 1
    42   26   27 2
    43   28   29 1
    44   28   33 1
    45   28   51 1
    46   29   30 1
    47   29   52 1
    48   29   53 1
    49   30   32 1
    50   30   31 1
    51   30   54 1
    52   31   32 1
    53   31   55 1
    54   31   56 1
    55   32   57 1
    56   32   58 1
    57   33   34 1
    58   33   59 1
    59   33   60 1
    60   34   36 1
    61   34   35 1
    62   34   61 1
    63   35   36 1
    64   35   62 1
    65   35   63 1
    66   36   64 1
    67   36   65 1
    68   37   66 1
    69   38   40 1
    70   38   39 1
    71   38   67 1
    72   39   40 1
    73   39   68 1
    74   39   69 1
    75   40   70 1
    76   40   71 1
@<TRIPOS>MOLECULE
ZINC03815643
   70    74     0     0     0
SMALL
USER_CHARGES

@<TRIPOS>ATOM
      1 C1         -5.2710    3.4396   -7.3641 C.3       1 <0>        -0.1558
      2 C2         -4.7075    3.6770   -5.9616 C.3       1 <0>        -0.1212
      3 C3         -5.3457    2.6902   -4.9818 C.3       1 <0>        -0.0366
      4 H1         -6.4313    2.7582   -5.0530 H         1 <0>         0.1107
      5 C4         -4.9001    1.2679   -5.3276 C.3       1 <0>        -0.0805
      6 C5         -5.6232    0.2858   -4.4424 C.ar      1 <0>        -0.0895
      7 C6         -5.1096   -0.0323   -3.1990 C.ar      1 <0>        -0.1121
      8 C7         -5.7754   -0.9295   -2.3851 C.ar      1 <0>        -0.1139
      9 C8         -6.9494   -1.5166   -2.8187 C.ar      1 <0>        -0.1194
     10 C9         -7.4603   -1.2024   -4.0642 C.ar      1 <0>        -0.1169
     11 C10        -6.7972   -0.3012   -4.8760 C.ar      1 <0>        -0.1145
     12 C11        -4.9124    3.0251   -3.5778 C.2       1 <0>         0.1696
     13 C12        -5.8419    3.3418   -2.6567 C.2       1 <0>        -0.2689
     14 C13        -5.4440    3.6574   -1.3384 C.2       1 <0>         0.2371
     15 C14        -4.0967    3.6321   -1.0271 C.2       1 <0>        -0.2713
     16 C15        -3.1776    3.3007   -2.0303 C.2       1 <0>         0.5022
     17 O1         -1.9839    3.2776   -1.7788 O.2       1 <0>        -0.4462
     18 O2         -3.6080    3.0027   -3.2682 O.3       1 <0>        -0.2600
     19 C16        -3.6254    3.9615    0.3659 C.3       1 <0>         0.0520
     20 H2         -3.4712    5.0371    0.4524 H         1 <0>         0.0876
     21 C17        -2.3286    3.2444    0.6402 C.ar      1 <0>        -0.0266
     22 C18        -2.3009    1.8626    0.6915 C.ar      1 <0>        -0.1101
     23 C19        -1.1144    1.2009    0.9486 C.ar      1 <0>        -0.0932
     24 C20         0.0499    1.9181    1.1437 C.ar      1 <0>        -0.1554
     25 C21         0.0267    3.3056    1.0871 C.ar      1 <0>         0.1422
     26 C22        -1.1684    3.9675    0.8343 C.ar      1 <0>        -0.1088
     27 N1          1.2022    4.0339    1.2835 N.pl3     1 <0>        -1.0530
     28 S1          2.6024    3.5637    0.5347 S.o2      1 <0>         2.6895
     29 O3          3.5982    4.5069    0.9063 O.2       1 <0>        -0.9481
     30 O4          2.7444    2.1707    0.7768 O.2       1 <0>        -0.9418
     31 C23         2.3538    3.7507   -1.1996 C.ar      1 <0>        -0.6530
     32 C24         1.8507    2.6962   -1.9408 C.ar      1 <0>        -0.0040
     33 C25         1.6491    2.8373   -3.2981 C.ar      1 <0>        -0.0833
     34 C26         1.9640    4.0442   -3.9257 C.ar      1 <0>         0.0333
     35 C27         2.4764    5.1025   -3.1725 C.ar      1 <0>        -0.0943
     36 C28         2.6681    4.9494   -1.8150 C.ar      1 <0>        -0.0190
     37 C29         1.7620    4.1962   -5.3352 C.1       1 <0>         0.2447
     38 N2          1.6017    4.3167   -6.4534 N.1       1 <0>        -0.3943
     39 C30        -4.6800    3.5143    1.3801 C.3       1 <0>        -0.1239
     40 C31        -5.4407    4.6055    2.1360 C.3       1 <0>        -0.1733
     41 C32        -4.3869    3.7645    2.8608 C.3       1 <0>        -0.1781
     42 O5         -6.3636    3.9789   -0.3982 O.3       1 <0>        -0.4737
     43 H3         -4.7646    4.0930   -8.0745 H         1 <0>         0.0617
     44 H4         -5.1107    2.3997   -7.6489 H         1 <0>         0.0615
     45 H5         -6.3391    3.6569   -7.3681 H         1 <0>         0.0583
     46 H6         -4.9314    4.6966   -5.6478 H         1 <0>         0.0697
     47 H7         -3.6276    3.5294   -5.9741 H         1 <0>         0.0749
     48 H8         -5.1343    1.0574   -6.3711 H         1 <0>         0.0920
     49 H9         -3.8254    1.1756   -5.1706 H         1 <0>         0.0839
     50 H10        -4.1900    0.4230   -2.8621 H         1 <0>         0.1134
     51 H11        -5.3761   -1.1753   -1.4122 H         1 <0>         0.1206
     52 H12        -7.4673   -2.2210   -2.1846 H         1 <0>         0.1216
     53 H13        -8.3773   -1.6614   -4.4032 H         1 <0>         0.1225
     54 H14        -7.1962   -0.0561   -5.8492 H         1 <0>         0.1223
     55 H15        -6.8880    3.3542   -2.9246 H         1 <0>         0.1569
     56 H16        -3.2089    1.2992    0.5346 H         1 <0>         0.1145
     57 H17        -1.0970    0.1219    0.9924 H         1 <0>         0.1258
     58 H18         0.9773    1.4004    1.3397 H         1 <0>         0.1542
     59 H19        -1.1898    5.0464    0.7893 H         1 <0>         0.1207
     60 H20         1.1984    4.8151    1.8585 H         1 <0>         0.4269
     61 H21         1.6114    1.7619   -1.4548 H         1 <0>         0.1503
     62 H22         1.2521    2.0149   -3.8747 H         1 <0>         0.1430
     63 H23         2.7224    6.0386   -3.6517 H         1 <0>         0.1436
     64 H24         3.0639    5.7672   -1.2312 H         1 <0>         0.1506
     65 H25        -5.2260    2.6071    1.1215 H         1 <0>         0.1088
     66 H26        -5.1899    5.6421    1.9107 H         1 <0>         0.0895
     67 H27        -6.4872    4.4161    2.3750 H         1 <0>         0.0953
     68 H28        -4.7405    3.0222    3.5763 H         1 <0>         0.0934
     69 H29        -3.4426    4.2474    3.1124 H         1 <0>         0.0930
     70 H30        -6.5628    4.9239   -0.3498 H         1 <0>         0.4031
@<TRIPOS>BOND
     1    1    2 1
     2    1   43 1
     3    1   44 1
     4    1   45 1
     5    2    3 1
     6    2   46 1
     7    2   47 1
     8    3    4 1
     9    3    5 1
    10    3   12 1
    11    5    6 1
    12    5   48 1
    13    5   49 1
    14    6   11 ar
    15    6    7 ar
    16    7    8 ar
    17    7   50 1
    18    8    9 ar
    19    8   51 1
    20    9   10 ar
    21    9   52 1
    22   10   11 ar
    23   10   53 1
    24   11   54 1
    25   12   18 1
    26   12   13 2
    27   13   14 1
    28   13   55 1
    29   14   15 2
    30   14   42 1
    31   15   16 1
    32   15   19 1
    33   16   17 2
    34   16   18 1
    35   19   20 1
    36   19   21 1
    37   19   39 1
    38   21   26 ar
    39   21   22 ar
    40   22   23 ar
    41   22   56 1
    42   23   24 ar
    43   23   57 1
    44   24   25 ar
    45   24   58 1
    46   25   26 ar
    47   25   27 1
    48   26   59 1
    49   27   28 1
    50   27   60 1
    51   28   29 2
    52   28   30 2
    53   28   31 1
    54   31   36 ar
    55   31   32 ar
    56   32   33 ar
    57   32   61 1
    58   33   34 ar
    59   33   62 1
    60   34   35 ar
    61   34   37 1
    62   35   36 ar
    63   35   63 1
    64   36   64 1
    65   37   38 3
    66   39   41 1
    67   39   40 1
    68   39   65 1
    69   40   41 1
    70   40   66 1
    71   40   67 1
    72   41   68 1
    73   41   69 1
    74   42   70 1
@<TRIPOS>MOLECULE
ZINC03815644
   58    62     0     0     0
SMALL
USER_CHARGES

@<TRIPOS>ATOM
      1 C1         -3.5337    2.1802    0.1293 C.3       1 <0>         0.0224
      2 O1         -2.3894    2.9804   -0.1744 O.3       1 <0>        -0.3047
      3 C2         -1.1766    2.3750   -0.0996 C.ar      1 <0>         0.1924
      4 C3         -1.0960    1.0305    0.2562 C.ar      1 <0>        -0.2277
      5 C4          0.1170    0.4094    0.3398 C.ar      1 <0>        -0.0044
      6 C5          1.2843    1.1242    0.0573 C.ar      1 <0>        -0.2134
      7 C6          1.2102    2.4797   -0.3065 C.ar      1 <0>         0.1994
      8 C7         -0.0291    3.0976   -0.3823 C.ar      1 <0>        -0.1772
      9 O2          2.3413    3.1661   -0.5777 O.3       1 <0>        -0.2685
     10 C8          3.5507    2.5864   -0.5096 C.2       1 <0>         0.5249
     11 O3          4.5409    3.2500   -0.7644 O.2       1 <0>        -0.4451
     12 C9          3.7062    1.2394   -0.1542 C.2       1 <0>        -0.2452
     13 C10         2.6036    0.4812    0.1339 C.2       1 <0>         0.2364
     14 O4          2.7246   -0.8210    0.4792 O.3       1 <0>        -0.4762
     15 C11         5.0822    0.6282   -0.0899 C.3       1 <0>         0.0539
     16 H1          4.9961   -0.4411    0.1032 H         1 <0>         0.0978
     17 C12         5.8690    1.2773    1.0194 C.ar      1 <0>        -0.0639
     18 C13         6.5872    2.4331    0.7721 C.ar      1 <0>        -0.0887
     19 C14         7.3058    3.0350    1.7885 C.ar      1 <0>        -0.1013
     20 C15         7.3176    2.4772    3.0521 C.ar      1 <0>        -0.1515
     21 C16         6.6021    1.3135    3.3025 C.ar      1 <0>         0.1313
     22 C17         5.8765    0.7144    2.2803 C.ar      1 <0>        -0.1191
     23 N1          6.6122    0.7465    4.5789 N.pl3     1 <0>        -1.0524
     24 S1          8.0372    0.6048    5.4107 S.o2      1 <0>         2.6889
     25 O5          8.6429    1.8902    5.4005 O.2       1 <0>        -0.9411
     26 O6          7.7372   -0.0864    6.6154 O.2       1 <0>        -0.9460
     27 C18         9.0862   -0.4537    4.4706 C.ar      1 <0>        -0.6539
     28 C19         8.9867   -1.8262    4.6143 C.ar      1 <0>        -0.0168
     29 C20         9.8015   -2.6608    3.8779 C.ar      1 <0>        -0.0928
     30 C21        10.7355   -2.1173    2.9936 C.ar      1 <0>         0.0349
     31 C22        10.8342   -0.7312    2.8574 C.ar      1 <0>        -0.0906
     32 C23        10.0095    0.0917    3.5962 C.ar      1 <0>        -0.0131
     33 C24        11.5881   -2.9776    2.2296 C.1       1 <0>         0.2411
     34 N2         12.2644   -3.6600    1.6235 N.1       1 <0>        -0.3894
     35 C25         5.8013    0.8495   -1.4222 C.3       1 <0>        -0.1515
     36 C26         6.0651   -0.3790   -2.2952 C.3       1 <0>        -0.1811
     37 C27         7.2221    0.2984   -1.5581 C.3       1 <0>        -0.1677
     38 H2         -3.5830    1.3393   -0.5625 H         1 <0>         0.0624
     39 H3         -3.4553    1.8066    1.1502 H         1 <0>         0.0626
     40 H4         -4.4357    2.7843    0.0317 H         1 <0>         0.1083
     41 H5         -1.9984    0.4769    0.4702 H         1 <0>         0.1434
     42 H6          0.1740   -0.6324    0.6190 H         1 <0>         0.1459
     43 H7         -0.0993    4.1388   -0.6604 H         1 <0>         0.1556
     44 H8          2.6964   -1.4310   -0.2706 H         1 <0>         0.4084
     45 H9          6.5835    2.8687   -0.2161 H         1 <0>         0.1403
     46 H10         7.8620    3.9399    1.5932 H         1 <0>         0.1304
     47 H11         7.8830    2.9453    3.8444 H         1 <0>         0.1554
     48 H12         5.3193   -0.1908    2.4716 H         1 <0>         0.1271
     49 H13         5.7846    0.4357    4.9782 H         1 <0>         0.4277
     50 H14         8.2667   -2.2451    5.3017 H         1 <0>         0.1509
     51 H15         9.7198   -3.7321    3.9877 H         1 <0>         0.1455
     52 H16        11.5547   -0.3042    2.1755 H         1 <0>         0.1461
     53 H17        10.0844    1.1640    3.4916 H         1 <0>         0.1542
     54 H18         5.5749    1.7878   -1.9284 H         1 <0>         0.1194
     55 H19         5.7263   -1.3449   -1.9204 H         1 <0>         0.0921
     56 H20         6.0120   -0.2490   -3.3761 H         1 <0>         0.0942
     57 H21         7.9303    0.8740   -2.1541 H         1 <0>         0.0957
     58 H22         7.6447   -0.2215   -0.6983 H         1 <0>         0.0942
@<TRIPOS>BOND
     1    1    2 1
     2    1   38 1
     3    1   39 1
     4    1   40 1
     5    2    3 1
     6    3    8 ar
     7    3    4 ar
     8    4    5 ar
     9    4   41 1
    10    5    6 ar
    11    5   42 1
    12    6   13 1
    13    6    7 ar
    14    7    8 ar
    15    7    9 1
    16    8   43 1
    17    9   10 1
    18   10   11 2
    19   10   12 1
    20   12   13 2
    21   12   15 1
    22   13   14 1
    23   14   44 1
    24   15   16 1
    25   15   17 1
    26   15   35 1
    27   17   22 ar
    28   17   18 ar
    29   18   19 ar
    30   18   45 1
    31   19   20 ar
    32   19   46 1
    33   20   21 ar
    34   20   47 1
    35   21   22 ar
    36   21   23 1
    37   22   48 1
    38   23   24 1
    39   23   49 1
    40   24   25 2
    41   24   26 2
    42   24   27 1
    43   27   32 ar
    44   27   28 ar
    45   28   29 ar
    46   28   50 1
    47   29   30 ar
    48   29   51 1
    49   30   31 ar
    50   30   33 1
    51   31   32 ar
    52   31   52 1
    53   32   53 1
    54   33   34 3
    55   35   37 1
    56   35   36 1
    57   35   54 1
    58   36   37 1
    59   36   55 1
    60   36   56 1
    61   37   57 1
    62   37   58 1
@<TRIPOS>MOLECULE
ZINC03815645
   57    61     0     0     0
SMALL
USER_CHARGES

@<TRIPOS>ATOM
      1 C1         -3.5337    2.1806    0.1292 C.3       1 <0>         0.0224
      2 O1         -2.3893    2.9807   -0.1744 O.3       1 <0>        -0.3047
      3 C2         -1.1765    2.3752   -0.0996 C.ar      1 <0>         0.1923
      4 C3         -1.0961    1.0307    0.2562 C.ar      1 <0>        -0.2277
      5 C4          0.1169    0.4095    0.3398 C.ar      1 <0>        -0.0044
      6 C5          1.2843    1.1243    0.0573 C.ar      1 <0>        -0.2133
      7 C6          1.2102    2.4798   -0.3066 C.ar      1 <0>         0.1994
      8 C7         -0.0290    3.0978   -0.3823 C.ar      1 <0>        -0.1771
      9 O2          2.3414    3.1661   -0.5777 O.3       1 <0>        -0.2685
     10 C8          3.5508    2.5864   -0.5096 C.2       1 <0>         0.5250
     11 O3          4.5410    3.2499   -0.7645 O.2       1 <0>        -0.4449
     12 C9          3.7062    1.2394   -0.1542 C.2       1 <0>        -0.2450
     13 C10         2.6035    0.4812    0.1339 C.2       1 <0>         0.2361
     14 O4          2.7245   -0.8210    0.4793 O.3       1 <0>        -0.4762
     15 C11         5.0822    0.6280   -0.0899 C.3       1 <0>         0.0540
     16 H1          4.9960   -0.4412    0.1033 H         1 <0>         0.0976
     17 C12         5.8689    1.2772    1.0194 C.ar      1 <0>        -0.0640
     18 C13         6.5872    2.4329    0.7720 C.ar      1 <0>        -0.0893
     19 C14         7.3059    3.0348    1.7884 C.ar      1 <0>        -0.1014
     20 C15         7.3177    2.4771    3.0520 C.ar      1 <0>        -0.1521
     21 C16         6.6021    1.3134    3.3024 C.ar      1 <0>         0.1328
     22 C17         5.8765    0.7143    2.2803 C.ar      1 <0>        -0.1200
     23 N1          6.6122    0.7465    4.5789 N.pl3     1 <0>        -1.0536
     24 S1          8.0372    0.6048    5.4107 S.o2      1 <0>         2.6929
     25 O5          8.6429    1.8902    5.4005 O.2       1 <0>        -0.9440
     26 O6          7.7372   -0.0864    6.6154 O.2       1 <0>        -0.9488
     27 C18         9.0862   -0.4537    4.4706 C.ar      1 <0>        -0.6905
     28 C19         8.9890   -1.8254    4.6122 C.ar      1 <0>         0.0123
     29 C20         9.8080   -2.6567    3.8718 C.ar      1 <0>        -0.1756
     30 C21        10.7332   -2.1150    2.9957 C.ar      1 <0>         0.1604
     31 C22        10.8332   -0.7408    2.8586 C.ar      1 <0>        -0.1735
     32 C23        10.0096    0.0884    3.5962 C.ar      1 <0>         0.0163
     33 F1         11.5375   -2.9266    2.2749 F         1 <0>        -0.1274
     34 C24         5.8012    0.8492   -1.4222 C.3       1 <0>        -0.1515
     35 C25         6.0649   -0.3793   -2.2951 C.3       1 <0>        -0.1808
     36 C26         7.2220    0.2981   -1.5581 C.3       1 <0>        -0.1678
     37 H2         -3.5830    1.3397   -0.5625 H         1 <0>         0.0623
     38 H3         -3.4553    1.8070    1.1502 H         1 <0>         0.0625
     39 H4         -4.4357    2.7847    0.0316 H         1 <0>         0.1083
     40 H5         -1.9984    0.4772    0.4702 H         1 <0>         0.1435
     41 H6          0.1738   -0.6322    0.6190 H         1 <0>         0.1458
     42 H7         -0.0992    4.1390   -0.6604 H         1 <0>         0.1556
     43 H8          2.6963   -1.4310   -0.2705 H         1 <0>         0.4083
     44 H9          6.5835    2.8684   -0.2162 H         1 <0>         0.1405
     45 H10         7.8621    3.9397    1.5930 H         1 <0>         0.1304
     46 H11         7.8831    2.9452    3.8442 H         1 <0>         0.1552
     47 H12         5.3192   -0.1908    2.4716 H         1 <0>         0.1266
     48 H13         5.7846    0.4357    4.9782 H         1 <0>         0.4271
     49 H14         8.2701   -2.2476    5.2986 H         1 <0>         0.1496
     50 H15         9.7291   -3.7284    3.9795 H         1 <0>         0.1478
     51 H16        11.5543   -0.3171    2.1753 H         1 <0>         0.1484
     52 H17        10.0872    1.1603    3.4891 H         1 <0>         0.1529
     53 H18         5.5748    1.7876   -1.9285 H         1 <0>         0.1195
     54 H19         5.7261   -1.3451   -1.9203 H         1 <0>         0.0921
     55 H20         6.0119   -0.2494   -3.3761 H         1 <0>         0.0945
     56 H21         7.9302    0.8736   -2.1542 H         1 <0>         0.0960
     57 H22         7.6446   -0.2218   -0.6983 H         1 <0>         0.0938
@<TRIPOS>BOND
     1    1    2 1
     2    1   37 1
     3    1   38 1
     4    1   39 1
     5    2    3 1
     6    3    8 ar
     7    3    4 ar
     8    4    5 ar
     9    4   40 1
    10    5    6 ar
    11    5   41 1
    12    6   13 1
    13    6    7 ar
    14    7    8 ar
    15    7    9 1
    16    8   42 1
    17    9   10 1
    18   10   11 2
    19   10   12 1
    20   12   13 2
    21   12   15 1
    22   13   14 1
    23   14   43 1
    24   15   16 1
    25   15   17 1
    26   15   34 1
    27   17   22 ar
    28   17   18 ar
    29   18   19 ar
    30   18   44 1
    31   19   20 ar
    32   19   45 1
    33   20   21 ar
    34   20   46 1
    35   21   22 ar
    36   21   23 1
    37   22   47 1
    38   23   24 1
    39   23   48 1
    40   24   25 2
    41   24   26 2
    42   24   27 1
    43   27   32 ar
    44   27   28 ar
    45   28   29 ar
    46   28   49 1
    47   29   30 ar
    48   29   50 1
    49   30   31 ar
    50   30   33 1
    51   31   32 ar
    52   31   51 1
    53   32   52 1
    54   34   36 1
    55   34   35 1
    56   34   53 1
    57   35   36 1
    58   35   54 1
    59   35   55 1
    60   36   56 1
    61   36   57 1
@<TRIPOS>MOLECULE
ZINC03815646
   68    72     0     0     0
SMALL
USER_CHARGES

@<TRIPOS>ATOM
      1 C1         -5.2710    3.4396   -7.3641 C.3       1 <0>        -0.1558
      2 C2         -4.7075    3.6770   -5.9616 C.3       1 <0>        -0.1210
      3 C3         -5.3457    2.6902   -4.9818 C.3       1 <0>        -0.0366
      4 H1         -6.4313    2.7582   -5.0530 H         1 <0>         0.1106
      5 C4         -4.9001    1.2679   -5.3276 C.3       1 <0>        -0.0801
      6 C5         -5.6232    0.2858   -4.4424 C.ar      1 <0>        -0.0898
      7 C6         -5.1096   -0.0323   -3.1990 C.ar      1 <0>        -0.1123
      8 C7         -5.7754   -0.9296   -2.3851 C.ar      1 <0>        -0.1140
      9 C8         -6.9494   -1.5166   -2.8187 C.ar      1 <0>        -0.1192
     10 C9         -7.4603   -1.2024   -4.0642 C.ar      1 <0>        -0.1169
     11 C10        -6.7972   -0.3012   -4.8760 C.ar      1 <0>        -0.1145
     12 C11        -4.9124    3.0251   -3.5778 C.2       1 <0>         0.1690
     13 C12        -5.8419    3.3418   -2.6567 C.2       1 <0>        -0.2686
     14 C13        -5.4440    3.6574   -1.3383 C.2       1 <0>         0.2374
     15 C14        -4.0967    3.6321   -1.0271 C.2       1 <0>        -0.2713
     16 C15        -3.1776    3.3007   -2.0303 C.2       1 <0>         0.5026
     17 O1         -1.9839    3.2776   -1.7788 O.2       1 <0>        -0.4477
     18 O2         -3.6080    3.0027   -3.2682 O.3       1 <0>        -0.2599
     19 C16        -3.6254    3.9615    0.3659 C.3       1 <0>         0.0517
     20 H2         -3.4712    5.0371    0.4524 H         1 <0>         0.0874
     21 C17        -2.3286    3.2444    0.6401 C.ar      1 <0>        -0.0262
     22 C18        -2.3009    1.8626    0.6915 C.ar      1 <0>        -0.1107
     23 C19        -1.1143    1.2009    0.9486 C.ar      1 <0>        -0.0933
     24 C20         0.0499    1.9181    1.1437 C.ar      1 <0>        -0.1563
     25 C21         0.0267    3.3056    1.0871 C.ar      1 <0>         0.1430
     26 C22        -1.1684    3.9675    0.8343 C.ar      1 <0>        -0.1099
     27 N1          1.2022    4.0339    1.2835 N.pl3     1 <0>        -1.0536
     28 S1          2.6024    3.5637    0.5347 S.o2      1 <0>         2.6973
     29 O3          3.5982    4.5070    0.9063 O.2       1 <0>        -0.9485
     30 O4          2.7444    2.1707    0.7768 O.2       1 <0>        -0.9441
     31 C23         2.3538    3.7507   -1.1996 C.ar      1 <0>        -0.7331
     32 C24         1.8503    2.7016   -1.9539 C.ar      1 <0>         0.0404
     33 C25         1.6669    2.8955   -3.3142 C.ar      1 <0>        -0.1838
     34 C26         1.9990    4.1162   -3.8713 C.ar      1 <0>         0.1548
     35 N2          2.4803    5.0901   -3.1240 N.ar      1 <0>        -0.4954
     36 C27         2.6636    4.9426   -1.8263 C.ar      1 <0>         0.2008
     37 C28        -4.6799    3.5142    1.3801 C.3       1 <0>        -0.1240
     38 C29        -5.4407    4.6055    2.1360 C.3       1 <0>        -0.1730
     39 C30        -4.3869    3.7645    2.8608 C.3       1 <0>        -0.1782
     40 O5         -6.3636    3.9789   -0.3982 O.3       1 <0>        -0.4736
     41 H3         -5.1107    2.3997   -7.6489 H         1 <0>         0.0615
     42 H4         -6.3391    3.6569   -7.3681 H         1 <0>         0.0581
     43 H5         -4.7646    4.0930   -8.0745 H         1 <0>         0.0619
     44 H6         -4.9314    4.6966   -5.6478 H         1 <0>         0.0698
     45 H7         -3.6276    3.5294   -5.9741 H         1 <0>         0.0755
     46 H8         -5.1343    1.0574   -6.3711 H         1 <0>         0.0923
     47 H9         -3.8254    1.1756   -5.1706 H         1 <0>         0.0839
     48 H10        -4.1900    0.4230   -2.8621 H         1 <0>         0.1130
     49 H11        -5.3761   -1.1753   -1.4122 H         1 <0>         0.1204
     50 H12        -7.4673   -2.2210   -2.1846 H         1 <0>         0.1216
     51 H13        -8.3773   -1.6614   -4.4032 H         1 <0>         0.1226
     52 H14        -7.1962   -0.0561   -5.8492 H         1 <0>         0.1225
     53 H15        -6.8880    3.3542   -2.9246 H         1 <0>         0.1572
     54 H16        -3.2088    1.2992    0.5346 H         1 <0>         0.1149
     55 H17        -1.0970    0.1219    0.9924 H         1 <0>         0.1259
     56 H18         0.9773    1.4004    1.3397 H         1 <0>         0.1539
     57 H19        -1.1898    5.0464    0.7893 H         1 <0>         0.1202
     58 H20         1.1984    4.8151    1.8585 H         1 <0>         0.4269
     59 H21         1.6032    1.7572   -1.4918 H         1 <0>         0.1497
     60 H22         1.2733    2.1016   -3.9316 H         1 <0>         0.1455
     61 H23         1.8629    4.2740   -4.9311 H         1 <0>         0.1643
     62 H24         3.0600    5.7631   -1.2467 H         1 <0>         0.1706
     63 H25        -5.2260    2.6071    1.1215 H         1 <0>         0.1090
     64 H26        -5.1899    5.6420    1.9107 H         1 <0>         0.0896
     65 H27        -6.4872    4.4160    2.3750 H         1 <0>         0.0956
     66 H28        -4.7405    3.0221    3.5763 H         1 <0>         0.0937
     67 H29        -3.4426    4.2474    3.1124 H         1 <0>         0.0928
     68 H30        -6.5628    4.9239   -0.3498 H         1 <0>         0.4033
@<TRIPOS>BOND
     1    1    2 1
     2    1   41 1
     3    1   42 1
     4    1   43 1
     5    2    3 1
     6    2   44 1
     7    2   45 1
     8    3    4 1
     9    3    5 1
    10    3   12 1
    11    5    6 1
    12    5   46 1
    13    5   47 1
    14    6   11 ar
    15    6    7 ar
    16    7    8 ar
    17    7   48 1
    18    8    9 ar
    19    8   49 1
    20    9   10 ar
    21    9   50 1
    22   10   11 ar
    23   10   51 1
    24   11   52 1
    25   12   18 1
    26   12   13 2
    27   13   14 1
    28   13   53 1
    29   14   15 2
    30   14   40 1
    31   15   16 1
    32   15   19 1
    33   16   17 2
    34   16   18 1
    35   19   20 1
    36   19   21 1
    37   19   37 1
    38   21   26 ar
    39   21   22 ar
    40   22   23 ar
    41   22   54 1
    42   23   24 ar
    43   23   55 1
    44   24   25 ar
    45   24   56 1
    46   25   26 ar
    47   25   27 1
    48   26   57 1
    49   27   28 1
    50   27   58 1
    51   28   29 2
    52   28   30 2
    53   28   31 1
    54   31   36 ar
    55   31   32 ar
    56   32   33 ar
    57   32   59 1
    58   33   34 ar
    59   33   60 1
    60   34   35 ar
    61   34   61 1
    62   35   36 ar
    63   36   62 1
    64   37   39 1
    65   37   38 1
    66   37   63 1
    67   38   39 1
    68   38   64 1
    69   38   65 1
    70   39   66 1
    71   39   67 1
    72   40   68 1
@<TRIPOS>MOLECULE
ZINC03815647
   50    53     0     0     0
SMALL
USER_CHARGES

@<TRIPOS>ATOM
      1 C1         -0.9014   -2.9198   -6.1844 C.3       1 <0>        -0.1157
      2 C2         -1.3451   -1.4813   -6.1142 C.2       1 <0>         0.1563
      3 C3         -1.7386   -0.8551   -7.2392 C.2       1 <0>        -0.2788
      4 C4         -2.1607    0.4920   -7.1812 C.2       1 <0>         0.2302
      5 C5         -2.1486    1.1398   -5.9594 C.2       1 <0>        -0.2667
      6 C6         -1.7293    0.4344   -4.8247 C.2       1 <0>         0.4993
      7 O1         -1.7156    0.9852   -3.7361 O.2       1 <0>        -0.4373
      8 O2         -1.3415   -0.8480   -4.9324 O.3       1 <0>        -0.2667
      9 C7         -2.5849    2.5781   -5.8500 C.3       1 <0>         0.0526
     10 H1         -1.7254    3.2311   -6.0018 H         1 <0>         0.0866
     11 C8         -3.1669    2.8238   -4.4818 C.ar      1 <0>        -0.0341
     12 C9         -4.3412    2.1961   -4.1077 C.ar      1 <0>        -0.1134
     13 C10        -4.8784    2.4184   -2.8532 C.ar      1 <0>        -0.0928
     14 C11        -4.2436    3.2690   -1.9693 C.ar      1 <0>        -0.1389
     15 C12        -3.0642    3.9010   -2.3417 C.ar      1 <0>         0.1482
     16 C13        -2.5298    3.6792   -3.6047 C.ar      1 <0>        -0.1104
     17 N1         -2.4200    4.7622   -1.4504 N.pl3     1 <0>        -1.0543
     18 S1         -2.2284    4.3217    0.1344 S.o2      1 <0>         2.7251
     19 O3         -3.4984    3.8735    0.5877 O.2       1 <0>        -0.9352
     20 O4         -1.5235    5.3805    0.7678 O.2       1 <0>        -0.9563
     21 C14        -1.1611    2.9199    0.1601 C.2       1 <0>        -0.5571
     22 C15         0.1822    2.9496    0.2504 C.2       1 <0>         0.0665
     23 N2          0.6089    1.6491    0.2376 N.pl3     1 <0>        -0.4544
     24 C16        -0.4893    0.8693    0.1398 C.2       1 <0>         0.1927
     25 N3         -1.5439    1.6364    0.0890 N.2       1 <0>        -0.3995
     26 C17         1.9976    1.1889    0.3159 C.3       1 <0>         0.0652
     27 C18        -3.6434    2.8724   -6.9148 C.3       1 <0>        -0.1235
     28 C19        -3.2530    3.8105   -8.0587 C.3       1 <0>        -0.1756
     29 C20        -4.2155    4.2904   -6.9694 C.3       1 <0>        -0.1774
     30 O5         -2.5650    1.1374   -8.3006 O.3       1 <0>        -0.4739
     31 H2         -0.6206   -3.2624   -5.1885 H         1 <0>         0.0884
     32 H3         -1.7184   -3.5340   -6.5630 H         1 <0>         0.1014
     33 H4         -0.0442   -3.0034   -6.8525 H         1 <0>         0.1003
     34 H5         -1.7355   -1.3818   -8.1820 H         1 <0>         0.1595
     35 H6         -4.8395    1.5305   -4.7970 H         1 <0>         0.1132
     36 H7         -5.7955    1.9266   -2.5643 H         1 <0>         0.1246
     37 H8         -4.6641    3.4428   -0.9898 H         1 <0>         0.1534
     38 H9         -1.6152    4.1725   -3.8990 H         1 <0>         0.1167
     39 H10        -2.0849    5.6182   -1.7598 H         1 <0>         0.4238
     40 H11         0.8035    3.8304    0.3191 H         1 <0>         0.1914
     41 H12        -0.4938   -0.2101    0.1048 H         1 <0>         0.2131
     42 H13         2.4105    1.1074   -0.6896 H         1 <0>         0.0836
     43 H14         2.5849    1.9030    0.8931 H         1 <0>         0.0915
     44 H15         2.0304    0.2141    0.8023 H         1 <0>         0.0946
     45 H16        -4.3178    2.0483   -7.1476 H         1 <0>         0.1099
     46 H17        -2.2421    4.2181   -8.0526 H         1 <0>         0.0891
     47 H18        -3.6709    3.6038   -9.0440 H         1 <0>         0.0952
     48 H19        -5.2661    4.3992   -7.2385 H         1 <0>         0.0938
     49 H20        -3.8380    5.0135   -6.2464 H         1 <0>         0.0932
     50 H21        -1.8523    1.5883   -8.7737 H         1 <0>         0.4026
@<TRIPOS>BOND
     1    1    2 1
     2    1   31 1
     3    1   32 1
     4    1   33 1
     5    2    8 1
     6    2    3 2
     7    3    4 1
     8    3   34 1
     9    4    5 2
    10    4   30 1
    11    5    6 1
    12    5    9 1
    13    6    7 2
    14    6    8 1
    15    9   10 1
    16    9   11 1
    17    9   27 1
    18   11   16 ar
    19   11   12 ar
    20   12   13 ar
    21   12   35 1
    22   13   14 ar
    23   13   36 1
    24   14   15 ar
    25   14   37 1
    26   15   16 ar
    27   15   17 1
    28   16   38 1
    29   17   18 1
    30   17   39 1
    31   18   19 2
    32   18   20 2
    33   18   21 1
    34   21   25 1
    35   21   22 2
    36   22   23 1
    37   22   40 1
    38   23   24 1
    39   23   26 1
    40   24   25 2
    41   24   41 1
    42   26   42 1
    43   26   43 1
    44   26   44 1
    45   27   29 1
    46   27   28 1
    47   27   45 1
    48   28   29 1
    49   28   46 1
    50   28   47 1
    51   29   48 1
    52   29   49 1
    53   30   50 1
@<TRIPOS>MOLECULE
ZINC03815647
   51    54     0     0     0
SMALL
USER_CHARGES

@<TRIPOS>ATOM
      1 C1         -0.9014   -2.9198   -6.1844 C.3       1 <0>        -0.1176
      2 C2         -1.3451   -1.4813   -6.1142 C.2       1 <0>         0.1600
      3 C3         -1.7386   -0.8551   -7.2392 C.2       1 <0>        -0.2743
      4 C4         -2.1607    0.4920   -7.1812 C.2       1 <0>         0.2495
      5 C5         -2.1486    1.1398   -5.9594 C.2       1 <0>        -0.2838
      6 C6         -1.7293    0.4344   -4.8247 C.2       1 <0>         0.5124
      7 O1         -1.7156    0.9852   -3.7361 O.2       1 <0>        -0.4786
      8 O2         -1.3415   -0.8480   -4.9324 O.3       1 <0>        -0.2665
      9 C7         -2.5849    2.5781   -5.8500 C.3       1 <0>         0.0518
     10 H1         -1.7254    3.2311   -6.0018 H         1 <0>         0.0893
     11 C8         -3.1669    2.8238   -4.4818 C.ar      1 <0>        -0.0209
     12 C9         -4.3412    2.1961   -4.1077 C.ar      1 <0>        -0.1019
     13 C10        -4.8784    2.4184   -2.8532 C.ar      1 <0>        -0.0920
     14 C11        -4.2436    3.2690   -1.9693 C.ar      1 <0>        -0.1621
     15 C12        -3.0642    3.9010   -2.3417 C.ar      1 <0>         0.1197
     16 C13        -2.5298    3.6792   -3.6047 C.ar      1 <0>        -0.1029
     17 N1         -2.4200    4.7622   -1.4504 N.pl3     1 <0>        -1.0369
     18 S1         -2.2284    4.3217    0.1344 S.o2      1 <0>         2.7030
     19 O3         -3.4984    3.8735    0.5877 O.2       1 <0>        -0.9136
     20 O4         -1.5235    5.3805    0.7678 O.2       1 <0>        -0.9108
     21 C14        -1.1611    2.9199    0.1601 C.2       1 <0>        -0.5532
     22 C15         0.1822    2.9496    0.2504 C.2       1 <0>         0.1560
     23 N2          0.6089    1.6491    0.2376 N.pl3     1 <0>        -0.4180
     24 C16        -0.4893    0.8693    0.1398 C.cat     1 <0>         0.3315
     25 C17         1.9976    1.1889    0.3159 C.3       1 <0>         0.0517
     26 C18        -3.6434    2.8724   -6.9148 C.3       1 <0>        -0.1320
     27 C19        -3.2530    3.8105   -8.0587 C.3       1 <0>        -0.1720
     28 C20        -4.2155    4.2904   -6.9694 C.3       1 <0>        -0.1771
     29 O5         -2.5650    1.1374   -8.3006 O.3       1 <0>        -0.4721
     30 H2         -0.6206   -3.2624   -5.1885 H         1 <0>         0.0887
     31 H3         -1.7184   -3.5340   -6.5630 H         1 <0>         0.1058
     32 H4         -0.0442   -3.0034   -6.8525 H         1 <0>         0.1048
     33 H5         -1.7355   -1.3818   -8.1820 H         1 <0>         0.1655
     34 H6         -4.8395    1.5305   -4.7970 H         1 <0>         0.1214
     35 H7         -5.7955    1.9266   -2.5643 H         1 <0>         0.1321
     36 H8         -4.6641    3.4428   -0.9898 H         1 <0>         0.1551
     37 H9         -1.6152    4.1725   -3.8990 H         1 <0>         0.1239
     38 H10        -2.0849    5.6182   -1.7598 H         1 <0>         0.4359
     39 H11         0.8035    3.8304    0.3191 H         1 <0>         0.2388
     40 H12        -0.4938   -0.2101    0.1048 H         1 <0>         0.2704
     41 H13         2.4105    1.1074   -0.6896 H         1 <0>         0.1147
     42 H14         2.5849    1.9030    0.8931 H         1 <0>         0.1219
     43 H15         2.0304    0.2141    0.8023 H         1 <0>         0.1204
     44 H16        -4.3178    2.0483   -7.1476 H         1 <0>         0.1118
     45 H17        -2.2421    4.2181   -8.0526 H         1 <0>         0.0910
     46 H18        -3.6709    3.6038   -9.0440 H         1 <0>         0.0991
     47 H19        -5.2661    4.3992   -7.2385 H         1 <0>         0.0966
     48 H20        -3.8380    5.0135   -6.2464 H         1 <0>         0.0922
     49 H21        -1.8523    1.5883   -8.7737 H         1 <0>         0.4088
     50 N3         -1.5426    1.6368    0.0891 N.pl3     1 <0>        -0.4253
     51 H22        -2.5124    1.3095    0.0076 H         1 <0>         0.4880
@<TRIPOS>BOND
     1    1    2 1
     2    1   30 1
     3    1   31 1
     4    1   32 1
     5    2    8 1
     6    2    3 2
     7    3    4 1
     8    3   33 1
     9    4    5 2
    10    4   29 1
    11    5    6 1
    12    5    9 1
    13    6    7 2
    14    6    8 1
    15    9   10 1
    16    9   11 1
    17    9   26 1
    18   11   16 ar
    19   11   12 ar
    20   12   13 ar
    21   12   34 1
    22   13   14 ar
    23   13   35 1
    24   14   15 ar
    25   14   36 1
    26   15   16 ar
    27   15   17 1
    28   16   37 1
    29   17   18 1
    30   17   38 1
    31   18   19 2
    32   18   20 2
    33   18   21 1
    34   21   22 2
    35   21   50 1
    36   22   23 1
    37   22   39 1
    38   23   24 1
    39   23   25 1
    40   24   40 1
    41   24   50 2
    42   25   41 1
    43   25   42 1
    44   25   43 1
    45   26   28 1
    46   26   27 1
    47   26   44 1
    48   27   28 1
    49   27   45 1
    50   27   46 1
    51   28   47 1
    52   28   48 1
    53   29   49 1
    54   50   51 1
@<TRIPOS>MOLECULE
ZINC03815648
   69    73     0     0     0
SMALL
USER_CHARGES

@<TRIPOS>ATOM
      1 C1         -5.2710    3.4396   -7.3641 C.3       1 <0>        -0.1556
      2 C2         -4.7075    3.6770   -5.9616 C.3       1 <0>        -0.1212
      3 C3         -5.3457    2.6902   -4.9818 C.3       1 <0>        -0.0365
      4 H1         -6.4313    2.7582   -5.0530 H         1 <0>         0.1104
      5 C4         -4.9001    1.2679   -5.3276 C.3       1 <0>        -0.0804
      6 C5         -5.6232    0.2858   -4.4424 C.ar      1 <0>        -0.0894
      7 C6         -5.1096   -0.0323   -3.1990 C.ar      1 <0>        -0.1121
      8 C7         -5.7754   -0.9295   -2.3851 C.ar      1 <0>        -0.1140
      9 C8         -6.9494   -1.5166   -2.8187 C.ar      1 <0>        -0.1194
     10 C9         -7.4603   -1.2024   -4.0642 C.ar      1 <0>        -0.1171
     11 C10        -6.7972   -0.3012   -4.8760 C.ar      1 <0>        -0.1146
     12 C11        -4.9124    3.0251   -3.5778 C.2       1 <0>         0.1695
     13 C12        -5.8419    3.3418   -2.6567 C.2       1 <0>        -0.2693
     14 C13        -5.4440    3.6574   -1.3384 C.2       1 <0>         0.2367
     15 C14        -4.0967    3.6321   -1.0271 C.2       1 <0>        -0.2711
     16 C15        -3.1776    3.3007   -2.0303 C.2       1 <0>         0.5020
     17 O1         -1.9839    3.2776   -1.7788 O.2       1 <0>        -0.4454
     18 O2         -3.6080    3.0027   -3.2682 O.3       1 <0>        -0.2594
     19 C16        -3.6254    3.9615    0.3659 C.3       1 <0>         0.0520
     20 H2         -3.4712    5.0371    0.4524 H         1 <0>         0.0873
     21 C17        -2.3286    3.2444    0.6402 C.ar      1 <0>        -0.0264
     22 C18        -2.3009    1.8626    0.6915 C.ar      1 <0>        -0.1106
     23 C19        -1.1144    1.2009    0.9486 C.ar      1 <0>        -0.0932
     24 C20         0.0499    1.9181    1.1437 C.ar      1 <0>        -0.1559
     25 C21         0.0267    3.3056    1.0871 C.ar      1 <0>         0.1433
     26 C22        -1.1684    3.9675    0.8343 C.ar      1 <0>        -0.1093
     27 N1          1.2022    4.0339    1.2835 N.pl3     1 <0>        -1.0539
     28 S1          2.6024    3.5637    0.5347 S.o2      1 <0>         2.6919
     29 O3          3.5982    4.5069    0.9063 O.2       1 <0>        -0.9503
     30 O4          2.7444    2.1707    0.7768 O.2       1 <0>        -0.9440
     31 C23         2.3538    3.7507   -1.1996 C.ar      1 <0>        -0.6746
     32 C24         1.8512    2.6990   -1.9429 C.ar      1 <0>         0.0093
     33 C25         1.6507    2.8470   -3.3024 C.ar      1 <0>        -0.1229
     34 C26         1.9638    4.0441   -3.9213 C.ar      1 <0>         0.0228
     35 C27         2.4720    5.0944   -3.1779 C.ar      1 <0>        -0.1341
     36 C28         2.6668    4.9471   -1.8175 C.ar      1 <0>        -0.0065
     37 Cl1         1.7183    4.2285   -5.6300 Cl        1 <0>        -0.0556
     38 C29        -4.6799    3.5143    1.3801 C.3       1 <0>        -0.1238
     39 C30        -5.4407    4.6055    2.1360 C.3       1 <0>        -0.1731
     40 C31        -4.3869    3.7645    2.8608 C.3       1 <0>        -0.1783
     41 O5         -6.3636    3.9789   -0.3982 O.3       1 <0>        -0.4738
     42 H3         -4.7646    4.0930   -8.0745 H         1 <0>         0.0616
     43 H4         -5.1107    2.3997   -7.6489 H         1 <0>         0.0615
     44 H5         -6.3391    3.6569   -7.3681 H         1 <0>         0.0579
     45 H6         -4.9314    4.6966   -5.6478 H         1 <0>         0.0697
     46 H7         -3.6276    3.5294   -5.9741 H         1 <0>         0.0760
     47 H8         -5.1343    1.0574   -6.3711 H         1 <0>         0.0921
     48 H9         -3.8254    1.1756   -5.1706 H         1 <0>         0.0843
     49 H10        -4.1900    0.4230   -2.8621 H         1 <0>         0.1133
     50 H11        -5.3761   -1.1753   -1.4122 H         1 <0>         0.1204
     51 H12        -7.4673   -2.2210   -2.1846 H         1 <0>         0.1215
     52 H13        -8.3773   -1.6614   -4.4032 H         1 <0>         0.1224
     53 H14        -7.1962   -0.0561   -5.8492 H         1 <0>         0.1224
     54 H15        -6.8880    3.3542   -2.9246 H         1 <0>         0.1568
     55 H16        -3.2089    1.2992    0.5346 H         1 <0>         0.1147
     56 H17        -1.0970    0.1219    0.9924 H         1 <0>         0.1257
     57 H18         0.9773    1.4004    1.3397 H         1 <0>         0.1538
     58 H19        -1.1898    5.0464    0.7893 H         1 <0>         0.1201
     59 H20         1.1984    4.8151    1.8585 H         1 <0>         0.4263
     60 H21         1.6111    1.7631   -1.4604 H         1 <0>         0.1481
     61 H22         1.2540    2.0267   -3.8823 H         1 <0>         0.1430
     62 H23         2.7162    6.0292   -3.6604 H         1 <0>         0.1436
     63 H24         3.0632    5.7670   -1.2369 H         1 <0>         0.1485
     64 H25        -5.2260    2.6071    1.1215 H         1 <0>         0.1089
     65 H26        -5.1899    5.6421    1.9107 H         1 <0>         0.0894
     66 H27        -6.4872    4.4161    2.3750 H         1 <0>         0.0954
     67 H28        -4.7405    3.0222    3.5763 H         1 <0>         0.0935
     68 H29        -3.4426    4.2474    3.1124 H         1 <0>         0.0928
     69 H30        -6.5628    4.9239   -0.3498 H         1 <0>         0.4030
@<TRIPOS>BOND
     1    1    2 1
     2    1   42 1
     3    1   43 1
     4    1   44 1
     5    2    3 1
     6    2   45 1
     7    2   46 1
     8    3    4 1
     9    3    5 1
    10    3   12 1
    11    5    6 1
    12    5   47 1
    13    5   48 1
    14    6   11 ar
    15    6    7 ar
    16    7    8 ar
    17    7   49 1
    18    8    9 ar
    19    8   50 1
    20    9   10 ar
    21    9   51 1
    22   10   11 ar
    23   10   52 1
    24   11   53 1
    25   12   18 1
    26   12   13 2
    27   13   14 1
    28   13   54 1
    29   14   15 2
    30   14   41 1
    31   15   16 1
    32   15   19 1
    33   16   17 2
    34   16   18 1
    35   19   20 1
    36   19   21 1
    37   19   38 1
    38   21   26 ar
    39   21   22 ar
    40   22   23 ar
    41   22   55 1
    42   23   24 ar
    43   23   56 1
    44   24   25 ar
    45   24   57 1
    46   25   26 ar
    47   25   27 1
    48   26   58 1
    49   27   28 1
    50   27   59 1
    51   28   29 2
    52   28   30 2
    53   28   31 1
    54   31   36 ar
    55   31   32 ar
    56   32   33 ar
    57   32   60 1
    58   33   34 ar
    59   33   61 1
    60   34   35 ar
    61   34   37 1
    62   35   36 ar
    63   35   62 1
    64   36   63 1
    65   38   40 1
    66   38   39 1
    67   38   64 1
    68   39   40 1
    69   39   65 1
    70   39   66 1
    71   40   67 1
    72   40   68 1
    73   41   69 1
@<TRIPOS>MOLECULE
ZINC03815649
   70    75     0     0     0
SMALL
USER_CHARGES

@<TRIPOS>ATOM
      1 C1          1.1191    3.1622   -0.4325 C.ar      1 <0>        -0.1010
      2 C2         -0.0997    3.8155   -0.4024 C.ar      1 <0>        -0.1239
      3 C3         -1.2344    3.1491    0.0221 C.ar      1 <0>        -0.0636
      4 C4         -1.1521    1.8316    0.4284 C.ar      1 <0>        -0.0930
      5 C5          0.0712    1.1743    0.4048 C.ar      1 <0>         0.1351
      6 C6          1.2084    1.8451   -0.0276 C.ar      1 <0>        -0.1537
      7 N1          0.1581   -0.1579    0.8155 N.pl3     1 <0>        -1.0527
      8 S1          1.3868   -0.6372    1.8168 S.o2      1 <0>         2.6929
      9 O1          1.1873   -2.0210    2.0708 O.2       1 <0>        -0.9482
     10 O2          2.5898   -0.1317    1.2542 O.2       1 <0>        -0.9449
     11 C7          1.1611    0.1945    3.3536 C.ar      1 <0>        -0.6909
     12 C8          1.7516    1.4264    3.5655 C.ar      1 <0>         0.0161
     13 C9          1.5713    2.0819    4.7687 C.ar      1 <0>        -0.1740
     14 C10         0.8075    1.4996    5.7660 C.ar      1 <0>         0.1607
     15 C11         0.2209    0.2634    5.5546 C.ar      1 <0>        -0.1748
     16 C12         0.3983   -0.3878    4.3486 C.ar      1 <0>         0.0129
     17 F1          0.6344    2.1374    6.9444 F         1 <0>        -0.1276
     18 C13        -2.5613    3.8631    0.0473 C.3       1 <0>         0.0551
     19 H1         -2.3950    4.9356    0.1481 H         1 <0>         0.0983
     20 C14        -3.3040    3.5883   -1.2349 C.2       1 <0>        -0.2614
     21 C15        -3.5650    4.6102   -2.1295 C.2       1 <0>         0.2329
     22 C16        -4.2598    4.3072   -3.3218 C.2       1 <0>        -0.2720
     23 C17        -4.6601    3.0439   -3.5597 C.2       1 <0>         0.1744
     24 O3         -4.4080    2.0597   -2.6847 O.3       1 <0>        -0.2568
     25 C18        -3.7468    2.2950   -1.5384 C.2       1 <0>         0.5108
     26 O4         -3.5316    1.3797   -0.7609 O.2       1 <0>        -0.4625
     27 C19        -5.4051    2.7306   -4.8317 C.3       1 <0>        -0.0355
     28 C20        -4.6195    1.6972   -5.6415 C.3       1 <0>        -0.0868
     29 C21        -5.3107    1.4717   -6.9877 C.3       1 <0>        -0.1541
     30 C22        -5.8710    0.0761   -7.2692 C.3       1 <0>        -0.1787
     31 C23        -4.6128    0.5561   -7.9955 C.3       1 <0>        -0.1792
     32 C24        -6.7857    2.1674   -4.4886 C.3       1 <0>        -0.0852
     33 C25        -7.6162    3.2445   -3.7879 C.3       1 <0>        -0.1609
     34 C26        -8.0400    2.9804   -2.3416 C.3       1 <0>        -0.1804
     35 C27        -9.0750    2.9140   -3.4664 C.3       1 <0>        -0.1752
     36 O5         -3.1589    5.8753   -1.8699 O.3       1 <0>        -0.4825
     37 C28        -3.3879    3.3615    1.2330 C.3       1 <0>        -0.1475
     38 C29        -3.9822    4.4111    2.1743 C.3       1 <0>        -0.1773
     39 C30        -2.8018    3.5515    2.6335 C.3       1 <0>        -0.1705
     40 H2          2.0027    3.6843   -0.7688 H         1 <0>         0.1297
     41 H3         -0.1659    4.8471   -0.7150 H         1 <0>         0.1206
     42 H4         -2.0380    1.3131    0.7643 H         1 <0>         0.1443
     43 H5          2.1612    1.3371   -0.0468 H         1 <0>         0.1564
     44 H6         -0.5014   -0.8022    0.5141 H         1 <0>         0.4292
     45 H7          2.3508    1.8785    2.7889 H         1 <0>         0.1506
     46 H8          2.0294    3.0462    4.9325 H         1 <0>         0.1475
     47 H9         -0.3754   -0.1916    6.3316 H         1 <0>         0.1479
     48 H10        -0.0595   -1.3520    4.1834 H         1 <0>         0.1512
     49 H11        -4.4726    5.0869   -4.0381 H         1 <0>         0.1596
     50 H12        -5.5201    3.6415   -5.4191 H         1 <0>         0.1115
     51 H13        -3.6061    2.0616   -5.8099 H         1 <0>         0.0738
     52 H14        -4.5809    0.7572   -5.0909 H         1 <0>         0.0771
     53 H15        -5.8631    2.3250   -7.3813 H         1 <0>         0.1079
     54 H16        -5.7472   -0.6814   -6.4953 H         1 <0>         0.0952
     55 H17        -6.7923    0.0110   -7.8480 H         1 <0>         0.0946
     56 H18        -4.7064    0.8068   -9.0522 H         1 <0>         0.0953
     57 H19        -3.6613    0.1144   -7.6994 H         1 <0>         0.0945
     58 H20        -7.2898    1.8583   -5.4042 H         1 <0>         0.0877
     59 H21        -6.6734    1.3079   -3.8277 H         1 <0>         0.0753
     60 H22        -7.3822    4.2726   -4.0643 H         1 <0>         0.1049
     61 H23        -7.7271    2.0393   -1.8894 H         1 <0>         0.0932
     62 H24        -8.0847    3.8348   -1.6663 H         1 <0>         0.0921
     63 H25        -9.8008    3.7247   -3.5310 H         1 <0>         0.0946
     64 H26        -9.4432    1.9292   -3.7542 H         1 <0>         0.0951
     65 H27        -2.2747    6.0808   -2.2032 H         1 <0>         0.4065
     66 H28        -3.9732    2.4603    1.0504 H         1 <0>         0.1169
     67 H29        -3.7843    5.4590    1.9488 H         1 <0>         0.0943
     68 H30        -4.9583    4.2002    2.6112 H         1 <0>         0.0929
     69 H31        -3.0018    2.7755    3.3723 H         1 <0>         0.0923
     70 H32        -1.8272    4.0335    2.7101 H         1 <0>         0.0933
@<TRIPOS>BOND
     1    1    6 ar
     2    1    2 ar
     3    1   40 1
     4    2    3 ar
     5    2   41 1
     6    3    4 ar
     7    3   18 1
     8    4    5 ar
     9    4   42 1
    10    5    6 ar
    11    5    7 1
    12    6   43 1
    13    7    8 1
    14    7   44 1
    15    8    9 2
    16    8   10 2
    17    8   11 1
    18   11   16 ar
    19   11   12 ar
    20   12   13 ar
    21   12   45 1
    22   13   14 ar
    23   13   46 1
    24   14   15 ar
    25   14   17 1
    26   15   16 ar
    27   15   47 1
    28   16   48 1
    29   18   19 1
    30   18   20 1
    31   18   37 1
    32   20   25 1
    33   20   21 2
    34   21   22 1
    35   21   36 1
    36   22   23 2
    37   22   49 1
    38   23   24 1
    39   23   27 1
    40   24   25 1
    41   25   26 2
    42   27   28 1
    43   27   32 1
    44   27   50 1
    45   28   29 1
    46   28   51 1
    47   28   52 1
    48   29   31 1
    49   29   30 1
    50   29   53 1
    51   30   31 1
    52   30   54 1
    53   30   55 1
    54   31   56 1
    55   31   57 1
    56   32   33 1
    57   32   58 1
    58   32   59 1
    59   33   35 1
    60   33   34 1
    61   33   60 1
    62   34   35 1
    63   34   61 1
    64   34   62 1
    65   35   63 1
    66   35   64 1
    67   36   65 1
    68   37   39 1
    69   37   38 1
    70   37   66 1
    71   38   39 1
    72   38   67 1
    73   38   68 1
    74   39   69 1
    75   39   70 1
@<TRIPOS>MOLECULE
ZINC03815650
   69    73     0     0     0
SMALL
USER_CHARGES

@<TRIPOS>ATOM
      1 C1         -5.2710    3.4396   -7.3641 C.3       1 <0>        -0.1558
      2 C2         -4.7075    3.6770   -5.9616 C.3       1 <0>        -0.1210
      3 C3         -5.3457    2.6902   -4.9818 C.3       1 <0>        -0.0365
      4 H1         -6.4313    2.7582   -5.0530 H         1 <0>         0.1103
      5 C4         -4.9001    1.2679   -5.3276 C.3       1 <0>        -0.0802
      6 C5         -5.6232    0.2858   -4.4424 C.ar      1 <0>        -0.0897
      7 C6         -5.1096   -0.0323   -3.1990 C.ar      1 <0>        -0.1120
      8 C7         -5.7754   -0.9295   -2.3851 C.ar      1 <0>        -0.1139
      9 C8         -6.9494   -1.5166   -2.8187 C.ar      1 <0>        -0.1193
     10 C9         -7.4603   -1.2024   -4.0642 C.ar      1 <0>        -0.1171
     11 C10        -6.7972   -0.3012   -4.8760 C.ar      1 <0>        -0.1146
     12 C11        -4.9124    3.0251   -3.5778 C.2       1 <0>         0.1686
     13 C12        -5.8419    3.3418   -2.6567 C.2       1 <0>        -0.2688
     14 C13        -5.4440    3.6574   -1.3384 C.2       1 <0>         0.2359
     15 C14        -4.0967    3.6321   -1.0271 C.2       1 <0>        -0.2701
     16 C15        -3.1776    3.3007   -2.0303 C.2       1 <0>         0.5013
     17 O1         -1.9839    3.2776   -1.7788 O.2       1 <0>        -0.4436
     18 O2         -3.6080    3.0027   -3.2682 O.3       1 <0>        -0.2601
     19 C16        -3.6254    3.9615    0.3659 C.3       1 <0>         0.0520
     20 H2         -3.4712    5.0371    0.4524 H         1 <0>         0.0872
     21 C17        -2.3286    3.2444    0.6402 C.ar      1 <0>        -0.0270
     22 C18        -2.3009    1.8626    0.6915 C.ar      1 <0>        -0.1117
     23 C19        -1.1144    1.2009    0.9486 C.ar      1 <0>        -0.0933
     24 C20         0.0499    1.9181    1.1437 C.ar      1 <0>        -0.1556
     25 C21         0.0267    3.3056    1.0871 C.ar      1 <0>         0.1458
     26 C22        -1.1684    3.9675    0.8343 C.ar      1 <0>        -0.1100
     27 N1          1.2022    4.0339    1.2835 N.pl3     1 <0>        -1.0553
     28 S1          2.6024    3.5637    0.5347 S.o2      1 <0>         2.6901
     29 O3          3.5982    4.5069    0.9063 O.2       1 <0>        -0.9539
     30 O4          2.7444    2.1707    0.7768 O.2       1 <0>        -0.9477
     31 C23         2.3538    3.7507   -1.1996 C.ar      1 <0>        -0.6738
     32 C24         1.8513    2.6993   -1.9431 C.ar      1 <0>        -0.0043
     33 C25         1.6513    2.8477   -3.3029 C.ar      1 <0>        -0.1316
     34 C26         1.9642    4.0439   -3.9210 C.ar      1 <0>        -0.0597
     35 C27         2.4721    5.0935   -3.1784 C.ar      1 <0>        -0.1423
     36 C28         2.6667    4.9469   -1.8177 C.ar      1 <0>        -0.0211
     37 C29        -4.6799    3.5143    1.3801 C.3       1 <0>        -0.1236
     38 C30        -5.4407    4.6055    2.1360 C.3       1 <0>        -0.1732
     39 C31        -4.3869    3.7645    2.8608 C.3       1 <0>        -0.1783
     40 O5         -6.3636    3.9789   -0.3982 O.3       1 <0>        -0.4737
     41 H3         -4.7646    4.0930   -8.0745 H         1 <0>         0.0616
     42 H4         -5.1107    2.3997   -7.6489 H         1 <0>         0.0615
     43 H5         -6.3391    3.6569   -7.3681 H         1 <0>         0.0580
     44 H6         -4.9314    4.6966   -5.6478 H         1 <0>         0.0697
     45 H7         -3.6276    3.5294   -5.9741 H         1 <0>         0.0756
     46 H8         -5.1343    1.0574   -6.3711 H         1 <0>         0.0920
     47 H9         -3.8254    1.1756   -5.1706 H         1 <0>         0.0841
     48 H10        -4.1900    0.4230   -2.8621 H         1 <0>         0.1134
     49 H11        -5.3761   -1.1753   -1.4122 H         1 <0>         0.1205
     50 H12        -7.4673   -2.2210   -2.1846 H         1 <0>         0.1216
     51 H13        -8.3773   -1.6614   -4.4032 H         1 <0>         0.1224
     52 H14        -7.1962   -0.0561   -5.8492 H         1 <0>         0.1224
     53 H15        -6.8880    3.3542   -2.9246 H         1 <0>         0.1567
     54 H16        -3.2089    1.2992    0.5346 H         1 <0>         0.1143
     55 H17        -1.0970    0.1219    0.9924 H         1 <0>         0.1253
     56 H18         0.9773    1.4004    1.3397 H         1 <0>         0.1535
     57 H19        -1.1898    5.0464    0.7893 H         1 <0>         0.1197
     58 H20         1.1984    4.8151    1.8585 H         1 <0>         0.4254
     59 H21         1.6110    1.7632   -1.4610 H         1 <0>         0.1376
     60 H22         1.2542    2.0278   -3.8830 H         1 <0>         0.1312
     61 H23         1.8114    4.1587   -4.9839 H         1 <0>         0.1294
     62 H24         2.7165    6.0281   -3.6613 H         1 <0>         0.1317
     63 H25         3.0635    5.7669   -1.2376 H         1 <0>         0.1376
     64 H26        -5.2260    2.6071    1.1215 H         1 <0>         0.1088
     65 H27        -5.1899    5.6421    1.9107 H         1 <0>         0.0894
     66 H28        -6.4872    4.4161    2.3750 H         1 <0>         0.0954
     67 H29        -4.7405    3.0221    3.5763 H         1 <0>         0.0935
     68 H30        -3.4426    4.2474    3.1124 H         1 <0>         0.0928
     69 H31        -6.5628    4.9239   -0.3498 H         1 <0>         0.4029
@<TRIPOS>BOND
     1    1    2 1
     2    1   41 1
     3    1   42 1
     4    1   43 1
     5    2    3 1
     6    2   44 1
     7    2   45 1
     8    3    4 1
     9    3    5 1
    10    3   12 1
    11    5    6 1
    12    5   46 1
    13    5   47 1
    14    6   11 ar
    15    6    7 ar
    16    7    8 ar
    17    7   48 1
    18    8    9 ar
    19    8   49 1
    20    9   10 ar
    21    9   50 1
    22   10   11 ar
    23   10   51 1
    24   11   52 1
    25   12   18 1
    26   12   13 2
    27   13   14 1
    28   13   53 1
    29   14   15 2
    30   14   40 1
    31   15   16 1
    32   15   19 1
    33   16   17 2
    34   16   18 1
    35   19   20 1
    36   19   21 1
    37   19   37 1
    38   21   26 ar
    39   21   22 ar
    40   22   23 ar
    41   22   54 1
    42   23   24 ar
    43   23   55 1
    44   24   25 ar
    45   24   56 1
    46   25   26 ar
    47   25   27 1
    48   26   57 1
    49   27   28 1
    50   27   58 1
    51   28   29 2
    52   28   30 2
    53   28   31 1
    54   31   36 ar
    55   31   32 ar
    56   32   33 ar
    57   32   59 1
    58   33   34 ar
    59   33   60 1
    60   34   35 ar
    61   34   61 1
    62   35   36 ar
    63   35   62 1
    64   36   63 1
    65   37   39 1
    66   37   38 1
    67   37   64 1
    68   38   39 1
    69   38   65 1
    70   38   66 1
    71   39   67 1
    72   39   68 1
    73   40   69 1
@<TRIPOS>MOLECULE
ZINC03815651
   73    77     0     0     0
SMALL
USER_CHARGES

@<TRIPOS>ATOM
      1 C1         -5.2710    3.4396   -7.3641 C.3       1 <0>        -0.1557
      2 C2         -4.7075    3.6770   -5.9616 C.3       1 <0>        -0.1208
      3 C3         -5.3457    2.6902   -4.9818 C.3       1 <0>        -0.0365
      4 H1         -6.4313    2.7582   -5.0530 H         1 <0>         0.1105
      5 C4         -4.9001    1.2679   -5.3276 C.3       1 <0>        -0.0797
      6 C5         -5.6232    0.2858   -4.4424 C.ar      1 <0>        -0.0900
      7 C6         -5.1096   -0.0323   -3.1990 C.ar      1 <0>        -0.1120
      8 C7         -5.7754   -0.9295   -2.3851 C.ar      1 <0>        -0.1139
      9 C8         -6.9494   -1.5166   -2.8187 C.ar      1 <0>        -0.1191
     10 C9         -7.4603   -1.2024   -4.0642 C.ar      1 <0>        -0.1170
     11 C10        -6.7972   -0.3012   -4.8760 C.ar      1 <0>        -0.1145
     12 C11        -4.9124    3.0251   -3.5778 C.2       1 <0>         0.1677
     13 C12        -5.8419    3.3418   -2.6567 C.2       1 <0>        -0.2681
     14 C13        -5.4440    3.6574   -1.3384 C.2       1 <0>         0.2355
     15 C14        -4.0967    3.6321   -1.0271 C.2       1 <0>        -0.2694
     16 C15        -3.1776    3.3007   -2.0303 C.2       1 <0>         0.5012
     17 O1         -1.9839    3.2776   -1.7788 O.2       1 <0>        -0.4434
     18 O2         -3.6080    3.0027   -3.2682 O.3       1 <0>        -0.2610
     19 C16        -3.6254    3.9615    0.3659 C.3       1 <0>         0.0518
     20 H2         -3.4712    5.0371    0.4524 H         1 <0>         0.0874
     21 C17        -2.3286    3.2444    0.6402 C.ar      1 <0>        -0.0271
     22 C18        -2.3009    1.8626    0.6915 C.ar      1 <0>        -0.1124
     23 C19        -1.1144    1.2009    0.9486 C.ar      1 <0>        -0.0937
     24 C20         0.0499    1.9181    1.1437 C.ar      1 <0>        -0.1563
     25 C21         0.0267    3.3056    1.0871 C.ar      1 <0>         0.1473
     26 C22        -1.1684    3.9675    0.8343 C.ar      1 <0>        -0.1102
     27 N1          1.2022    4.0339    1.2835 N.pl3     1 <0>        -1.0562
     28 S1          2.6024    3.5637    0.5347 S.o2      1 <0>         2.6939
     29 O3          3.5982    4.5069    0.9063 O.2       1 <0>        -0.9548
     30 O4          2.7444    2.1707    0.7768 O.2       1 <0>        -0.9498
     31 C23         2.3538    3.7507   -1.1996 C.ar      1 <0>        -0.7125
     32 C24         1.8511    2.6983   -1.9422 C.ar      1 <0>         0.0371
     33 C25         1.6500    2.8442   -3.3011 C.ar      1 <0>        -0.2202
     34 C26         1.9636    4.0442   -3.9226 C.ar      1 <0>         0.1867
     35 C27         2.4732    5.0968   -3.1763 C.ar      1 <0>        -0.1737
     36 C28         2.6672    4.9477   -1.8166 C.ar      1 <0>         0.0188
     37 O5          1.7714    4.1886   -5.2602 O.3       1 <0>        -0.3110
     38 C29         1.2435    3.0631   -5.9649 C.3       1 <0>         0.0226
     39 C30        -4.6799    3.5143    1.3801 C.3       1 <0>        -0.1235
     40 C31        -5.4407    4.6055    2.1360 C.3       1 <0>        -0.1733
     41 C32        -4.3869    3.7645    2.8608 C.3       1 <0>        -0.1781
     42 O6         -6.3636    3.9789   -0.3982 O.3       1 <0>        -0.4736
     43 H3         -5.1107    2.3997   -7.6489 H         1 <0>         0.0613
     44 H4         -6.3391    3.6569   -7.3681 H         1 <0>         0.0583
     45 H5         -4.7646    4.0930   -8.0745 H         1 <0>         0.0617
     46 H6         -4.9314    4.6966   -5.6478 H         1 <0>         0.0699
     47 H7         -3.6276    3.5294   -5.9741 H         1 <0>         0.0747
     48 H8         -5.1343    1.0574   -6.3711 H         1 <0>         0.0919
     49 H9         -3.8254    1.1756   -5.1706 H         1 <0>         0.0832
     50 H10        -4.1900    0.4230   -2.8621 H         1 <0>         0.1131
     51 H11        -5.3761   -1.1753   -1.4122 H         1 <0>         0.1205
     52 H12        -7.4673   -2.2210   -2.1846 H         1 <0>         0.1217
     53 H13        -8.3773   -1.6614   -4.4032 H         1 <0>         0.1225
     54 H14        -7.1962   -0.0561   -5.8492 H         1 <0>         0.1224
     55 H15        -6.8880    3.3542   -2.9246 H         1 <0>         0.1567
     56 H16        -3.2089    1.2992    0.5346 H         1 <0>         0.1138
     57 H17        -1.0970    0.1219    0.9924 H         1 <0>         0.1248
     58 H18         0.9773    1.4004    1.3397 H         1 <0>         0.1537
     59 H19        -1.1898    5.0464    0.7893 H         1 <0>         0.1199
     60 H20         1.1984    4.8151    1.8585 H         1 <0>         0.4252
     61 H21         1.6113    1.7628   -1.4586 H         1 <0>         0.1405
     62 H22         1.2532    2.0233   -3.8800 H         1 <0>         0.1367
     63 H23         2.7184    6.0319   -3.6578 H         1 <0>         0.1403
     64 H24         3.0635    5.7669   -1.2351 H         1 <0>         0.1453
     65 H25         0.2675    2.8031   -5.5552 H         1 <0>         0.0613
     66 H26         1.1397    3.3119   -7.0211 H         1 <0>         0.1045
     67 H27         1.9207    2.2160   -5.8561 H         1 <0>         0.0600
     68 H28        -5.2260    2.6071    1.1215 H         1 <0>         0.1086
     69 H29        -5.1899    5.6421    1.9107 H         1 <0>         0.0894
     70 H30        -6.4872    4.4161    2.3750 H         1 <0>         0.0953
     71 H31        -4.7405    3.0222    3.5763 H         1 <0>         0.0934
     72 H32        -3.4426    4.2474    3.1124 H         1 <0>         0.0929
     73 H33        -6.5628    4.9239   -0.3498 H         1 <0>         0.4030
@<TRIPOS>BOND
     1    1    2 1
     2    1   43 1
     3    1   44 1
     4    1   45 1
     5    2    3 1
     6    2   46 1
     7    2   47 1
     8    3    4 1
     9    3    5 1
    10    3   12 1
    11    5    6 1
    12    5   48 1
    13    5   49 1
    14    6   11 ar
    15    6    7 ar
    16    7    8 ar
    17    7   50 1
    18    8    9 ar
    19    8   51 1
    20    9   10 ar
    21    9   52 1
    22   10   11 ar
    23   10   53 1
    24   11   54 1
    25   12   18 1
    26   12   13 2
    27   13   14 1
    28   13   55 1
    29   14   15 2
    30   14   42 1
    31   15   16 1
    32   15   19 1
    33   16   17 2
    34   16   18 1
    35   19   20 1
    36   19   21 1
    37   19   39 1
    38   21   26 ar
    39   21   22 ar
    40   22   23 ar
    41   22   56 1
    42   23   24 ar
    43   23   57 1
    44   24   25 ar
    45   24   58 1
    46   25   26 ar
    47   25   27 1
    48   26   59 1
    49   27   28 1
    50   27   60 1
    51   28   29 2
    52   28   30 2
    53   28   31 1
    54   31   36 ar
    55   31   32 ar
    56   32   33 ar
    57   32   61 1
    58   33   34 ar
    59   33   62 1
    60   34   35 ar
    61   34   37 1
    62   35   36 ar
    63   35   63 1
    64   36   64 1
    65   37   38 1
    66   38   65 1
    67   38   66 1
    68   38   67 1
    69   39   41 1
    70   39   40 1
    71   39   68 1
    72   40   41 1
    73   40   69 1
    74   40   70 1
    75   41   71 1
    76   41   72 1
    77   42   73 1
@<TRIPOS>MOLECULE
ZINC03815652
   70    75     0     0     0
SMALL
USER_CHARGES

@<TRIPOS>ATOM
      1 C1          2.4872    0.1592    4.4143 C.ar      1 <0>        -0.0599
      2 C2          1.6773   -0.9557    4.3051 C.ar      1 <0>        -0.1399
      3 C3          1.5206   -1.5789    3.0812 C.ar      1 <0>        -0.0185
      4 C4          2.1740   -1.0874    1.9666 C.ar      1 <0>        -0.6746
      5 C5          2.9884    0.0241    2.0769 C.ar      1 <0>        -0.0144
      6 C6          3.1407    0.6507    3.2997 C.ar      1 <0>        -0.1393
      7 S1          1.9746   -1.8821    0.4067 S.o2      1 <0>         2.6894
      8 O1          1.5990   -3.2250    0.6801 O.2       1 <0>        -0.9512
      9 O2          3.1213   -1.5540   -0.3658 O.2       1 <0>        -0.9479
     10 N1          0.6800   -1.1718   -0.3427 N.pl3     1 <0>        -1.0536
     11 C7          0.7409    0.1725   -0.7170 C.ar      1 <0>         0.1365
     12 C8          1.8749    0.6689   -1.3478 C.ar      1 <0>        -0.1531
     13 C9          1.9320    1.9985   -1.7160 C.ar      1 <0>        -0.1016
     14 C10         0.8643    2.8371   -1.4525 C.ar      1 <0>        -0.1244
     15 C11        -0.2680    2.3451   -0.8300 C.ar      1 <0>        -0.0645
     16 C12        -0.3318    1.0162   -0.4589 C.ar      1 <0>        -0.0903
     17 C13        -1.4314    3.2613   -0.5504 C.3       1 <0>         0.0556
     18 H1         -1.0724    4.2861   -0.4560 H         1 <0>         0.0980
     19 C14        -2.4203    3.1779   -1.6846 C.2       1 <0>        -0.2610
     20 C15        -2.6832    4.2845   -2.4714 C.2       1 <0>         0.2323
     21 C16        -3.6136    4.1605   -3.5274 C.2       1 <0>        -0.2721
     22 C17        -4.2291    2.9824   -3.7412 C.2       1 <0>         0.1741
     23 O3         -3.9729    1.9157   -2.9704 O.3       1 <0>        -0.2571
     24 C18        -3.0932    1.9803   -1.9563 C.2       1 <0>         0.5104
     25 O4         -2.8800    0.9934   -1.2714 O.2       1 <0>        -0.4617
     26 C19        -5.2240    2.8606   -4.8666 C.3       1 <0>        -0.0354
     27 C20        -4.7523    1.7881   -5.8505 C.3       1 <0>        -0.0869
     28 C21        -5.6921    1.7543   -7.0573 C.3       1 <0>        -0.1540
     29 C22        -6.4863    0.4690   -7.2986 C.3       1 <0>        -0.1788
     30 C23        -5.3182    0.8306   -8.2183 C.3       1 <0>        -0.1793
     31 C24        -6.5897    2.4675   -4.2997 C.3       1 <0>        -0.0852
     32 C25        -7.1195    3.5981   -3.4155 C.3       1 <0>        -0.1608
     33 C26        -7.3254    3.2958   -1.9298 C.3       1 <0>        -0.1804
     34 C27        -8.5350    3.4515   -2.8537 C.3       1 <0>        -0.1753
     35 O5         -2.0578    5.4622   -2.2372 O.3       1 <0>        -0.4825
     36 C28        -2.1127    2.8375    0.7524 C.3       1 <0>        -0.1467
     37 C29        -2.3502    3.9180    1.8093 C.3       1 <0>        -0.1774
     38 C30        -1.2696    2.8563    2.0290 C.3       1 <0>        -0.1695
     39 H2          2.6092    0.6466    5.3704 H         1 <0>         0.1317
     40 H3          1.1668   -1.3396    5.1759 H         1 <0>         0.1338
     41 H4          0.8878   -2.4499    2.9959 H         1 <0>         0.1397
     42 H5          3.5024    0.4054    1.2070 H         1 <0>         0.1395
     43 H6          3.7732    1.5219    3.3849 H         1 <0>         0.1334
     44 H7         -0.1207   -1.6892   -0.5218 H         1 <0>         0.4284
     45 H8          2.7109    0.0156   -1.5496 H         1 <0>         0.1558
     46 H9          2.8133    2.3850   -2.2064 H         1 <0>         0.1291
     47 H10         0.9135    3.8778   -1.7372 H         1 <0>         0.1200
     48 H11        -1.2146    0.6336    0.0316 H         1 <0>         0.1430
     49 H12        -3.8333    5.0091   -4.1584 H         1 <0>         0.1595
     50 H13        -5.3068    3.8167   -5.3835 H         1 <0>         0.1114
     51 H14        -3.7409    2.0205   -6.1839 H         1 <0>         0.0737
     52 H15        -4.7581    0.8156   -5.3582 H         1 <0>         0.0771
     53 H16        -6.1770    2.6993   -7.3022 H         1 <0>         0.1079
     54 H17        -6.3392   -0.3525   -6.5975 H         1 <0>         0.0952
     55 H18        -7.4940    0.5683   -7.7021 H         1 <0>         0.0946
     56 H19        -5.5575    1.1677   -9.2268 H         1 <0>         0.0953
     57 H20        -4.4027    0.2469   -8.1222 H         1 <0>         0.0944
     58 H21        -7.2860    2.2905   -5.1193 H         1 <0>         0.0876
     59 H22        -6.4887    1.5589   -3.7061 H         1 <0>         0.0753
     60 H23        -6.7859    4.6005   -3.6839 H         1 <0>         0.1049
     61 H24        -7.0834    2.2914   -1.5824 H         1 <0>         0.0932
     62 H25        -7.1272    4.0993   -1.2205 H         1 <0>         0.0921
     63 H26        -9.1326    4.3574   -2.7521 H         1 <0>         0.0945
     64 H27        -9.0889    2.5495   -3.1140 H         1 <0>         0.0951
     65 H28        -1.2258    5.5682   -2.7185 H         1 <0>         0.4064
     66 H29        -2.8637    2.0533    0.6567 H         1 <0>         0.1148
     67 H30        -2.0212    4.9307    1.5765 H         1 <0>         0.0943
     68 H31        -3.2573    3.8444    2.4092 H         1 <0>         0.0926
     69 H32        -1.4662    2.0847    2.7734 H         1 <0>         0.0926
     70 H33        -0.2295    3.1702    1.9407 H         1 <0>         0.0936
@<TRIPOS>BOND
     1    1    6 ar
     2    1    2 ar
     3    1   39 1
     4    2    3 ar
     5    2   40 1
     6    3    4 ar
     7    3   41 1
     8    4    5 ar
     9    4    7 1
    10    5    6 ar
    11    5   42 1
    12    6   43 1
    13    7    8 2
    14    7    9 2
    15    7   10 1
    16   10   11 1
    17   10   44 1
    18   11   16 ar
    19   11   12 ar
    20   12   13 ar
    21   12   45 1
    22   13   14 ar
    23   13   46 1
    24   14   15 ar
    25   14   47 1
    26   15   16 ar
    27   15   17 1
    28   16   48 1
    29   17   18 1
    30   17   19 1
    31   17   36 1
    32   19   24 1
    33   19   20 2
    34   20   21 1
    35   20   35 1
    36   21   22 2
    37   21   49 1
    38   22   23 1
    39   22   26 1
    40   23   24 1
    41   24   25 2
    42   26   27 1
    43   26   31 1
    44   26   50 1
    45   27   28 1
    46   27   51 1
    47   27   52 1
    48   28   30 1
    49   28   29 1
    50   28   53 1
    51   29   30 1
    52   29   54 1
    53   29   55 1
    54   30   56 1
    55   30   57 1
    56   31   32 1
    57   31   58 1
    58   31   59 1
    59   32   34 1
    60   32   33 1
    61   32   60 1
    62   33   34 1
    63   33   61 1
    64   33   62 1
    65   34   63 1
    66   34   64 1
    67   35   65 1
    68   36   38 1
    69   36   37 1
    70   36   66 1
    71   37   38 1
    72   37   67 1
    73   37   68 1
    74   38   69 1
    75   38   70 1
@<TRIPOS>MOLECULE
ZINC03815653
   68    71     0     0     0
SMALL
USER_CHARGES

@<TRIPOS>ATOM
      1 C1         15.5459    5.3946   -0.2953 C.3       1 <0>        -0.1451
      2 C2         14.9250    4.0685   -0.7390 C.3       1 <0>        -0.1163
      3 C3         13.3997    4.1785   -0.6921 C.3       1 <0>        -0.6240
      4 S1         12.6636    2.6062   -1.2182 S.o2      1 <0>         2.6034
      5 O1         12.9344    1.5937   -0.2587 O.2       1 <0>        -0.9507
      6 O2         12.9194    2.3836   -2.5982 O.2       1 <0>        -0.9475
      7 N1         11.0283    2.8498   -1.1255 N.pl3     1 <0>        -1.0563
      8 C4         10.4123    3.7817   -1.9640 C.ar      1 <0>         0.1326
      9 C5         10.7349    3.8231   -3.3147 C.ar      1 <0>        -0.1526
     10 C6         10.1237    4.7453   -4.1409 C.ar      1 <0>        -0.1014
     11 C7          9.1914    5.6272   -3.6252 C.ar      1 <0>        -0.1247
     12 C8          8.8681    5.5888   -2.2815 C.ar      1 <0>        -0.0642
     13 C9          9.4795    4.6723   -1.4484 C.ar      1 <0>        -0.0950
     14 C10         7.8520    6.5520   -1.7240 C.3       1 <0>         0.0552
     15 H1          7.8511    7.4646   -2.3201 H         1 <0>         0.0986
     16 C11         6.4841    5.9212   -1.7692 C.2       1 <0>        -0.2614
     17 C12         5.4953    6.4430   -2.5833 C.2       1 <0>         0.2338
     18 C13         4.2290    5.8167   -2.5994 C.2       1 <0>        -0.2669
     19 C14         4.0057    4.7403   -1.8221 C.2       1 <0>         0.1703
     20 O3          4.9696    4.2404   -1.0355 O.3       1 <0>        -0.2580
     21 C15         6.1924    4.7962   -0.9880 C.2       1 <0>         0.5099
     22 O4          7.0498    4.3199   -0.2625 O.2       1 <0>        -0.4617
     23 C16         2.6502    4.0820   -1.8411 C.3       1 <0>        -0.0364
     24 H2          1.9964    4.6163   -2.5305 H         1 <0>         0.1112
     25 C17         2.7951    2.6291   -2.2982 C.3       1 <0>        -0.1220
     26 C18         1.4087    1.9964   -2.4340 C.3       1 <0>        -0.1558
     27 C19         2.0466    4.1167   -0.4356 C.3       1 <0>        -0.0812
     28 C20         1.7759    5.5455   -0.0403 C.ar      1 <0>        -0.0898
     29 C21         0.6015    6.1604   -0.4323 C.ar      1 <0>        -0.1153
     30 C22         0.3532    7.4710   -0.0696 C.ar      1 <0>        -0.1169
     31 C23         1.2816    8.1684    0.6805 C.ar      1 <0>        -0.1197
     32 C24         2.4535    7.5518    1.0770 C.ar      1 <0>        -0.1143
     33 C25         2.7017    6.2410    0.7147 C.ar      1 <0>        -0.1135
     34 O5          5.7377    7.5296   -3.3537 O.3       1 <0>        -0.4820
     35 C26         8.2104    6.8895   -0.2753 C.3       1 <0>        -0.1482
     36 C27         8.2887    8.3689    0.1067 C.3       1 <0>        -0.1768
     37 C28         9.5700    7.5420   -0.0176 C.3       1 <0>        -0.1722
     38 H3         15.2183    6.1909   -0.9637 H         1 <0>         0.0595
     39 H4         15.2291    5.6214    0.7227 H         1 <0>         0.0594
     40 H5         16.6325    5.3163   -0.3287 H         1 <0>         0.0642
     41 H6         15.2526    3.2723   -0.0706 H         1 <0>         0.0794
     42 H7         15.2418    3.8417   -1.7570 H         1 <0>         0.0801
     43 H8         13.0721    4.9747   -1.3605 H         1 <0>         0.1343
     44 H9         13.0829    4.4053    0.3259 H         1 <0>         0.1349
     45 H10        10.4981    2.3453   -0.4888 H         1 <0>         0.4275
     46 H11        11.4631    3.1350   -3.7179 H         1 <0>         0.1578
     47 H12        10.3743    4.7783   -5.1909 H         1 <0>         0.1291
     48 H13         8.7152    6.3478   -4.2736 H         1 <0>         0.1201
     49 H14         9.2295    4.6455   -0.3981 H         1 <0>         0.1423
     50 H15         3.4416    6.2025   -3.2299 H         1 <0>         0.1586
     51 H16         3.3035    2.6004   -3.2620 H         1 <0>         0.0706
     52 H17         3.3777    2.0735   -1.5634 H         1 <0>         0.0762
     53 H18         1.5137    0.9461   -2.7058 H         1 <0>         0.0621
     54 H19         0.8790    2.0749   -1.4846 H         1 <0>         0.0617
     55 H20         0.8457    2.5176   -3.2083 H         1 <0>         0.0581
     56 H21         2.7461    3.6704    0.2713 H         1 <0>         0.0840
     57 H22         1.1130    3.5542   -0.4272 H         1 <0>         0.0939
     58 H23        -0.1218    5.6170   -1.0221 H         1 <0>         0.1226
     59 H24        -0.5642    7.9516   -0.3762 H         1 <0>         0.1226
     60 H25         1.0895    9.1938    0.9601 H         1 <0>         0.1216
     61 H26         3.1770    8.0953    1.6665 H         1 <0>         0.1208
     62 H27         3.6190    5.7605    1.0213 H         1 <0>         0.1153
     63 H28         6.0728    7.3192   -4.2361 H         1 <0>         0.4063
     64 H29         7.8351    6.1945    0.4759 H         1 <0>         0.1167
     65 H30         8.0850    9.1018   -0.6739 H         1 <0>         0.0944
     66 H31         7.9649    8.6476    1.1095 H         1 <0>         0.0930
     67 H32        10.0891    7.2767    0.9034 H         1 <0>         0.0936
     68 H33        10.2094    7.7306   -0.8800 H         1 <0>         0.0940
@<TRIPOS>BOND
     1    1    2 1
     2    1   38 1
     3    1   39 1
     4    1   40 1
     5    2    3 1
     6    2   41 1
     7    2   42 1
     8    3    4 1
     9    3   43 1
    10    3   44 1
    11    4    5 2
    12    4    6 2
    13    4    7 1
    14    7    8 1
    15    7   45 1
    16    8   13 ar
    17    8    9 ar
    18    9   10 ar
    19    9   46 1
    20   10   11 ar
    21   10   47 1
    22   11   12 ar
    23   11   48 1
    24   12   13 ar
    25   12   14 1
    26   13   49 1
    27   14   15 1
    28   14   16 1
    29   14   35 1
    30   16   21 1
    31   16   17 2
    32   17   18 1
    33   17   34 1
    34   18   19 2
    35   18   50 1
    36   19   20 1
    37   19   23 1
    38   20   21 1
    39   21   22 2
    40   23   24 1
    41   23   25 1
    42   23   27 1
    43   25   26 1
    44   25   51 1
    45   25   52 1
    46   26   53 1
    47   26   54 1
    48   26   55 1
    49   27   28 1
    50   27   56 1
    51   27   57 1
    52   28   33 ar
    53   28   29 ar
    54   29   30 ar
    55   29   58 1
    56   30   31 ar
    57   30   59 1
    58   31   32 ar
    59   31   60 1
    60   32   33 ar
    61   32   61 1
    62   33   62 1
    63   34   63 1
    64   35   37 1
    65   35   36 1
    66   35   64 1
    67   36   37 1
    68   36   65 1
    69   36   66 1
    70   37   67 1
    71   37   68 1
@<TRIPOS>MOLECULE
ZINC03815654
   63    67     0     0     0
SMALL
USER_CHARGES

@<TRIPOS>ATOM
      1 C1          0.5191   -6.5801   -3.1353 C.ar      1 <0>        -0.0596
      2 C2         -0.7634   -6.0889   -2.9774 C.ar      1 <0>        -0.1384
      3 C3         -1.1715   -4.9792   -3.6936 C.ar      1 <0>        -0.0143
      4 C4         -0.2974   -4.3610   -4.5679 C.ar      1 <0>        -0.6748
      5 C5          0.9833   -4.8556   -4.7300 C.ar      1 <0>        -0.0194
      6 C6          1.3932   -5.9619   -4.0096 C.ar      1 <0>        -0.1405
      7 S1         -0.8177   -2.9468   -5.4811 S.o2      1 <0>         2.6895
      8 O1         -2.2385   -2.9475   -5.4561 O.2       1 <0>        -0.9466
      9 O2         -0.0772   -2.9514   -6.6939 O.2       1 <0>        -0.9515
     10 N1         -0.3301   -1.6102   -4.6339 N.pl3     1 <0>        -1.0549
     11 C7         -0.8228   -1.3808   -3.3472 C.ar      1 <0>         0.1362
     12 C8         -2.1773   -1.5389   -3.0819 C.ar      1 <0>        -0.1531
     13 C9         -2.6610   -1.3118   -1.8087 C.ar      1 <0>        -0.0996
     14 C10        -1.7978   -0.9327   -0.7967 C.ar      1 <0>        -0.0893
     15 C11        -0.4501   -0.7689   -1.0586 C.ar      1 <0>        -0.0624
     16 C12         0.0404   -0.9945   -2.3300 C.ar      1 <0>        -0.1269
     17 C13         0.4857   -0.3497    0.0457 C.3       1 <0>         0.0559
     18 H1          1.4902   -0.7129   -0.1718 H         1 <0>         0.0965
     19 C14         0.5055    1.1540    0.1437 C.2       1 <0>        -0.2590
     20 C15         1.6567    1.8632   -0.1539 C.2       1 <0>         0.2385
     21 C16         1.6266    3.2672   -0.0470 C.2       1 <0>        -0.2290
     22 C17         0.4925    3.8906    0.3427 C.2       1 <0>         0.1540
     23 O3         -0.6169    3.1989    0.6231 O.3       1 <0>        -0.2562
     24 C18        -0.6420    1.8569    0.5317 C.2       1 <0>         0.5077
     25 O4         -1.6675    1.2494    0.7923 O.2       1 <0>        -0.4591
     26 C19         0.5358    5.3917    0.4508 C.3       1 <0>        -0.0757
     27 C20         0.3004    6.0692   -0.8613 C.3       1 <0>        -0.1204
     28 C21         1.4556    6.1449   -1.8384 C.3       1 <0>        -0.1211
     29 C22         1.6966    4.7732   -2.4939 C.3       1 <0>        -0.1267
     30 C23         2.9949    4.1792   -1.8865 C.3       1 <0>        -0.1148
     31 C24         2.8363    4.1041   -0.3680 C.3       1 <0>        -0.0726
     32 O5          2.7854    1.2220   -0.5384 O.3       1 <0>        -0.4784
     33 C25         0.0059   -0.9410    1.3728 C.3       1 <0>        -0.1473
     34 C26         1.0267   -1.7101    2.2138 C.3       1 <0>        -0.1785
     35 C27        -0.0822   -2.4650    1.4764 C.3       1 <0>        -0.1695
     36 H2          0.8381   -7.4467   -2.5752 H         1 <0>         0.1323
     37 H3         -1.4464   -6.5719   -2.2943 H         1 <0>         0.1346
     38 H4         -2.1735   -4.5954   -3.5702 H         1 <0>         0.1416
     39 H5          1.6648   -4.3752   -5.4164 H         1 <0>         0.1380
     40 H6          2.3953   -6.3454   -4.1327 H         1 <0>         0.1340
     41 H7          0.2977   -0.9865   -5.0311 H         1 <0>         0.4254
     42 H8         -2.8512   -1.8395   -3.8706 H         1 <0>         0.1546
     43 H9         -3.7139   -1.4345   -1.6018 H         1 <0>         0.1298
     44 H10        -2.1779   -0.7603    0.1993 H         1 <0>         0.1404
     45 H11         1.0940   -0.8710   -2.5328 H         1 <0>         0.1218
     46 H12         1.5130    5.6896    0.8308 H         1 <0>         0.1091
     47 H13        -0.2296    5.7149    1.1565 H         1 <0>         0.0950
     48 H14        -0.0276    7.0880   -0.6550 H         1 <0>         0.0767
     49 H15        -0.5216    5.5538   -1.3579 H         1 <0>         0.0643
     50 H16         2.3563    6.4542   -1.3082 H         1 <0>         0.0701
     51 H17         1.2263    6.8784   -2.6113 H         1 <0>         0.0704
     52 H18         1.8147    4.8943   -3.5707 H         1 <0>         0.0661
     53 H19         0.8555    4.1118   -2.2861 H         1 <0>         0.0611
     54 H20         3.8410    4.8200   -2.1344 H         1 <0>         0.0733
     55 H21         3.1641    3.1793   -2.2862 H         1 <0>         0.0584
     56 H22         2.7036    5.1080    0.0355 H         1 <0>         0.0883
     57 H23         3.7233    3.6480    0.0718 H         1 <0>         0.0812
     58 H24         2.8590    1.0942   -1.4940 H         1 <0>         0.4028
     59 H25        -0.7453   -0.3563    1.9037 H         1 <0>         0.1175
     60 H26         2.0402   -1.7948    1.8216 H         1 <0>         0.0932
     61 H27         0.9470   -1.6316    3.2980 H         1 <0>         0.0933
     62 H28        -0.8910   -2.8828    2.0758 H         1 <0>         0.0948
     63 H29         0.2014   -3.0463    0.5990 H         1 <0>         0.0929
@<TRIPOS>BOND
     1    1    6 ar
     2    1    2 ar
     3    1   36 1
     4    2    3 ar
     5    2   37 1
     6    3    4 ar
     7    3   38 1
     8    4    5 ar
     9    4    7 1
    10    5    6 ar
    11    5   39 1
    12    6   40 1
    13    7    8 2
    14    7    9 2
    15    7   10 1
    16   10   11 1
    17   10   41 1
    18   11   16 ar
    19   11   12 ar
    20   12   13 ar
    21   12   42 1
    22   13   14 ar
    23   13   43 1
    24   14   15 ar
    25   14   44 1
    26   15   16 ar
    27   15   17 1
    28   16   45 1
    29   17   18 1
    30   17   19 1
    31   17   33 1
    32   19   24 1
    33   19   20 2
    34   20   21 1
    35   20   32 1
    36   21   31 1
    37   21   22 2
    38   22   23 1
    39   22   26 1
    40   23   24 1
    41   24   25 2
    42   26   27 1
    43   26   46 1
    44   26   47 1
    45   27   28 1
    46   27   48 1
    47   27   49 1
    48   28   29 1
    49   28   50 1
    50   28   51 1
    51   29   30 1
    52   29   52 1
    53   29   53 1
    54   30   31 1
    55   30   54 1
    56   30   55 1
    57   31   56 1
    58   31   57 1
    59   32   58 1
    60   33   35 1
    61   33   34 1
    62   33   59 1
    63   34   35 1
    64   34   60 1
    65   34   61 1
    66   35   62 1
    67   35   63 1
@<TRIPOS>MOLECULE
ZINC03815655
   75    78     0     0     0
SMALL
USER_CHARGES

@<TRIPOS>ATOM
      1 C1         -6.1517   15.2960    2.3810 C.3       1 <0>        -0.1536
      2 C2         -5.6164   13.8701    2.2353 C.3       1 <0>        -0.1329
      3 C3         -4.8821   13.7350    0.8998 C.3       1 <0>        -0.1068
      4 C4         -4.3469   12.3091    0.7541 C.3       1 <0>         0.1201
      5 C5         -3.4940   11.9523    1.9767 C.3       1 <0>        -0.1672
      6 C6         -3.1302   10.4896    1.9132 C.2       1 <0>         0.3311
      7 C7         -3.9324    9.6256    1.2660 C.3       1 <0>        -0.2309
      8 C8         -5.1212   10.0782    0.6462 C.2       1 <0>         0.5229
      9 O1         -5.8545    9.2854    0.0856 O.2       1 <0>        -0.4270
     10 O2         -5.4427   11.3898    0.6770 O.3       1 <0>        -0.3233
     11 C9         -3.5659    8.1651    1.2058 C.3       1 <0>        -0.0035
     12 H1         -2.4997    8.0497    1.4004 H         1 <0>         0.1103
     13 C10        -3.8933    7.6140   -0.1834 C.3       1 <0>        -0.1438
     14 C11        -3.2429    8.4983   -1.2492 C.3       1 <0>        -0.1714
     15 C12        -4.3512    7.4069    2.2449 C.ar      1 <0>        -0.0722
     16 C13        -5.7138    7.2300    2.0878 C.ar      1 <0>        -0.1138
     17 C14        -6.4381    6.5354    3.0389 C.ar      1 <0>        -0.0956
     18 C15        -5.8026    6.0161    4.1499 C.ar      1 <0>        -0.1320
     19 C16        -4.4343    6.1920    4.3108 C.ar      1 <0>         0.1297
     20 C17        -3.7103    6.8946    3.3555 C.ar      1 <0>        -0.1141
     21 N1         -3.7885    5.6687    5.4332 N.pl3     1 <0>        -1.0468
     22 S1         -4.1185    4.1250    5.9337 S.o2      1 <0>         2.6964
     23 O3         -5.5338    4.0070    5.9802 O.2       1 <0>        -0.9155
     24 O4         -3.2960    3.8807    7.0665 O.2       1 <0>        -0.9361
     25 C18        -3.5638    3.0360    4.6644 C.ar      1 <0>        -0.4190
     26 C19        -2.2691    2.5529    4.6964 C.ar      1 <0>        -0.0836
     27 C20        -1.8425    1.6971    3.6927 C.ar      1 <0>        -0.0355
     28 C21        -2.7381    1.3577    2.6899 C.ar      1 <0>        -0.1865
     29 C22        -4.0152    1.8845    2.7209 C.ar      1 <0>         0.1368
     30 N2         -4.3884    2.6917    3.6948 N.ar      1 <0>        -0.3765
     31 C23        -2.3220    0.4308    1.5768 C.3       1 <0>         0.5137
     32 F1         -2.5970   -0.8911    1.9434 F         1 <0>        -0.1671
     33 F2         -0.9507    0.5732    1.3395 F         1 <0>        -0.1701
     34 F3         -3.0320    0.7497    0.4144 F         1 <0>        -0.1678
     35 O5         -1.9995   10.0498    2.5006 O.2       1 <0>        -0.5130
     36 C24        -3.4996   12.2059   -0.5156 C.3       1 <0>        -0.1508
     37 C25        -4.3878   12.4298   -1.7411 C.3       1 <0>        -0.0808
     38 C26        -3.5550   12.3190   -2.9922 C.ar      1 <0>        -0.0870
     39 C27        -2.9486   13.4432   -3.5207 C.ar      1 <0>        -0.1155
     40 C28        -2.1811   13.3408   -4.6658 C.ar      1 <0>        -0.1169
     41 C29        -2.0273   12.1158   -5.2875 C.ar      1 <0>        -0.1213
     42 C30        -2.6380   10.9925   -4.7620 C.ar      1 <0>        -0.1163
     43 C31        -3.4020   11.0941   -3.6144 C.ar      1 <0>        -0.1197
     44 H2         -5.3208   16.0009    2.3502 H         1 <0>         0.0552
     45 H3         -6.8407   15.5107    1.5641 H         1 <0>         0.0570
     46 H4         -6.6748   15.3923    3.3324 H         1 <0>         0.0580
     47 H5         -6.4473   13.1653    2.2660 H         1 <0>         0.0747
     48 H6         -4.9274   13.6554    3.0521 H         1 <0>         0.0660
     49 H7         -4.0513   14.4399    0.8691 H         1 <0>         0.0935
     50 H8         -5.5712   13.9497    0.0830 H         1 <0>         0.0903
     51 H9         -2.6628   12.5083    1.9770 H         1 <0>         0.1118
     52 H10        -4.0619   12.1453    2.8868 H         1 <0>         0.1389
     53 H11        -3.5094    6.5976   -0.2709 H         1 <0>         0.0837
     54 H12        -4.9739    7.6078   -0.3265 H         1 <0>         0.1089
     55 H13        -2.1583    8.4344   -1.1619 H         1 <0>         0.0603
     56 H14        -3.5484    8.1588   -2.2389 H         1 <0>         0.0762
     57 H15        -3.5587    9.5317   -1.1061 H         1 <0>         0.0435
     58 H16        -6.2133    7.6350    1.2200 H         1 <0>         0.1444
     59 H17        -7.5021    6.3990    2.9132 H         1 <0>         0.1329
     60 H18        -6.3690    5.4743    4.8929 H         1 <0>         0.1583
     61 H19        -2.6470    7.0369    3.4798 H         1 <0>         0.1286
     62 H20        -3.1467    6.2094    5.9196 H         1 <0>         0.4301
     63 H21        -1.5985    2.8383    5.4934 H         1 <0>         0.1687
     64 H22        -0.8365    1.3043    3.6916 H         1 <0>         0.1632
     65 H23        -4.7171    1.6289    1.9410 H         1 <0>         0.1827
     66 H24        -3.1769    9.6733    0.6126 H         1 <0>         0.1877
     67 H25        -2.7157   12.9629   -0.4919 H         1 <0>         0.0998
     68 H26        -3.0470   11.2159   -0.5709 H         1 <0>         0.0605
     69 H27        -5.1756   11.6768   -1.7613 H         1 <0>         0.0818
     70 H28        -4.8352   13.4224   -1.6892 H         1 <0>         0.0861
     71 H29        -3.0718   14.4010   -3.0370 H         1 <0>         0.1224
     72 H30        -1.7037   14.2184   -5.0762 H         1 <0>         0.1229
     73 H31        -1.4299   12.0362   -6.1837 H         1 <0>         0.1221
     74 H32        -2.5179   10.0354   -5.2477 H         1 <0>         0.1222
     75 H33        -3.8791   10.2165   -3.2039 H         1 <0>         0.1204
@<TRIPOS>BOND
     1    1    2 1
     2    1   44 1
     3    1   45 1
     4    1   46 1
     5    2    3 1
     6    2   47 1
     7    2   48 1
     8    3    4 1
     9    3   49 1
    10    3   50 1
    11    4   10 1
    12    4    5 1
    13    4   36 1
    14    5   52 1
    15    5    6 1
    16    5   51 1
    17    6    7 1
    18    6   35 2
    19    7    8 1
    20    7   11 1
    21    7   66 1
    22    8    9 2
    23    8   10 1
    24   11   12 1
    25   11   13 1
    26   11   15 1
    27   13   14 1
    28   13   53 1
    29   13   54 1
    30   14   55 1
    31   14   56 1
    32   14   57 1
    33   15   20 ar
    34   15   16 ar
    35   16   17 ar
    36   16   58 1
    37   17   18 ar
    38   17   59 1
    39   18   19 ar
    40   18   60 1
    41   19   20 ar
    42   19   21 1
    43   20   61 1
    44   21   22 1
    45   21   62 1
    46   22   23 2
    47   22   24 2
    48   22   25 1
    49   25   30 ar
    50   25   26 ar
    51   26   27 ar
    52   26   63 1
    53   27   28 ar
    54   27   64 1
    55   28   29 ar
    56   28   31 1
    57   29   30 ar
    58   29   65 1
    59   31   32 1
    60   31   33 1
    61   31   34 1
    62   36   37 1
    63   36   67 1
    64   36   68 1
    65   37   38 1
    66   37   69 1
    67   37   70 1
    68   38   43 ar
    69   38   39 ar
    70   39   40 ar
    71   39   71 1
    72   40   41 ar
    73   40   72 1
    74   41   42 ar
    75   41   73 1
    76   42   43 ar
    77   42   74 1
    78   43   75 1
@<TRIPOS>MOLECULE
ZINC03831996
   76    80     0     0     0
SMALL
USER_CHARGES

@<TRIPOS>ATOM
      1 C1          2.5441    5.0396    2.4110 C.ar      1 <0>        -0.1232
      2 C2          2.3462    3.9311    1.6091 C.ar      1 <0>        -0.1162
      3 C3          1.1253    3.7340    0.9914 C.ar      1 <0>        -0.1155
      4 C4          0.1062    4.6515    1.1663 C.ar      1 <0>        -0.0610
      5 C5          0.3058    5.7627    1.9639 C.ar      1 <0>        -0.0990
      6 C6          1.5248    5.9568    2.5862 C.ar      1 <0>        -0.1162
      7 C7         -1.2227    4.4399    0.4878 C.3       1 <0>        -0.1112
      8 C8         -1.1265    4.8837   -0.9683 C.3       1 <0>         0.1657
      9 H1         -0.2319    4.4098   -1.4072 H         1 <0>         0.0911
     10 C9         -0.9632    6.3988   -1.0855 C.3       1 <0>         0.0824
     11 H2         -1.1607    6.7020   -2.1215 H         1 <0>         0.0725
     12 C10        -1.9044    7.1451   -0.1650 C.3       1 <0>         0.0657
     13 H3         -1.5974    7.0009    0.8728 H         1 <0>         0.0751
     14 C11        -3.3604    6.7612   -0.3064 C.3       1 <0>         0.1661
     15 H4         -3.5917    5.9411    0.3764 H         1 <0>         0.0853
     16 N1         -3.6781    6.3514   -1.6727 N.am      1 <0>        -0.6094
     17 C12        -3.2771    5.1684   -2.1636 C.2       1 <0>         0.7199
     18 O1         -3.8572    4.7635   -3.1584 O.2       1 <0>        -0.5849
     19 N2         -2.2852    4.4194   -1.7209 N.am      1 <0>        -0.6062
     20 C13        -2.3567    2.9815   -2.0155 C.3       1 <0>         0.1600
     21 C14        -3.2088    2.2979   -0.9774 C.ar      1 <0>        -0.0616
     22 C15        -4.5868    2.3151   -1.0943 C.ar      1 <0>        -0.1548
     23 C16        -5.3723    1.6895   -0.1439 C.ar      1 <0>        -0.0721
     24 C17        -4.7827    1.0446    0.9258 C.ar      1 <0>        -0.1934
     25 C18        -3.3991    1.0249    1.0461 C.ar      1 <0>         0.2143
     26 C19        -2.6127    1.6501    0.0864 C.ar      1 <0>        -0.1870
     27 N3         -2.7996    0.3736    2.1265 N.pl3     1 <0>        -0.8798
     28 C20        -4.4576    7.2544   -2.5288 C.3       1 <0>         0.1617
     29 C21        -3.5216    8.0637   -3.3891 C.ar      1 <0>        -0.0640
     30 C22        -3.1288    7.5823   -4.6247 C.ar      1 <0>        -0.1539
     31 C23        -2.2699    8.3214   -5.4169 C.ar      1 <0>        -0.0807
     32 C24        -1.8014    9.5439   -4.9765 C.ar      1 <0>        -0.1958
     33 C25        -2.1942   10.0305   -3.7364 C.ar      1 <0>         0.2081
     34 C26        -3.0616    9.2876   -2.9451 C.ar      1 <0>        -0.1578
     35 N4         -1.7225   11.2663   -3.2880 N.pl3     1 <0>        -0.8808
     36 C27        -4.2342    7.9645    0.0684 C.3       1 <0>        -0.0828
     37 C28        -4.0805    8.2584    1.5384 C.ar      1 <0>        -0.0806
     38 C29        -4.8408    7.5689    2.4643 C.ar      1 <0>        -0.1177
     39 C30        -4.6970    7.8357    3.8130 C.ar      1 <0>        -0.1195
     40 C31        -3.7987    8.7978    4.2353 C.ar      1 <0>        -0.1213
     41 C32        -3.0421    9.4910    3.3090 C.ar      1 <0>        -0.1241
     42 C33        -3.1832    9.2214    1.9606 C.ar      1 <0>        -0.1036
     43 O2         -1.7849    8.5492   -0.4450 O.3       1 <0>        -0.5489
     44 O3          0.3890    6.7552   -0.7689 O.3       1 <0>        -0.5439
     45 H5          3.4966    5.1913    2.8970 H         1 <0>         0.1173
     46 H6          3.1440    3.2168    1.4687 H         1 <0>         0.1183
     47 H7          0.9692    2.8657    0.3686 H         1 <0>         0.1149
     48 H8         -0.4904    6.4795    2.1005 H         1 <0>         0.1120
     49 H9          1.6809    6.8251    3.2091 H         1 <0>         0.1165
     50 H10        -1.4876    3.3834    0.5289 H         1 <0>         0.0983
     51 H11        -1.9879    5.0263    0.9966 H         1 <0>         0.0705
     52 H12        -2.7972    2.8341   -3.0016 H         1 <0>         0.1061
     53 H13        -1.3530    2.5568   -1.9988 H         1 <0>         0.0856
     54 H14        -5.0504    2.8187   -1.9297 H         1 <0>         0.1242
     55 H15        -6.4481    1.7049   -0.2381 H         1 <0>         0.1201
     56 H16        -5.3968    0.5564    1.6681 H         1 <0>         0.1176
     57 H17        -1.5364    1.6332    0.1748 H         1 <0>         0.1196
     58 H18        -3.3442   -0.1273    2.7537 H         1 <0>         0.3980
     59 H19        -1.8387    0.4223    2.2496 H         1 <0>         0.3973
     60 H20        -5.1212    6.6689   -3.1652 H         1 <0>         0.0955
     61 H21        -5.0497    7.9247   -1.9058 H         1 <0>         0.0917
     62 H22        -3.4936    6.6267   -4.9714 H         1 <0>         0.1214
     63 H23        -1.9651    7.9426   -6.3813 H         1 <0>         0.1162
     64 H24        -1.1302   10.1205   -5.5957 H         1 <0>         0.1133
     65 H25        -3.3722    9.6649   -1.9820 H         1 <0>         0.1231
     66 H26        -1.1198   11.7857   -3.8428 H         1 <0>         0.3951
     67 H27        -1.9975   11.6051   -2.4217 H         1 <0>         0.3962
     68 H28        -3.9227    8.8339   -0.5105 H         1 <0>         0.1021
     69 H29        -5.2778    7.7376   -0.1496 H         1 <0>         0.0789
     70 H30        -5.5450    6.8195    2.1342 H         1 <0>         0.1186
     71 H31        -5.2883    7.2944    4.5367 H         1 <0>         0.1198
     72 H32        -3.6883    9.0082    5.2888 H         1 <0>         0.1188
     73 H33        -2.3406   10.2430    3.6389 H         1 <0>         0.1190
     74 H34        -2.5920    9.7630    1.2369 H         1 <0>         0.1316
     75 H35        -0.8950    8.9028   -0.3102 H         1 <0>         0.3667
     76 H36         0.5685    7.7039   -0.8220 H         1 <0>         0.3743
@<TRIPOS>BOND
     1    1    6 ar
     2    1    2 ar
     3    1   45 1
     4    2    3 ar
     5    2   46 1
     6    3    4 ar
     7    3   47 1
     8    4    5 ar
     9    4    7 1
    10    5    6 ar
    11    5   48 1
    12    6   49 1
    13    7    8 1
    14    7   50 1
    15    7   51 1
    16    8    9 1
    17    8   19 1
    18    8   10 1
    19   10   11 1
    20   10   12 1
    21   10   44 1
    22   12   13 1
    23   12   14 1
    24   12   43 1
    25   14   15 1
    26   14   16 1
    27   14   36 1
    28   16   17 am
    29   16   28 1
    30   17   18 2
    31   17   19 am
    32   19   20 1
    33   20   21 1
    34   20   52 1
    35   20   53 1
    36   21   26 ar
    37   21   22 ar
    38   22   23 ar
    39   22   54 1
    40   23   24 ar
    41   23   55 1
    42   24   25 ar
    43   24   56 1
    44   25   26 ar
    45   25   27 1
    46   26   57 1
    47   27   58 1
    48   27   59 1
    49   28   29 1
    50   28   60 1
    51   28   61 1
    52   29   34 ar
    53   29   30 ar
    54   30   31 ar
    55   30   62 1
    56   31   32 ar
    57   31   63 1
    58   32   33 ar
    59   32   64 1
    60   33   34 ar
    61   33   35 1
    62   34   65 1
    63   35   66 1
    64   35   67 1
    65   36   37 1
    66   36   68 1
    67   36   69 1
    68   37   42 ar
    69   37   38 ar
    70   38   39 ar
    71   38   70 1
    72   39   40 ar
    73   39   71 1
    74   40   41 ar
    75   40   72 1
    76   41   42 ar
    77   41   73 1
    78   42   74 1
    79   43   75 1
    80   44   76 1
@<TRIPOS>MOLECULE
ZINC03831999
   70    74     0     0     0
SMALL
USER_CHARGES

@<TRIPOS>ATOM
      1 C1         -3.3018    8.1390   -7.1150 C.3       1 <0>        -0.1553
      2 C2         -2.6558    7.5339   -5.8670 C.3       1 <0>        -0.1221
      3 C3         -3.7167    7.3559   -4.7790 C.3       1 <0>        -0.0358
      4 H1         -4.2228    8.3057   -4.6061 H         1 <0>         0.1103
      5 C4         -4.7374    6.3085   -5.2283 C.3       1 <0>        -0.0811
      6 C5         -5.8537    6.2295   -4.2191 C.ar      1 <0>        -0.0886
      7 C6         -5.7329    5.4023   -3.1181 C.ar      1 <0>        -0.1121
      8 C7         -6.7548    5.3335   -2.1898 C.ar      1 <0>        -0.1141
      9 C8         -7.9020    6.0840   -2.3679 C.ar      1 <0>        -0.1198
     10 C9         -8.0250    6.9073   -3.4715 C.ar      1 <0>        -0.1174
     11 C10        -7.0008    6.9800   -4.3971 C.ar      1 <0>        -0.1145
     12 C11        -3.0565    6.8992   -3.5036 C.2       1 <0>         0.1670
     13 C12        -3.1631    7.6567   -2.3957 C.2       1 <0>        -0.2685
     14 C13        -2.5520    7.2329   -1.1945 C.2       1 <0>         0.2324
     15 C14        -1.8448    6.0443   -1.1925 C.2       1 <0>        -0.2657
     16 C15        -1.7697    5.3007   -2.3767 C.2       1 <0>         0.5009
     17 O1         -1.1552    4.2469   -2.3959 O.2       1 <0>        -0.4420
     18 O2         -2.3737    5.7453   -3.4921 O.3       1 <0>        -0.2608
     19 C16        -1.1717    5.5549    0.0639 C.3       1 <0>         0.0514
     20 H2         -0.1383    5.9011    0.0809 H         1 <0>         0.0874
     21 C17        -1.1974    4.0485    0.0933 C.ar      1 <0>        -0.0264
     22 C18        -2.4026    3.3762    0.0026 C.ar      1 <0>        -0.1180
     23 C19        -2.4300    1.9940    0.0240 C.ar      1 <0>        -0.0976
     24 C20        -1.2537    1.2803    0.1467 C.ar      1 <0>        -0.1480
     25 C21        -0.0419    1.9522    0.2375 C.ar      1 <0>         0.1445
     26 C22        -0.0174    3.3407    0.2105 C.ar      1 <0>        -0.1030
     27 N1          1.1519    1.2321    0.3556 N.am      1 <0>        -0.6747
     28 C23         2.2746    1.6870   -0.2353 C.2       1 <0>         0.5131
     29 O3          2.2744    2.7668   -0.7876 O.2       1 <0>        -0.5028
     30 C24         3.5302    0.8540   -0.2098 C.3       1 <0>        -0.1032
     31 C25         4.6318    1.5835   -0.9345 C.ar      1 <0>        -0.0253
     32 C26         4.8288    1.4009   -2.2947 C.ar      1 <0>        -0.1575
     33 C27         5.8467    2.0902   -2.9263 C.ar      1 <0>         0.1014
     34 N2          6.6308    2.9056   -2.2487 N.ar      1 <0>        -0.4847
     35 C28         6.4756    3.1001   -0.9537 C.ar      1 <0>         0.1003
     36 C29         5.4761    2.4489   -0.2558 C.ar      1 <0>        -0.1592
     37 C30        -1.9129    6.1016    1.2856 C.3       1 <0>        -0.1215
     38 C31        -1.1892    7.1406    2.1445 C.3       1 <0>        -0.1775
     39 C32        -1.3798    5.7151    2.6667 C.3       1 <0>        -0.1792
     40 O4         -2.6530    7.9777   -0.0685 O.3       1 <0>        -0.4742
     41 H3         -4.1369    7.5140   -7.4312 H         1 <0>         0.0613
     42 H4         -3.6641    9.1414   -6.8869 H         1 <0>         0.0577
     43 H5         -2.5645    8.1927   -7.9160 H         1 <0>         0.0617
     44 H6         -1.8719    8.1991   -5.5048 H         1 <0>         0.0703
     45 H7         -2.2237    6.5645   -6.1152 H         1 <0>         0.0761
     46 H8         -5.1446    6.5911   -6.1991 H         1 <0>         0.0924
     47 H9         -4.2499    5.3368   -5.3077 H         1 <0>         0.0844
     48 H10        -4.8385    4.8126   -2.9814 H         1 <0>         0.1133
     49 H11        -6.6589    4.6901   -1.3278 H         1 <0>         0.1201
     50 H12        -8.7023    6.0269   -1.6449 H         1 <0>         0.1213
     51 H13        -8.9214    7.4934   -3.6108 H         1 <0>         0.1224
     52 H14        -7.0971    7.6230   -5.2595 H         1 <0>         0.1225
     53 H15        -3.7179    8.5829   -2.4240 H         1 <0>         0.1568
     54 H16        -3.3240    3.9320   -0.0896 H         1 <0>         0.1111
     55 H17        -3.3723    1.4719   -0.0516 H         1 <0>         0.1216
     56 H18        -1.2760    0.2008    0.1675 H         1 <0>         0.1209
     57 H19         0.9234    3.8662    0.2813 H         1 <0>         0.1315
     58 H20         1.1716    0.4055    0.8628 H         1 <0>         0.4101
     59 H21         3.8290    0.6788    0.8237 H         1 <0>         0.1110
     60 H22         3.3426   -0.1010   -0.7006 H         1 <0>         0.1114
     61 H23         4.1928    0.7309   -2.8543 H         1 <0>         0.1331
     62 H24         6.0046    1.9560   -3.9862 H         1 <0>         0.1565
     63 H25         7.1374    3.7758   -0.4323 H         1 <0>         0.1562
     64 H26         5.3545    2.6118    0.8049 H         1 <0>         0.1328
     65 H27        -2.9922    6.2046    1.1735 H         1 <0>         0.1131
     66 H28        -0.1850    7.4346    1.8392 H         1 <0>         0.0899
     67 H29        -1.7923    7.9274    2.5975 H         1 <0>         0.0958
     68 H30        -2.1084    5.5642    3.4632 H         1 <0>         0.0932
     69 H31        -0.5013    5.0711    2.7049 H         1 <0>         0.0913
     70 H32        -1.9476    8.6310    0.0355 H         1 <0>         0.4023
@<TRIPOS>BOND
     1    1    2 1
     2    1   41 1
     3    1   42 1
     4    1   43 1
     5    2    3 1
     6    2   44 1
     7    2   45 1
     8    3    4 1
     9    3    5 1
    10    3   12 1
    11    5    6 1
    12    5   46 1
    13    5   47 1
    14    6   11 ar
    15    6    7 ar
    16    7    8 ar
    17    7   48 1
    18    8    9 ar
    19    8   49 1
    20    9   10 ar
    21    9   50 1
    22   10   11 ar
    23   10   51 1
    24   11   52 1
    25   12   18 1
    26   12   13 2
    27   13   14 1
    28   13   53 1
    29   14   15 2
    30   14   40 1
    31   15   16 1
    32   15   19 1
    33   16   17 2
    34   16   18 1
    35   19   20 1
    36   19   21 1
    37   19   37 1
    38   21   26 ar
    39   21   22 ar
    40   22   23 ar
    41   22   54 1
    42   23   24 ar
    43   23   55 1
    44   24   25 ar
    45   24   56 1
    46   25   26 ar
    47   25   27 1
    48   26   57 1
    49   27   28 am
    50   27   58 1
    51   28   29 2
    52   28   30 1
    53   30   31 1
    54   30   59 1
    55   30   60 1
    56   31   36 ar
    57   31   32 ar
    58   32   33 ar
    59   32   61 1
    60   33   34 ar
    61   33   62 1
    62   34   35 ar
    63   35   36 ar
    64   35   63 1
    65   36   64 1
    66   37   39 1
    67   37   38 1
    68   37   65 1
    69   38   39 1
    70   38   66 1
    71   38   67 1
    72   39   68 1
    73   39   69 1
    74   40   70 1
@<TRIPOS>MOLECULE
ZINC03832000
   61    65     0     0     0
SMALL
USER_CHARGES

@<TRIPOS>ATOM
      1 C1          1.9657    6.0878   -2.0502 C.3       1 <0>        -0.1520
      2 C2          2.0594    6.9442   -0.7858 C.3       1 <0>        -0.1283
      3 C3          1.1710    6.3423    0.3048 C.3       1 <0>         0.0194
      4 H1          0.1542    6.2348   -0.0730 H         1 <0>         0.1000
      5 C4          1.7061    4.9897    0.6989 C.ar      1 <0>        -0.0616
      6 C5          3.0508    4.7065    0.5427 C.ar      1 <0>        -0.1033
      7 C6          3.5456    3.4669    0.9034 C.ar      1 <0>        -0.1032
      8 C7          2.6968    2.5052    1.4160 C.ar      1 <0>        -0.1158
      9 C8          1.3471    2.7879    1.5781 C.ar      1 <0>         0.1357
     10 C9          0.8531    4.0343    1.2151 C.ar      1 <0>        -0.1394
     11 N1          0.4854    1.8174    2.1010 N.am      1 <0>        -0.6727
     12 C10         0.9118    0.9945    3.0795 C.2       1 <0>         0.5187
     13 O1          2.0652    1.0413    3.4516 O.2       1 <0>        -0.5167
     14 C11        -0.0446    0.0161    3.7113 C.3       1 <0>        -0.1582
     15 C12         0.6873   -0.7914    4.7853 C.3       1 <0>         0.1275
     16 N2         -0.2425   -1.7425    5.3994 N.pl3     1 <0>        -0.4860
     17 C13        -0.9429   -1.5229    6.5542 C.2       1 <0>         0.0499
     18 C14        -1.7053   -2.5909    6.8372 C.2       1 <0>        -0.2014
     19 C15        -1.4664   -3.5792    5.7827 C.ar      1 <0>        -0.1100
     20 C16        -0.5371   -2.9929    4.9038 C.ar      1 <0>         0.0965
     21 C17        -0.1118   -3.7052    3.7875 C.ar      1 <0>        -0.1310
     22 C18        -0.6031   -4.9715    3.5558 C.ar      1 <0>        -0.0980
     23 C19        -1.5196   -5.5454    4.4257 C.ar      1 <0>        -0.1468
     24 C20        -1.9510   -4.8634    5.5286 C.ar      1 <0>        -0.0706
     25 C21         1.1667    7.2506    1.5073 C.2       1 <0>        -0.2346
     26 C22        -0.0179    7.6478    2.0636 C.2       1 <0>         0.2207
     27 C23         0.0327    8.5343    3.2366 C.ar      1 <0>        -0.1735
     28 C24        -1.1380    8.9782    3.8552 C.ar      1 <0>        -0.0496
     29 C25        -1.0561    9.8072    4.9518 C.ar      1 <0>        -0.1420
     30 C26         0.1809   10.2006    5.4414 C.ar      1 <0>        -0.0590
     31 C27         1.3444    9.7691    4.8402 C.ar      1 <0>        -0.1342
     32 C28         1.2841    8.9330    3.7328 C.ar      1 <0>         0.1539
     33 O2          2.4140    8.5007    3.1323 O.3       1 <0>        -0.2707
     34 C29         2.3781    7.6877    2.0644 C.2       1 <0>         0.5219
     35 O3          3.4268    7.3229    1.5622 O.2       1 <0>        -0.4445
     36 O4         -1.2003    7.2376    1.5510 O.3       1 <0>        -0.4736
     37 H2          2.5986    6.5166   -2.8272 H         1 <0>         0.0571
     38 H3          2.2994    5.0742   -1.8281 H         1 <0>         0.0594
     39 H4          0.9324    6.0624   -2.3962 H         1 <0>         0.0525
     40 H5          1.7256    7.9578   -1.0080 H         1 <0>         0.0633
     41 H6          3.0927    6.9695   -0.4399 H         1 <0>         0.0918
     42 H7          3.7157    5.4553    0.1383 H         1 <0>         0.1367
     43 H8          4.5962    3.2488    0.7802 H         1 <0>         0.1269
     44 H9          3.0832    1.5356    1.6934 H         1 <0>         0.1346
     45 H10        -0.1969    4.2558    1.3362 H         1 <0>         0.1190
     46 H11        -0.4189    1.7369    1.7593 H         1 <0>         0.4113
     47 H12        -0.8725    0.5597    4.1665 H         1 <0>         0.1045
     48 H13        -0.4298   -0.6599    2.9480 H         1 <0>         0.1042
     49 H14         1.5151   -1.3349    4.3300 H         1 <0>         0.0953
     50 H15         1.0725   -0.1154    5.5486 H         1 <0>         0.1000
     51 H16        -0.8919   -0.6226    7.1485 H         1 <0>         0.1678
     52 H17        -2.3660   -2.7022    7.6843 H         1 <0>         0.1473
     53 H18         0.6014   -3.2674    3.1048 H         1 <0>         0.1169
     54 H19        -0.2716   -5.5230    2.6884 H         1 <0>         0.1247
     55 H20        -1.8951   -6.5388    4.2294 H         1 <0>         0.1224
     56 H21        -2.6646   -5.3162    6.2010 H         1 <0>         0.1219
     57 H22        -2.1021    8.6735    3.4755 H         1 <0>         0.1417
     58 H23        -1.9591   10.1523    5.4333 H         1 <0>         0.1381
     59 H24         0.2330   10.8509    6.3021 H         1 <0>         0.1430
     60 H25         2.3020   10.0810    5.2303 H         1 <0>         0.1471
     61 H26        -1.5305    6.4135    1.9343 H         1 <0>         0.4055
@<TRIPOS>BOND
     1    1    2 1
     2    1   37 1
     3    1   38 1
     4    1   39 1
     5    2    3 1
     6    2   40 1
     7    2   41 1
     8    3    4 1
     9    3    5 1
    10    3   25 1
    11    5   10 ar
    12    5    6 ar
    13    6    7 ar
    14    6   42 1
    15    7    8 ar
    16    7   43 1
    17    8    9 ar
    18    8   44 1
    19    9   10 ar
    20    9   11 1
    21   10   45 1
    22   11   12 am
    23   11   46 1
    24   12   13 2
    25   12   14 1
    26   14   15 1
    27   14   47 1
    28   14   48 1
    29   15   16 1
    30   15   49 1
    31   15   50 1
    32   16   20 1
    33   16   17 1
    34   17   18 2
    35   17   51 1
    36   18   19 1
    37   18   52 1
    38   19   24 ar
    39   19   20 ar
    40   20   21 ar
    41   21   22 ar
    42   21   53 1
    43   22   23 ar
    44   22   54 1
    45   23   24 ar
    46   23   55 1
    47   24   56 1
    48   25   34 1
    49   25   26 2
    50   26   27 1
    51   26   36 1
    52   27   32 ar
    53   27   28 ar
    54   28   29 ar
    55   28   57 1
    56   29   30 ar
    57   29   58 1
    58   30   31 ar
    59   30   59 1
    60   31   32 ar
    61   31   60 1
    62   32   33 1
    63   33   34 1
    64   34   35 2
    65   36   61 1
@<TRIPOS>MOLECULE
ZINC03833842
   82    86     0     0     0
SMALL
USER_CHARGES

@<TRIPOS>ATOM
      1 C1         -2.0354    1.0538   -5.5949 C.ar      1 <0>        -0.1562
      2 C2         -0.8028    0.4279   -5.5716 C.ar      1 <0>        -0.0799
      3 C3         -0.1034    0.3211   -4.3851 C.ar      1 <0>        -0.1492
      4 C4         -0.6388    0.8424   -3.2162 C.ar      1 <0>         0.1271
      5 C5         -1.8784    1.4648   -3.2412 C.ar      1 <0>        -0.2084
      6 C6         -2.5715    1.5738   -4.4313 C.ar      1 <0>        -0.0799
      7 O1          0.0473    0.7385   -2.0478 O.3       1 <0>        -0.3114
      8 C7         -0.5650    1.2980   -0.8840 C.3       1 <0>         0.0592
      9 C8          0.3510    1.0857    0.3277 C.3       1 <0>         0.1601
     10 H1          0.6026    0.0245    0.3871 H         1 <0>         0.0989
     11 C9         -0.3840    1.5037    1.5812 C.3       1 <0>         0.0616
     12 H2         -0.9907    0.6663    1.9334 H         1 <0>         0.0786
     13 C10         0.5031    1.9984    2.7029 C.3       1 <0>         0.0847
     14 H3          0.9558    2.9532    2.4081 H         1 <0>         0.0872
     15 C11         1.6112    1.0027    3.0444 C.3       1 <0>         0.1563
     16 H4          2.0133    1.2686    4.0371 H         1 <0>         0.1081
     17 N1          2.7086    1.0873    2.0886 N.am      1 <0>        -0.6000
     18 C12         2.6612    1.6541    0.8997 C.2       1 <0>         0.7118
     19 O2          3.7273    2.0358    0.4386 O.2       1 <0>        -0.5764
     20 N2          1.5764    1.8584    0.1368 N.am      1 <0>        -0.6063
     21 C13         1.6234    2.8799   -0.9167 C.3       1 <0>         0.1658
     22 C14         1.2946    4.2266   -0.3257 C.ar      1 <0>        -0.1037
     23 C15         0.0051    4.7188   -0.4021 C.ar      1 <0>        -0.0890
     24 C16        -0.2973    5.9523    0.1435 C.ar      1 <0>        -0.1039
     25 C17         0.6917    6.6976    0.7579 C.ar      1 <0>        -0.0888
     26 C18         1.9822    6.2075    0.8301 C.ar      1 <0>        -0.1041
     27 C19         2.2838    4.9722    0.2879 C.ar      1 <0>        -0.0978
     28 C20         0.3630    8.0445    1.3486 C.3       1 <0>         0.1162
     29 O3          0.5479    9.0572    0.3574 O.3       1 <0>        -0.5667
     30 C21         3.9875    0.4836    2.4876 C.3       1 <0>         0.1660
     31 C22         4.8292    1.5129    3.1969 C.ar      1 <0>        -0.0982
     32 C23         5.7004    2.3088    2.4768 C.ar      1 <0>        -0.0811
     33 C24         6.4696    3.2556    3.1270 C.ar      1 <0>        -0.1070
     34 C25         6.3739    3.4007    4.4984 C.ar      1 <0>        -0.0895
     35 C26         5.5063    2.6015    5.2191 C.ar      1 <0>        -0.1073
     36 C27         4.7343    1.6573    4.5684 C.ar      1 <0>        -0.1083
     37 C28         7.2160    4.4296    5.2078 C.3       1 <0>         0.1162
     38 O4          8.4593    3.8420    5.5963 O.3       1 <0>        -0.5670
     39 C29         1.0793   -0.4247    3.1227 C.3       1 <0>         0.0465
     40 O5          2.0926   -1.2823    3.6515 O.3       1 <0>        -0.3072
     41 C30         1.7786   -2.5975    3.7873 C.ar      1 <0>         0.1272
     42 C31         0.5192   -3.0523    3.4244 C.ar      1 <0>        -0.2076
     43 C32         0.2043   -4.3907    3.5585 C.ar      1 <0>        -0.0800
     44 C33         1.1396   -5.2749    4.0636 C.ar      1 <0>        -0.1561
     45 C34         2.3935   -4.8232    4.4313 C.ar      1 <0>        -0.0793
     46 C35         2.7151   -3.4867    4.2943 C.ar      1 <0>        -0.1495
     47 O6         -0.2985    2.2304    3.8697 O.3       1 <0>        -0.5509
     48 O7         -1.2938    2.5597    1.2319 O.3       1 <0>        -0.5525
     49 H5         -2.5807    1.1364   -6.5235 H         1 <0>         0.1241
     50 H6         -0.3865    0.0220   -6.4817 H         1 <0>         0.1298
     51 H7          0.8593   -0.1682   -4.3673 H         1 <0>         0.1305
     52 H8         -2.2994    1.8675   -2.3318 H         1 <0>         0.1269
     53 H9         -3.5348    2.0616   -4.4519 H         1 <0>         0.1247
     54 H10        -1.5223    0.8082   -0.7061 H         1 <0>         0.0780
     55 H11        -0.7255    2.3654   -1.0355 H         1 <0>         0.0908
     56 H12         2.6226    2.9080   -1.3513 H         1 <0>         0.0988
     57 H13         0.8968    2.6361   -1.6918 H         1 <0>         0.0951
     58 H14        -0.7667    4.1382   -0.8854 H         1 <0>         0.1200
     59 H15        -1.3055    6.3354    0.0868 H         1 <0>         0.1196
     60 H16         2.7550    6.7899    1.3097 H         1 <0>         0.1189
     61 H17         3.2922    4.5895    0.3440 H         1 <0>         0.1277
     62 H18        -0.6737    8.0504    1.6851 H         1 <0>         0.0533
     63 H19         1.0210    8.2403    2.1952 H         1 <0>         0.0529
     64 H20         0.3540    9.9520    0.6685 H         1 <0>         0.3810
     65 H21         3.7999   -0.3561    3.1567 H         1 <0>         0.1057
     66 H22         4.5151    0.1311    1.6013 H         1 <0>         0.0902
     67 H23         5.7779    2.1929    1.4058 H         1 <0>         0.1361
     68 H24         7.1478    3.8797    2.5640 H         1 <0>         0.1195
     69 H25         5.4318    2.7146    6.2906 H         1 <0>         0.1195
     70 H26         4.0566    1.0327    5.1315 H         1 <0>         0.1204
     71 H27         7.4042    5.2691    4.5385 H         1 <0>         0.0535
     72 H28         6.6883    4.7826    6.0939 H         1 <0>         0.0529
     73 H29         9.0533    4.4485    6.0594 H         1 <0>         0.3803
     74 H30         0.2049   -0.4514    3.7730 H         1 <0>         0.0822
     75 H31         0.8006   -0.7637    2.1250 H         1 <0>         0.0644
     76 H32        -0.2131   -2.3613    3.0337 H         1 <0>         0.1234
     77 H33        -0.7748   -4.7459    3.2726 H         1 <0>         0.1245
     78 H34         0.8901   -6.3201    4.1715 H         1 <0>         0.1243
     79 H35         3.1221   -5.5157    4.8263 H         1 <0>         0.1302
     80 H36         3.6946   -3.1343    4.5819 H         1 <0>         0.1314
     81 H37        -1.0246    2.8537    3.7305 H         1 <0>         0.3843
     82 H38        -1.8124    2.8943    1.9763 H         1 <0>         0.3764
@<TRIPOS>BOND
     1    1    6 ar
     2    1    2 ar
     3    1   49 1
     4    2    3 ar
     5    2   50 1
     6    3    4 ar
     7    3   51 1
     8    4    5 ar
     9    4    7 1
    10    5    6 ar
    11    5   52 1
    12    6   53 1
    13    7    8 1
    14    8    9 1
    15    8   54 1
    16    8   55 1
    17    9   10 1
    18    9   20 1
    19    9   11 1
    20   11   12 1
    21   11   13 1
    22   11   48 1
    23   13   14 1
    24   13   15 1
    25   13   47 1
    26   15   16 1
    27   15   17 1
    28   15   39 1
    29   17   18 am
    30   17   30 1
    31   18   19 2
    32   18   20 am
    33   20   21 1
    34   21   22 1
    35   21   56 1
    36   21   57 1
    37   22   27 ar
    38   22   23 ar
    39   23   24 ar
    40   23   58 1
    41   24   25 ar
    42   24   59 1
    43   25   26 ar
    44   25   28 1
    45   26   27 ar
    46   26   60 1
    47   27   61 1
    48   28   29 1
    49   28   62 1
    50   28   63 1
    51   29   64 1
    52   30   31 1
    53   30   65 1
    54   30   66 1
    55   31   36 ar
    56   31   32 ar
    57   32   33 ar
    58   32   67 1
    59   33   34 ar
    60   33   68 1
    61   34   35 ar
    62   34   37 1
    63   35   36 ar
    64   35   69 1
    65   36   70 1
    66   37   38 1
    67   37   71 1
    68   37   72 1
    69   38   73 1
    70   39   40 1
    71   39   74 1
    72   39   75 1
    73   40   41 1
    74   41   46 ar
    75   41   42 ar
    76   42   43 ar
    77   42   76 1
    78   43   44 ar
    79   43   77 1
    80   44   45 ar
    81   44   78 1
    82   45   46 ar
    83   45   79 1
    84   46   80 1
    85   47   81 1
    86   48   82 1
@<TRIPOS>MOLECULE
ZINC03833843
   80    84     0     0     0
SMALL
USER_CHARGES

@<TRIPOS>ATOM
      1 C1          3.5655    6.9908   -1.1514 C.ar      1 <0>        -0.1199
      2 C2          3.5965    6.6201    0.1799 C.ar      1 <0>        -0.1203
      3 C3          3.2366    5.3374    0.5488 C.ar      1 <0>        -0.1087
      4 C4          2.8449    4.4257   -0.4136 C.ar      1 <0>        -0.0834
      5 C5          2.8185    4.7950   -1.7455 C.ar      1 <0>        -0.1171
      6 C6          3.1746    6.0788   -2.1139 C.ar      1 <0>        -0.1168
      7 C7          2.4526    3.0273   -0.0115 C.3       1 <0>        -0.0998
      8 C8          0.9248    2.9440    0.1273 C.3       1 <0>         0.1616
      9 H1          0.4808    3.2294   -0.8178 H         1 <0>         0.0951
     10 C9          0.4906    3.8690    1.2448 C.3       1 <0>         0.0637
     11 H2          0.6470    4.9022    0.9147 H         1 <0>         0.0777
     12 C10        -0.9516    3.7177    1.6837 C.3       1 <0>         0.0793
     13 H3         -0.9937    2.9491    2.4714 H         1 <0>         0.0651
     14 C11        -1.9067    3.3277    0.5646 C.3       1 <0>         0.1647
     15 H4         -2.9388    3.4217    0.9713 H         1 <0>         0.0915
     16 N1         -1.7538    1.9408    0.1561 N.am      1 <0>        -0.6122
     17 C12        -0.7122    1.1556    0.3641 C.2       1 <0>         0.7135
     18 O1         -0.9207   -0.0387    0.4544 O.2       1 <0>        -0.5767
     19 N2          0.5663    1.5594    0.4507 N.am      1 <0>        -0.6050
     20 C13         1.6064    0.6158    0.8637 C.3       1 <0>         0.1748
     21 C14         2.0670   -0.1786   -0.3312 C.ar      1 <0>        -0.0994
     22 C15         1.3557   -1.2925   -0.7365 C.ar      1 <0>        -0.0886
     23 C16         1.7757   -2.0187   -1.8352 C.ar      1 <0>        -0.1036
     24 C17         2.9121   -1.6363   -2.5231 C.ar      1 <0>        -0.0901
     25 C18         3.6264   -0.5255   -2.1146 C.ar      1 <0>        -0.1064
     26 C19         3.2039    0.2032   -1.0186 C.ar      1 <0>        -0.1191
     27 C20         3.3721   -2.4302   -3.7186 C.3       1 <0>         0.1157
     28 O2          4.1745   -3.5287   -3.2809 O.3       1 <0>        -0.5672
     29 C21        -2.8846    1.3381   -0.5694 C.3       1 <0>         0.1706
     30 C22        -3.9025    0.8304    0.4192 C.ar      1 <0>        -0.1098
     31 C23        -4.9211    1.6598    0.8501 C.ar      1 <0>        -0.1009
     32 C24        -5.8549    1.1941    1.7565 C.ar      1 <0>        -0.1284
     33 C25        -5.7702   -0.1013    2.2322 C.ar      1 <0>        -0.0944
     34 C26        -4.7519   -0.9306    1.8013 C.ar      1 <0>        -0.1001
     35 C27        -3.8209   -0.4663    0.8907 C.ar      1 <0>        -0.0590
     36 C28        -4.6599   -2.3427    2.3194 C.3       1 <0>         0.1173
     37 O3         -5.4061   -3.2127    1.4660 O.3       1 <0>        -0.5676
     38 C29        -1.8209    4.2800   -0.6221 C.3       1 <0>        -0.0976
     39 C30        -2.3074    5.6446   -0.2073 C.ar      1 <0>        -0.0645
     40 C31        -3.6604    5.9277   -0.2141 C.ar      1 <0>        -0.1144
     41 C32        -4.1070    7.1778    0.1715 C.ar      1 <0>        -0.1193
     42 C33        -3.1998    8.1483    0.5534 C.ar      1 <0>        -0.1207
     43 C34        -1.8463    7.8671    0.5547 C.ar      1 <0>        -0.1195
     44 C35        -1.4001    6.6152    0.1746 C.ar      1 <0>        -0.0823
     45 O4         -1.3888    4.9541    2.2700 O.3       1 <0>        -0.5416
     46 O5          1.3387    3.6458    2.3778 O.3       1 <0>        -0.5538
     47 H5          3.8469    7.9929   -1.4396 H         1 <0>         0.1205
     48 H6          3.9021    7.3325    0.9319 H         1 <0>         0.1206
     49 H7          3.2612    5.0476    1.5889 H         1 <0>         0.1265
     50 H8          2.5167    4.0813   -2.4978 H         1 <0>         0.1192
     51 H9          3.1508    6.3684   -3.1541 H         1 <0>         0.1212
     52 H10         2.9182    2.7794    0.9424 H         1 <0>         0.0960
     53 H11         2.7872    2.3229   -0.7731 H         1 <0>         0.0944
     54 H12         2.4499    1.1650    1.2819 H         1 <0>         0.0935
     55 H13         1.2042   -0.0614    1.6171 H         1 <0>         0.0872
     56 H14         0.4699   -1.5934   -0.1968 H         1 <0>         0.1404
     57 H15         1.2175   -2.8864   -2.1545 H         1 <0>         0.1198
     58 H16         4.5142   -0.2268   -2.6521 H         1 <0>         0.1202
     59 H17         3.7619    1.0711   -0.6995 H         1 <0>         0.1267
     60 H18         2.5045   -2.8071   -4.2602 H         1 <0>         0.0541
     61 H19         3.9604   -1.7896   -4.3756 H         1 <0>         0.0532
     62 H20         4.5060   -4.0845   -3.9994 H         1 <0>         0.3807
     63 H21        -3.3452    2.0883   -1.2122 H         1 <0>         0.0830
     64 H22        -2.5249    0.5089   -1.1787 H         1 <0>         0.0949
     65 H23        -4.9875    2.6716    0.4783 H         1 <0>         0.1182
     66 H24        -6.6508    1.8419    2.0929 H         1 <0>         0.1224
     67 H25        -6.5000   -0.4654    2.9401 H         1 <0>         0.1200
     68 H26        -3.0277   -1.1157    0.5507 H         1 <0>         0.1340
     69 H27        -3.6162   -2.6567    2.3353 H         1 <0>         0.0556
     70 H28        -5.0679   -2.3865    3.3293 H         1 <0>         0.0523
     71 H29        -5.3912   -4.1400    1.7398 H         1 <0>         0.3804
     72 H30        -0.7863    4.3496   -0.9581 H         1 <0>         0.0746
     73 H31        -2.4424    3.9043   -1.4350 H         1 <0>         0.0810
     74 H32        -4.3689    5.1708   -0.5167 H         1 <0>         0.1150
     75 H33        -5.1644    7.3974    0.1708 H         1 <0>         0.1180
     76 H34        -3.5484    9.1262    0.8511 H         1 <0>         0.1170
     77 H35        -1.1375    8.6254    0.8531 H         1 <0>         0.1162
     78 H36        -0.3427    6.3955    0.1756 H         1 <0>         0.1109
     79 H37        -0.8757    5.2259    3.0432 H         1 <0>         0.3754
     80 H38         1.1285    4.2001    3.1418 H         1 <0>         0.3741
@<TRIPOS>BOND
     1    1    6 ar
     2    1    2 ar
     3    1   47 1
     4    2    3 ar
     5    2   48 1
     6    3    4 ar
     7    3   49 1
     8    4    5 ar
     9    4    7 1
    10    5    6 ar
    11    5   50 1
    12    6   51 1
    13    7    8 1
    14    7   52 1
    15    7   53 1
    16    8    9 1
    17    8   19 1
    18    8   10 1
    19   10   11 1
    20   10   12 1
    21   10   46 1
    22   12   13 1
    23   12   14 1
    24   12   45 1
    25   14   15 1
    26   14   16 1
    27   14   38 1
    28   16   17 am
    29   16   29 1
    30   17   18 2
    31   17   19 am
    32   19   20 1
    33   20   21 1
    34   20   54 1
    35   20   55 1
    36   21   26 ar
    37   21   22 ar
    38   22   23 ar
    39   22   56 1
    40   23   24 ar
    41   23   57 1
    42   24   25 ar
    43   24   27 1
    44   25   26 ar
    45   25   58 1
    46   26   59 1
    47   27   28 1
    48   27   60 1
    49   27   61 1
    50   28   62 1
    51   29   30 1
    52   29   63 1
    53   29   64 1
    54   30   35 ar
    55   30   31 ar
    56   31   32 ar
    57   31   65 1
    58   32   33 ar
    59   32   66 1
    60   33   34 ar
    61   33   67 1
    62   34   35 ar
    63   34   36 1
    64   35   68 1
    65   36   37 1
    66   36   69 1
    67   36   70 1
    68   37   71 1
    69   38   39 1
    70   38   72 1
    71   38   73 1
    72   39   44 ar
    73   39   40 ar
    74   40   41 ar
    75   40   74 1
    76   41   42 ar
    77   41   75 1
    78   42   43 ar
    79   42   76 1
    80   43   44 ar
    81   43   77 1
    82   44   78 1
    83   45   79 1
    84   46   80 1
@<TRIPOS>MOLECULE
ZINC03833844
   78    84     0     0     0
SMALL
USER_CHARGES

@<TRIPOS>ATOM
      1 C1         -5.6981   -1.8421   -0.3064 C.ar      1 <0>        -0.1206
      2 C2         -5.2967   -1.2293    0.8659 C.ar      1 <0>        -0.1243
      3 C3         -4.0874   -0.5617    0.9179 C.ar      1 <0>        -0.1016
      4 C4         -3.2793   -0.5071   -0.2023 C.ar      1 <0>        -0.0813
      5 C5         -3.6830   -1.1154   -1.3761 C.ar      1 <0>        -0.1187
      6 C6         -4.8905   -1.7864   -1.4270 C.ar      1 <0>        -0.1201
      7 C7         -1.9609    0.2207   -0.1456 C.3       1 <0>        -0.0749
      8 C8         -0.8347   -0.7824    0.1313 C.3       1 <0>         0.1633
      9 H1         -0.8769   -1.5692   -0.6237 H         1 <0>         0.0917
     10 C9         -1.0358   -1.3843    1.5044 C.3       1 <0>         0.0646
     11 H2         -1.7054   -2.2435    1.4219 H         1 <0>         0.0817
     12 C10         0.2408   -1.7949    2.2058 C.3       1 <0>         0.0774
     13 H3          0.8275   -0.8964    2.4354 H         1 <0>         0.0731
     14 C11         1.0863   -2.7391    1.3521 C.3       1 <0>         0.1535
     15 H4          1.8106   -3.2423    2.0145 H         1 <0>         0.1022
     16 N1          1.8466   -2.0012    0.3486 N.am      1 <0>        -0.5540
     17 C12         1.6047   -0.7693   -0.0512 C.2       1 <0>         0.7079
     18 O1          2.5437   -0.1738   -0.5603 O.2       1 <0>        -0.5603
     19 N2          0.4499   -0.0914    0.0310 N.am      1 <0>        -0.5759
     20 C13         0.4687    1.3086   -0.0222 C.ar      1 <0>         0.1648
     21 C14         0.7466    1.9521   -1.2340 C.ar      1 <0>        -0.0914
     22 C15         0.7665    3.3086   -1.3159 C.ar      1 <0>        -0.1011
     23 C16         0.5162    4.0837   -0.1699 C.ar      1 <0>        -0.0475
     24 C17         0.5355    5.4879   -0.2238 C.ar      1 <0>        -0.1059
     25 C18         0.2895    6.2093    0.9038 C.ar      1 <0>        -0.1149
     26 C19         0.0177    5.5767    2.1156 C.ar      1 <0>        -0.1163
     27 C20        -0.0100    4.2191    2.2061 C.ar      1 <0>        -0.1030
     28 C21         0.2392    3.4403    1.0624 C.ar      1 <0>        -0.0453
     29 C22         0.2191    2.0372    1.1193 C.ar      1 <0>        -0.0970
     30 C23         2.9551   -2.6480   -0.2079 C.ar      1 <0>         0.1870
     31 C24         3.0929   -2.7127   -1.5995 C.ar      1 <0>        -0.0976
     32 C25         4.1621   -3.3304   -2.1675 C.ar      1 <0>        -0.0887
     33 C26         5.1423   -3.9245   -1.3533 C.ar      1 <0>        -0.0498
     34 C27         6.2556   -4.5745   -1.9130 C.ar      1 <0>        -0.1018
     35 C28         7.1865   -5.1402   -1.0971 C.ar      1 <0>        -0.1204
     36 C29         7.0541   -5.0855    0.2892 C.ar      1 <0>        -0.1130
     37 C30         5.9900   -4.4644    0.8671 C.ar      1 <0>        -0.1077
     38 C31         5.0079   -3.8685    0.0566 C.ar      1 <0>        -0.0253
     39 C32         3.8965   -3.2195    0.6188 C.ar      1 <0>        -0.1203
     40 C33         0.2336   -3.8147    0.6870 C.3       1 <0>        -0.0911
     41 C34         1.1301   -4.8683    0.0893 C.ar      1 <0>        -0.0869
     42 C35         1.4287   -4.8373   -1.2601 C.ar      1 <0>        -0.0994
     43 C36         2.2543   -5.8014   -1.8076 C.ar      1 <0>        -0.1094
     44 C37         2.7746   -6.8013   -1.0074 C.ar      1 <0>        -0.1119
     45 C38         2.4718   -6.8353    0.3410 C.ar      1 <0>        -0.1148
     46 C39         1.6493   -5.8689    0.8892 C.ar      1 <0>        -0.1115
     47 O2         -0.0857   -2.4392    3.4440 O.3       1 <0>        -0.5508
     48 O3         -1.7045   -0.4124    2.3237 O.3       1 <0>        -0.5520
     49 H5         -6.6427   -2.3640   -0.3470 H         1 <0>         0.1197
     50 H6         -5.9278   -1.2725    1.7413 H         1 <0>         0.1202
     51 H7         -3.7739   -0.0829    1.8338 H         1 <0>         0.1337
     52 H8         -3.0537   -1.0690   -2.2526 H         1 <0>         0.1180
     53 H9         -5.2043   -2.2648   -2.3430 H         1 <0>         0.1205
     54 H10        -1.9900    0.9635    0.6516 H         1 <0>         0.1009
     55 H11        -1.7788    0.7174   -1.0986 H         1 <0>         0.0784
     56 H12         0.9441    1.3624   -2.1170 H         1 <0>         0.1247
     57 H13         0.9788    3.7905   -2.2588 H         1 <0>         0.1303
     58 H14         0.7450    5.9922   -1.1555 H         1 <0>         0.1274
     59 H15         0.3055    7.2882    0.8590 H         1 <0>         0.1232
     60 H16        -0.1741    6.1726    2.9956 H         1 <0>         0.1231
     61 H17        -0.2221    3.7424    3.1517 H         1 <0>         0.1255
     62 H18         0.0091    1.5334    2.0512 H         1 <0>         0.1322
     63 H19         2.3412   -2.2621   -2.2305 H         1 <0>         0.1165
     64 H20         4.2563   -3.3687   -3.2427 H         1 <0>         0.1274
     65 H21         6.3716   -4.6253   -2.9856 H         1 <0>         0.1244
     66 H22         8.0406   -5.6393   -1.5305 H         1 <0>         0.1208
     67 H23         7.8071   -5.5425    0.9141 H         1 <0>         0.1209
     68 H24         5.9003   -4.4297    1.9428 H         1 <0>         0.1229
     69 H25         3.7812   -3.1686    1.6914 H         1 <0>         0.1231
     70 H26        -0.4191   -4.2722    1.4304 H         1 <0>         0.0942
     71 H27        -0.3716   -3.3638   -0.0995 H         1 <0>         0.0740
     72 H28         1.0195   -4.0580   -1.8860 H         1 <0>         0.1128
     73 H29         2.4906   -5.7751   -2.8611 H         1 <0>         0.1168
     74 H30         3.4174   -7.5561   -1.4356 H         1 <0>         0.1165
     75 H31         2.8780   -7.6167    0.9661 H         1 <0>         0.1177
     76 H32         1.4127   -5.8955    1.9427 H         1 <0>         0.1176
     77 H33        -0.6227   -1.8983    4.0391 H         1 <0>         0.3835
     78 H34        -1.9401   -0.7354    3.2042 H         1 <0>         0.3727
@<TRIPOS>BOND
     1    1    6 ar
     2    1    2 ar
     3    1   49 1
     4    2    3 ar
     5    2   50 1
     6    3    4 ar
     7    3   51 1
     8    4    5 ar
     9    4    7 1
    10    5    6 ar
    11    5   52 1
    12    6   53 1
    13    7    8 1
    14    7   54 1
    15    7   55 1
    16    8    9 1
    17    8   19 1
    18    8   10 1
    19   10   11 1
    20   10   12 1
    21   10   48 1
    22   12   13 1
    23   12   14 1
    24   12   47 1
    25   14   15 1
    26   14   16 1
    27   14   40 1
    28   16   17 am
    29   16   30 1
    30   17   18 2
    31   17   19 am
    32   19   20 1
    33   20   29 ar
    34   20   21 ar
    35   21   22 ar
    36   21   56 1
    37   22   23 ar
    38   22   57 1
    39   23   28 ar
    40   23   24 ar
    41   24   25 ar
    42   24   58 1
    43   25   26 ar
    44   25   59 1
    45   26   27 ar
    46   26   60 1
    47   27   28 ar
    48   27   61 1
    49   28   29 ar
    50   29   62 1
    51   30   39 ar
    52   30   31 ar
    53   31   32 ar
    54   31   63 1
    55   32   33 ar
    56   32   64 1
    57   33   38 ar
    58   33   34 ar
    59   34   35 ar
    60   34   65 1
    61   35   36 ar
    62   35   66 1
    63   36   37 ar
    64   36   67 1
    65   37   38 ar
    66   37   68 1
    67   38   39 ar
    68   39   69 1
    69   40   41 1
    70   40   70 1
    71   40   71 1
    72   41   46 ar
    73   41   42 ar
    74   42   43 ar
    75   42   72 1
    76   43   44 ar
    77   43   73 1
    78   44   45 ar
    79   44   74 1
    80   45   46 ar
    81   45   75 1
    82   46   76 1
    83   47   77 1
    84   48   78 1
@<TRIPOS>MOLECULE
ZINC03833845
   82    85     0     0     0
SMALL
USER_CHARGES

@<TRIPOS>ATOM
      1 C1         -3.0538    8.4352   -0.3714 C.3       1 <0>        -0.1649
      2 C2         -3.2456    7.1022   -1.0975 C.3       1 <0>         0.1689
      3 C3         -3.7010    7.3650   -2.5344 C.3       1 <0>        -0.1571
      4 C4         -4.3060    6.2731   -0.3701 C.3       1 <0>        -0.1661
      5 N1         -1.9780    6.3680   -1.1136 N.am      1 <0>        -0.7160
      6 C5         -1.3835    6.0244    0.0462 C.2       1 <0>         0.5770
      7 O1         -1.8993    6.3238    1.1059 O.2       1 <0>        -0.5236
      8 C6         -0.1075    5.2854    0.0300 C.ar      1 <0>        -0.1231
      9 C7          1.1016    5.9664    0.0221 C.ar      1 <0>        -0.0346
     10 C8          2.3044    5.2721    0.0074 C.ar      1 <0>        -0.1181
     11 C9          2.3402    3.9107   -0.0003 C.ar      1 <0>        -0.0831
     12 C10         1.1471    3.1681    0.0076 C.ar      1 <0>        -0.0578
     13 C11        -0.0960    3.8462    0.0227 C.ar      1 <0>        -0.0188
     14 C12        -1.2860    3.1072    0.0297 C.ar      1 <0>        -0.1113
     15 C13        -1.2340    1.7454    0.0174 C.ar      1 <0>        -0.1046
     16 C14        -0.0126    1.0758    0.0080 C.ar      1 <0>        -0.1176
     17 C15         1.1630    1.7625    0.0004 C.ar      1 <0>        -0.1000
     18 C16         1.1097    7.4734    0.0301 C.3       1 <0>        -0.0839
     19 C17         1.0005    7.9763    1.4709 C.3       1 <0>        -0.1478
     20 C18         1.0087    9.5063    1.4790 C.3       1 <0>         0.1107
     21 H1          1.8956    9.8677    0.9586 H         1 <0>         0.0975
     22 C19         1.0252   10.0086    2.9241 C.3       1 <0>        -0.1450
     23 C20         1.1591   11.5327    2.9328 C.3       1 <0>        -0.0859
     24 C21         1.1753   12.0274    4.3562 C.ar      1 <0>        -0.0328
     25 C22        -0.0050   12.4574    4.9486 C.ar      1 <0>        -0.1169
     26 C23        -0.0327   12.9115    6.2322 C.ar      1 <0>        -0.0832
     27 C24         1.1459   12.9557    6.9963 C.ar      1 <0>        -0.0577
     28 C25         1.1379   13.4205    8.3229 C.ar      1 <0>        -0.0995
     29 C26         2.2988   13.4489    9.0335 C.ar      1 <0>        -0.1181
     30 C27         3.4974   13.0231    8.4658 C.ar      1 <0>        -0.1048
     31 C28         3.5413   12.5661    7.1826 C.ar      1 <0>        -0.1114
     32 C29         2.3660   12.5238    6.4215 C.ar      1 <0>        -0.0185
     33 C30         2.3685   12.0436    5.0647 C.ar      1 <0>        -0.1246
     34 C31         3.6196   11.5810    4.4359 C.2       1 <0>         0.5761
     35 O2          4.3251   12.3680    3.8347 O.2       1 <0>        -0.5220
     36 N2          3.9810   10.2858    4.5276 N.am      1 <0>        -0.7166
     37 C32         5.2238    9.8261    3.9030 C.3       1 <0>         0.1688
     38 C33         6.4083   10.5840    4.5060 C.3       1 <0>        -0.1664
     39 C34         5.3966    8.3268    4.1539 C.3       1 <0>        -0.1565
     40 C35         5.1646   10.0876    2.3966 C.3       1 <0>        -0.1647
     41 O3         -0.1619    9.9924    0.8191 O.3       1 <0>        -0.5567
     42 H2         -2.2984    9.0258   -0.8897 H         1 <0>         0.0616
     43 H3         -3.9970    8.9814   -0.3595 H         1 <0>         0.0631
     44 H4         -2.7294    8.2479    0.6522 H         1 <0>         0.0764
     45 H5         -3.8377    6.4153   -3.0517 H         1 <0>         0.0616
     46 H6         -4.6442    7.9112   -2.5224 H         1 <0>         0.0750
     47 H7         -2.9456    7.9556   -3.0526 H         1 <0>         0.0633
     48 H8         -3.9816    6.0859    0.6535 H         1 <0>         0.0779
     49 H9         -5.2492    6.8193   -0.3581 H         1 <0>         0.0646
     50 H10        -4.4426    5.3234   -0.8874 H         1 <0>         0.0533
     51 H11        -1.5665    6.1292   -1.9589 H         1 <0>         0.4006
     52 H12         3.2325    5.8244    0.0011 H         1 <0>         0.1289
     53 H13         3.2911    3.3988   -0.0114 H         1 <0>         0.1312
     54 H14        -2.2396    3.6139    0.0415 H         1 <0>         0.1230
     55 H15        -2.1526    1.1775    0.0191 H         1 <0>         0.1255
     56 H16         0.0021   -0.0041    0.0020 H         1 <0>         0.1261
     57 H17         2.1026    1.2302   -0.0107 H         1 <0>         0.1303
     58 H18         2.0388    7.8341   -0.4112 H         1 <0>         0.0772
     59 H19         0.2643    7.8443   -0.5493 H         1 <0>         0.0811
     60 H20         0.0713    7.6156    1.9122 H         1 <0>         0.0794
     61 H21         1.8459    7.6054    2.0503 H         1 <0>         0.0718
     62 H22         0.0970    9.7226    3.4188 H         1 <0>         0.0706
     63 H23         1.8697    9.5666    3.4528 H         1 <0>         0.0723
     64 H24         2.0873   11.8187    2.4381 H         1 <0>         0.0765
     65 H25         0.3145   11.9746    2.4042 H         1 <0>         0.0866
     66 H26        -0.9216   12.4314    4.3781 H         1 <0>         0.1298
     67 H27        -0.9660   13.2394    6.6656 H         1 <0>         0.1315
     68 H28         0.2158   13.7537    8.7758 H         1 <0>         0.1303
     69 H29         2.2901   13.8064   10.0526 H         1 <0>         0.1260
     70 H30         4.4047   13.0553    9.0508 H         1 <0>         0.1253
     71 H31         4.4772   12.2387    6.7547 H         1 <0>         0.1228
     72 H32         3.4181    9.6580    5.0072 H         1 <0>         0.3999
     73 H33         6.4505   10.3977    5.5791 H         1 <0>         0.0542
     74 H34         7.3331   10.2420    4.0412 H         1 <0>         0.0648
     75 H35         6.2852   11.6522    4.3272 H         1 <0>         0.0782
     76 H36         4.5528    7.7869    3.7244 H         1 <0>         0.0624
     77 H37         6.3214    7.9848    3.6892 H         1 <0>         0.0751
     78 H38         5.4388    8.1405    5.2271 H         1 <0>         0.0624
     79 H39         5.0415   11.1558    2.2178 H         1 <0>         0.0783
     80 H40         6.0894    9.7456    1.9319 H         1 <0>         0.0641
     81 H41         4.3208    9.5477    1.9671 H         1 <0>         0.0547
     82 H42        -0.9907    9.7093    1.2291 H         1 <0>         0.3729
@<TRIPOS>BOND
     1    1    2 1
     2    1   42 1
     3    1   43 1
     4    1   44 1
     5    2    3 1
     6    2    4 1
     7    2    5 1
     8    3   45 1
     9    3   46 1
    10    3   47 1
    11    4   48 1
    12    4   49 1
    13    4   50 1
    14    5    6 am
    15    5   51 1
    16    6    7 2
    17    6    8 1
    18    8   13 ar
    19    8    9 ar
    20    9   10 ar
    21    9   18 1
    22   10   11 ar
    23   10   52 1
    24   11   12 ar
    25   11   53 1
    26   12   17 ar
    27   12   13 ar
    28   13   14 ar
    29   14   15 ar
    30   14   54 1
    31   15   16 ar
    32   15   55 1
    33   16   17 ar
    34   16   56 1
    35   17   57 1
    36   18   19 1
    37   18   58 1
    38   18   59 1
    39   19   20 1
    40   19   60 1
    41   19   61 1
    42   20   21 1
    43   20   22 1
    44   20   41 1
    45   22   23 1
    46   22   62 1
    47   22   63 1
    48   23   24 1
    49   23   64 1
    50   23   65 1
    51   24   33 ar
    52   24   25 ar
    53   25   26 ar
    54   25   66 1
    55   26   27 ar
    56   26   67 1
    57   27   32 ar
    58   27   28 ar
    59   28   29 ar
    60   28   68 1
    61   29   30 ar
    62   29   69 1
    63   30   31 ar
    64   30   70 1
    65   31   32 ar
    66   31   71 1
    67   32   33 ar
    68   33   34 1
    69   34   35 2
    70   34   36 am
    71   36   37 1
    72   36   72 1
    73   37   38 1
    74   37   39 1
    75   37   40 1
    76   38   73 1
    77   38   74 1
    78   38   75 1
    79   39   76 1
    80   39   77 1
    81   39   78 1
    82   40   79 1
    83   40   80 1
    84   40   81 1
    85   41   82 1
@<TRIPOS>MOLECULE
ZINC03833846
   86    89     0     0     0
SMALL
USER_CHARGES

@<TRIPOS>ATOM
      1 C1          3.6074    2.0185    6.0413 C.3       1 <0>        -0.1236
      2 C2          2.1623    2.4418    5.9806 C.ar      1 <0>        -0.0412
      3 C3          1.5224    2.5719    4.7476 C.ar      1 <0>        -0.1312
      4 C4          0.1857    2.9703    4.6993 C.ar      1 <0>        -0.0925
      5 C5         -0.5008    3.2233    5.8694 C.ar      1 <0>        -0.1170
      6 C6          0.1344    3.0936    7.0905 C.ar      1 <0>        -0.1089
      7 C7          1.4656    2.7032    7.1482 C.ar      1 <0>         0.0988
      8 O1          2.0853    2.5782    8.3513 O.3       1 <0>        -0.4902
      9 C8          2.2595    2.2944    3.4962 C.2       1 <0>         0.5675
     10 O2          3.4514    2.0586    3.5325 O.2       1 <0>        -0.4926
     11 N1          1.6099    2.3030    2.3154 N.am      1 <0>        -0.7246
     12 C9          2.3403    2.0281    1.0755 C.3       1 <0>         0.1436
     13 H1          3.3478    2.4375    1.1489 H         1 <0>         0.1211
     14 C10         2.4190    0.5162    0.8545 C.3       1 <0>        -0.1602
     15 S1          3.2847   -0.2547    2.2498 S.3       1 <0>        -0.0223
     16 C11         3.2929   -1.9709    1.8508 C.ar      1 <0>        -0.1153
     17 C12         2.7011   -2.4154    0.6745 C.ar      1 <0>        -0.1387
     18 C13         2.7145   -3.7604    0.3623 C.ar      1 <0>        -0.1006
     19 C14         3.3055   -4.6662    1.2243 C.ar      1 <0>        -0.1218
     20 C15         3.8908   -4.2281    2.3983 C.ar      1 <0>        -0.0961
     21 C16         3.8862   -2.8839    2.7143 C.ar      1 <0>        -0.0972
     22 C17         1.6101    2.6782   -0.1014 C.3       1 <0>         0.0853
     23 H2          1.4755    3.7415    0.0972 H         1 <0>         0.1411
     24 C18         2.4362    2.4980   -1.3765 C.3       1 <0>        -0.0591
     25 C19         1.8266    4.6732   -2.2471 C.3       1 <0>        -0.0047
     26 C20         1.2880    5.3991   -3.4839 C.3       1 <0>        -0.1059
     27 H3          1.3022    6.4753   -3.3116 H         1 <0>         0.1243
     28 C21         2.1625    5.0500   -4.6905 C.3       1 <0>        -0.1318
     29 C22         1.6168    5.7465   -5.9381 C.3       1 <0>        -0.1200
     30 C23         0.1849    5.2740   -6.1992 C.3       1 <0>        -0.1293
     31 C24        -0.6926    5.6270   -4.9967 C.3       1 <0>        -0.1156
     32 C25        -0.1487    4.9395   -3.7448 C.3       1 <0>        -0.0878
     33 H4         -0.7729    5.1977   -2.8893 H         1 <0>         0.0923
     34 C26        -0.1630    3.4217   -3.9413 C.3       1 <0>        -0.1374
     35 C27         0.4238    2.7478   -2.6985 C.3       1 <0>        -0.0039
     36 H5         -0.1871    2.9933   -1.8298 H         1 <0>         0.1866
     37 C28         0.4364    1.2539   -2.8964 C.2       1 <0>         0.5070
     38 O3          1.4619    0.6938   -3.2211 O.2       1 <0>        -0.5258
     39 N2         -0.6921    0.5403   -2.7127 N.am      1 <0>        -0.6940
     40 C29        -0.6799   -0.9120   -2.9051 C.3       1 <0>         0.1685
     41 C30         0.3204   -1.5464   -1.9367 C.3       1 <0>        -0.1714
     42 C31        -2.0772   -1.4739   -2.6356 C.3       1 <0>        -0.1624
     43 C32        -0.2702   -1.2323   -4.3440 C.3       1 <0>        -0.1681
     44 O4          0.3329    2.0598   -0.2699 O.3       1 <0>        -0.5507
     45 H6          4.2473    2.8882    5.8918 H         1 <0>         0.0753
     46 H7          3.8160    1.5771    7.0158 H         1 <0>         0.0684
     47 H8          3.8040    1.2842    5.2602 H         1 <0>         0.0981
     48 H9         -0.3123    3.0766    3.7469 H         1 <0>         0.1244
     49 H10        -1.5362    3.5279    5.8310 H         1 <0>         0.1350
     50 H11        -0.4067    3.2969    8.0027 H         1 <0>         0.1371
     51 H12         2.5142    3.3884    8.6589 H         1 <0>         0.3948
     52 H13         0.6588    2.4911    2.2864 H         1 <0>         0.4076
     53 H14         1.4114    0.1068    0.7811 H         1 <0>         0.0889
     54 H15         2.9624    0.3116   -0.0680 H         1 <0>         0.0955
     55 H16         2.2352   -1.7091    0.0033 H         1 <0>         0.1130
     56 H17         2.2587   -4.1060   -0.5537 H         1 <0>         0.1229
     57 H18         3.3103   -5.7181    0.9799 H         1 <0>         0.1269
     58 H19         4.3517   -4.9382    3.0689 H         1 <0>         0.1304
     59 H20         4.3435   -2.5426    3.6312 H         1 <0>         0.1273
     60 H21         3.4404    2.8910   -1.2174 H         1 <0>         0.1499
     61 H22         2.4958    1.4382   -1.6241 H         1 <0>         0.1511
     62 H23         1.2061    4.9154   -1.3843 H         1 <0>         0.1342
     63 H24         2.8525    4.9893   -2.0579 H         1 <0>         0.1365
     64 H25         3.1841    5.3826   -4.5067 H         1 <0>         0.0815
     65 H26         2.1546    3.9710   -4.8444 H         1 <0>         0.0560
     66 H27         2.2430    5.4996   -6.7954 H         1 <0>         0.0741
     67 H28         1.6210    6.8255   -5.7835 H         1 <0>         0.0741
     68 H29         0.1797    4.1943   -6.3487 H         1 <0>         0.0637
     69 H30        -0.2039    5.7668   -7.0903 H         1 <0>         0.0749
     70 H31        -1.7130    5.2909   -5.1810 H         1 <0>         0.0753
     71 H32        -0.6874    6.7070   -4.8489 H         1 <0>         0.0777
     72 H33        -1.1885    3.0833   -4.0891 H         1 <0>         0.1139
     73 H34         0.4357    3.1619   -4.8143 H         1 <0>         0.0977
     74 H35        -1.5123    0.9882   -2.4530 H         1 <0>         0.4104
     75 H36         0.0286   -1.3181   -0.9116 H         1 <0>         0.0563
     76 H37         0.3295   -2.6269   -2.0799 H         1 <0>         0.0783
     77 H38         1.3159   -1.1460   -2.1287 H         1 <0>         0.0758
     78 H39        -2.7899   -1.0219   -3.3255 H         1 <0>         0.0681
     79 H40        -2.0681   -2.5544   -2.7788 H         1 <0>         0.0840
     80 H41        -2.3691   -1.2457   -1.6105 H         1 <0>         0.0674
     81 H42         0.7253   -0.8320   -4.5360 H         1 <0>         0.0772
     82 H43        -0.2611   -2.3129   -4.4872 H         1 <0>         0.0738
     83 H44        -0.9828   -0.7804   -5.0339 H         1 <0>         0.0594
     84 H45         0.3762    1.1107   -0.4501 H         1 <0>         0.3866
     85 N3          1.8128    3.2174   -2.5062 N.4       1 <0>        -0.3711
     86 H46         2.3499    3.0263   -3.3602 H         1 <0>         0.4333
@<TRIPOS>BOND
     1    1    2 1
     2    1   45 1
     3    1   46 1
     4    1   47 1
     5    2    7 ar
     6    2    3 ar
     7    3    4 ar
     8    3    9 1
     9    4    5 ar
    10    4   48 1
    11    5    6 ar
    12    5   49 1
    13    6    7 ar
    14    6   50 1
    15    7    8 1
    16    8   51 1
    17    9   10 2
    18    9   11 am
    19   11   12 1
    20   11   52 1
    21   12   13 1
    22   12   14 1
    23   12   22 1
    24   14   15 1
    25   14   53 1
    26   14   54 1
    27   15   16 1
    28   16   21 ar
    29   16   17 ar
    30   17   18 ar
    31   17   55 1
    32   18   19 ar
    33   18   56 1
    34   19   20 ar
    35   19   57 1
    36   20   21 ar
    37   20   58 1
    38   21   59 1
    39   22   23 1
    40   22   24 1
    41   22   44 1
    42   24   60 1
    43   24   61 1
    44   24   85 1
    45   25   26 1
    46   25   62 1
    47   25   63 1
    48   25   85 1
    49   26   27 1
    50   26   32 1
    51   26   28 1
    52   28   29 1
    53   28   64 1
    54   28   65 1
    55   29   30 1
    56   29   66 1
    57   29   67 1
    58   30   31 1
    59   30   68 1
    60   30   69 1
    61   31   32 1
    62   31   70 1
    63   31   71 1
    64   32   33 1
    65   32   34 1
    66   34   35 1
    67   34   72 1
    68   34   73 1
    69   35   36 1
    70   35   37 1
    71   35   85 1
    72   37   38 2
    73   37   39 am
    74   39   40 1
    75   39   74 1
    76   40   41 1
    77   40   42 1
    78   40   43 1
    79   41   75 1
    80   41   76 1
    81   41   77 1
    82   42   78 1
    83   42   79 1
    84   42   80 1
    85   43   81 1
    86   43   82 1
    87   43   83 1
    88   44   84 1
    89   85   86 1
@<TRIPOS>MOLECULE
ZINC03833847
   76    78     0     0     0
SMALL
USER_CHARGES

@<TRIPOS>ATOM
      1 C1         -1.8523   -2.8298   -5.5020 C.3       1 <0>        -0.1628
      2 C2         -0.3571   -3.0368   -5.2519 C.3       1 <0>         0.1704
      3 C3          0.0423   -4.4481   -5.6875 C.3       1 <0>        -0.1573
      4 C4         -0.0601   -2.8599   -3.7615 C.3       1 <0>        -0.1604
      5 N1          0.4077   -2.0531   -6.0224 N.am      1 <0>        -0.7214
      6 C5          0.2209   -0.7358   -5.8072 C.2       1 <0>         0.5609
      7 O1         -0.5822   -0.3640   -4.9739 O.2       1 <0>        -0.5183
      8 C6          0.9927    0.2569   -6.5848 C.ar      1 <0>        -0.1404
      9 C7          1.8305   -0.1613   -7.6201 C.ar      1 <0>        -0.0852
     10 C8          2.5475    0.7701   -8.3419 C.ar      1 <0>        -0.1342
     11 C9          2.4376    2.1165   -8.0418 C.ar      1 <0>        -0.0899
     12 C10         1.6048    2.5381   -7.0208 C.ar      1 <0>        -0.1287
     13 C11         0.8865    1.6163   -6.2872 C.ar      1 <0>        -0.0181
     14 C12        -0.0155    2.0768   -5.1713 C.3       1 <0>        -0.0859
     15 C13         0.6794    1.8497   -3.8272 C.3       1 <0>        -0.1305
     16 C14        -0.2364    2.3173   -2.6942 C.3       1 <0>         0.1137
     17 H1         -1.2004    1.8151   -2.7754 H         1 <0>         0.1006
     18 C15         0.4042    1.9767   -1.3472 C.3       1 <0>        -0.1441
     19 C16        -0.5631    2.3350   -0.2173 C.3       1 <0>        -0.0837
     20 C17         0.1113    2.1105    1.1116 C.ar      1 <0>        -0.0352
     21 C18         0.7517    3.1670    1.7456 C.ar      1 <0>        -0.1166
     22 C19         1.3696    3.0142    2.9484 C.ar      1 <0>        -0.0849
     23 C20         1.3889    1.7643    3.5903 C.ar      1 <0>        -0.0578
     24 C21         2.0274    1.5890    4.8301 C.ar      1 <0>        -0.1002
     25 C22         2.0253    0.3624    5.4209 C.ar      1 <0>        -0.1184
     26 C23         1.3988   -0.7245    4.8155 C.ar      1 <0>        -0.1062
     27 C24         0.7710   -0.5903    3.6131 C.ar      1 <0>        -0.1088
     28 C25         0.7533    0.6570    2.9773 C.ar      1 <0>        -0.0180
     29 C26         0.0918    0.8478    1.6884 C.ar      1 <0>        -0.1239
     30 C27        -0.5828   -0.2772    1.0148 C.2       1 <0>         0.5762
     31 O2          0.0564   -1.0370    0.3127 O.2       1 <0>        -0.5190
     32 N2         -1.9077   -0.4633    1.1772 N.am      1 <0>        -0.7182
     33 C28        -2.5580   -1.6422    0.5996 C.3       1 <0>         0.1684
     34 C29        -1.9233   -2.9090    1.1768 C.3       1 <0>        -0.1641
     35 C30        -4.0498   -1.6191    0.9386 C.3       1 <0>        -0.1566
     36 C31        -2.3801   -1.6295   -0.9200 C.3       1 <0>        -0.1606
     37 O3         -0.4262    3.7306   -2.7876 O.3       1 <0>        -0.5616
     38 H2         -2.0639   -2.9559   -6.5638 H         1 <0>         0.0519
     39 H3         -2.4213   -3.5618   -4.9287 H         1 <0>         0.0624
     40 H4         -2.1368   -1.8244   -5.1916 H         1 <0>         0.0795
     41 H5          1.1074   -4.5955   -5.5093 H         1 <0>         0.0616
     42 H6         -0.5268   -5.1800   -5.1143 H         1 <0>         0.0746
     43 H7         -0.1693   -4.5741   -6.7493 H         1 <0>         0.0611
     44 H8         -0.3446   -1.8545   -3.4511 H         1 <0>         0.0816
     45 H9         -0.6291   -3.5918   -3.1882 H         1 <0>         0.0619
     46 H10         1.0051   -3.0074   -3.5833 H         1 <0>         0.0517
     47 H11         1.0485   -2.3499   -6.6873 H         1 <0>         0.3963
     48 H12         1.9168   -1.2118   -7.8556 H         1 <0>         0.1233
     49 H13         3.1958    0.4479   -9.1434 H         1 <0>         0.1276
     50 H14         3.0009    2.8417   -8.6102 H         1 <0>         0.1269
     51 H15         1.5201    3.5907   -6.7944 H         1 <0>         0.1287
     52 H16        -0.9464    1.5105   -5.1993 H         1 <0>         0.1056
     53 H17        -0.2321    3.1381   -5.2936 H         1 <0>         0.0684
     54 H18         1.6103    2.4161   -3.7992 H         1 <0>         0.0552
     55 H19         0.8959    0.7885   -3.7049 H         1 <0>         0.0770
     56 H20         0.6272    0.9104   -1.3101 H         1 <0>         0.0797
     57 H21         1.3268    2.5452   -1.2295 H         1 <0>         0.0647
     58 H22        -0.8528    3.3821   -0.3053 H         1 <0>         0.0861
     59 H23        -1.4504    1.7056   -0.2853 H         1 <0>         0.0718
     60 H24         0.7562    4.1380    1.2728 H         1 <0>         0.1288
     61 H25         1.8534    3.8610    3.4124 H         1 <0>         0.1305
     62 H26         2.5173    2.4226    5.3113 H         1 <0>         0.1301
     63 H27         2.5166    0.2301    6.3735 H         1 <0>         0.1256
     64 H28         1.4109   -1.6869    5.3055 H         1 <0>         0.1252
     65 H29         0.2891   -1.4409    3.1541 H         1 <0>         0.1231
     66 H30        -2.4307    0.1832    1.6766 H         1 <0>         0.4000
     67 H31        -2.0500   -2.9180    2.2594 H         1 <0>         0.0537
     68 H32        -2.4072   -3.7861    0.7470 H         1 <0>         0.0650
     69 H33        -0.8605   -2.9254    0.9352 H         1 <0>         0.0751
     70 H34        -4.5020   -0.7166    0.5274 H         1 <0>         0.0629
     71 H35        -4.5337   -2.4962    0.5088 H         1 <0>         0.0745
     72 H36        -4.1765   -1.6282    2.0212 H         1 <0>         0.0616
     73 H37        -1.3259   -1.7611   -1.1635 H         1 <0>         0.0815
     74 H38        -2.9588   -2.4415   -1.3604 H         1 <0>         0.0605
     75 H39        -2.7290   -0.6769   -1.3187 H         1 <0>         0.0546
     76 H40         0.3968    4.2381   -2.7988 H         1 <0>         0.3704
@<TRIPOS>BOND
     1    1    2 1
     2    1   38 1
     3    1   39 1
     4    1   40 1
     5    2    3 1
     6    2    4 1
     7    2    5 1
     8    3   41 1
     9    3   42 1
    10    3   43 1
    11    4   44 1
    12    4   45 1
    13    4   46 1
    14    5    6 am
    15    5   47 1
    16    6    7 2
    17    6    8 1
    18    8   13 ar
    19    8    9 ar
    20    9   10 ar
    21    9   48 1
    22   10   11 ar
    23   10   49 1
    24   11   12 ar
    25   11   50 1
    26   12   13 ar
    27   12   51 1
    28   13   14 1
    29   14   15 1
    30   14   52 1
    31   14   53 1
    32   15   16 1
    33   15   54 1
    34   15   55 1
    35   16   17 1
    36   16   18 1
    37   16   37 1
    38   18   19 1
    39   18   56 1
    40   18   57 1
    41   19   20 1
    42   19   58 1
    43   19   59 1
    44   20   29 ar
    45   20   21 ar
    46   21   22 ar
    47   21   60 1
    48   22   23 ar
    49   22   61 1
    50   23   28 ar
    51   23   24 ar
    52   24   25 ar
    53   24   62 1
    54   25   26 ar
    55   25   63 1
    56   26   27 ar
    57   26   64 1
    58   27   28 ar
    59   27   65 1
    60   28   29 ar
    61   29   30 1
    62   30   31 2
    63   30   32 am
    64   32   33 1
    65   32   66 1
    66   33   34 1
    67   33   35 1
    68   33   36 1
    69   34   67 1
    70   34   68 1
    71   34   69 1
    72   35   70 1
    73   35   71 1
    74   35   72 1
    75   36   73 1
    76   36   74 1
    77   36   75 1
    78   37   76 1
@<TRIPOS>MOLECULE
ZINC03833848
   48    50     0     0     0
SMALL
USER_CHARGES

@<TRIPOS>ATOM
      1 C1         -4.4141    0.8964   12.6219 C.3       1 <0>        -0.1197
      2 C2         -3.5839    1.9279   11.9023 C.ar      1 <0>        -0.0877
      3 C3         -2.9956    2.9591   12.6135 C.ar      1 <0>        -0.0868
      4 C4         -2.2310    3.9100   11.9611 C.ar      1 <0>        -0.1179
      5 C5         -2.0465    3.8335   10.5962 C.ar      1 <0>        -0.0811
      6 C6         -2.6415    2.7986    9.8714 C.ar      1 <0>        -0.0824
      7 C7         -3.4118    1.8418   10.5367 C.ar      1 <0>        -0.0725
      8 C8         -2.4524    2.7128    8.4097 C.2       1 <0>         0.2436
      9 C9         -1.6990    3.6527    7.7755 C.2       1 <0>        -0.2845
     10 C10        -1.5145    3.5766    6.3837 C.2       1 <0>         0.3023
     11 C11        -2.1116    2.5343    5.6863 C.2       1 <0>        -0.3739
     12 C12        -2.8837    1.5958    6.3940 C.2       1 <0>         0.5200
     13 O1         -3.4205    0.6763    5.7982 O.2       1 <0>        -0.4444
     14 O2         -3.0272    1.7063    7.7257 O.3       1 <0>        -0.2600
     15 S1         -1.9107    2.3943    3.9413 S.3       1 <0>         0.0887
     16 C13        -0.4665    1.4020    3.7567 C.ar      1 <0>        -0.0968
     17 C14         0.2090    0.9387    4.8801 C.ar      1 <0>        -0.1166
     18 C15         1.3399    0.1611    4.7315 C.ar      1 <0>        -0.1079
     19 C16         1.8012   -0.1573    3.4668 C.ar      1 <0>        -0.1212
     20 C17         1.1290    0.2974    2.3470 C.ar      1 <0>        -0.1050
     21 C18         0.0000    1.0800    2.4877 C.ar      1 <0>        -0.0519
     22 C19        -0.7288    1.5792    1.2668 C.3       1 <0>        -0.0333
     23 C20        -0.0127    1.0858    0.0080 C.3       1 <0>        -0.1425
     24 C21        -0.7496    3.1091    1.2752 C.3       1 <0>        -0.1492
     25 C22        -2.1642    1.0497    1.2777 C.3       1 <0>        -0.1530
     26 O3         -0.7678    4.5038    5.7343 O.3       1 <0>        -0.4739
     27 H1         -3.7752    0.0715   12.9374 H         1 <0>         0.0762
     28 H2         -4.8797    1.3505   13.4966 H         1 <0>         0.0720
     29 H3         -5.1878    0.5210   11.9521 H         1 <0>         0.0715
     30 H4         -3.1336    3.0217   13.6828 H         1 <0>         0.1325
     31 H5         -1.7742    4.7117   12.5224 H         1 <0>         0.1366
     32 H6         -1.4461    4.5741   10.0888 H         1 <0>         0.1357
     33 H7         -3.8718    1.0367    9.9828 H         1 <0>         0.1376
     34 H8         -1.2450    4.4542    8.3394 H         1 <0>         0.1693
     35 H9         -0.1504    1.1872    5.8678 H         1 <0>         0.1099
     36 H10         1.8650   -0.1994    5.6037 H         1 <0>         0.1219
     37 H11         2.6861   -0.7661    3.3537 H         1 <0>         0.1242
     38 H12         1.4897    0.0434    1.3613 H         1 <0>         0.1322
     39 H13         0.0021   -0.0041    0.0020 H         1 <0>         0.0593
     40 H14         1.0099    1.4631    0.0003 H         1 <0>         0.0590
     41 H15        -0.5399    1.4469   -0.8751 H         1 <0>         0.0608
     42 H16        -1.2768    3.4701    0.3922 H         1 <0>         0.0626
     43 H17        -1.2598    3.4606    2.1720 H         1 <0>         0.0731
     44 H18         0.2730    3.4864    1.2675 H         1 <0>         0.0585
     45 H19        -2.1494   -0.0402    1.2717 H         1 <0>         0.0587
     46 H20        -2.6744    1.4012    2.1745 H         1 <0>         0.0769
     47 H21        -2.6914    1.4107    0.3946 H         1 <0>         0.0622
     48 H22        -1.2725    5.2679    5.4235 H         1 <0>         0.4167
@<TRIPOS>BOND
     1    1    2 1
     2    1   27 1
     3    1   28 1
     4    1   29 1
     5    2    7 ar
     6    2    3 ar
     7    3    4 ar
     8    3   30 1
     9    4    5 ar
    10    4   31 1
    11    5    6 ar
    12    5   32 1
    13    6    7 ar
    14    6    8 1
    15    7   33 1
    16    8   14 1
    17    8    9 2
    18    9   10 1
    19    9   34 1
    20   10   11 2
    21   10   26 1
    22   11   12 1
    23   11   15 1
    24   12   13 2
    25   12   14 1
    26   15   16 1
    27   16   21 ar
    28   16   17 ar
    29   17   18 ar
    30   17   35 1
    31   18   19 ar
    32   18   36 1
    33   19   20 ar
    34   19   37 1
    35   20   21 ar
    36   20   38 1
    37   21   22 1
    38   22   23 1
    39   22   24 1
    40   22   25 1
    41   23   39 1
    42   23   40 1
    43   23   41 1
    44   24   42 1
    45   24   43 1
    46   24   44 1
    47   25   45 1
    48   25   46 1
    49   25   47 1
    50   26   48 1
@<TRIPOS>MOLECULE
ZINC03833849
   70    71     0     0     0
SMALL
USER_CHARGES

@<TRIPOS>ATOM
      1 C1         -1.7802   -1.6870    4.8329 C.3       1 <0>        -0.1643
      2 C2         -0.4400   -2.3314    4.4730 C.3       1 <0>         0.1708
      3 C3         -0.0912   -3.3978    5.5132 C.3       1 <0>        -0.1575
      4 C4          0.6523   -1.2602    4.4547 C.3       1 <0>        -0.1628
      5 N1         -0.5366   -2.9530    3.1499 N.am      1 <0>        -0.7230
      6 C5         -0.8361   -2.2009    2.0724 C.2       1 <0>         0.5596
      7 O1         -1.0260   -1.0069    2.1983 O.2       1 <0>        -0.5132
      8 C6         -0.9336   -2.8282    0.7371 C.ar      1 <0>        -0.1413
      9 C7         -0.8313   -4.2141    0.6045 C.ar      1 <0>        -0.0857
     10 C8         -0.9236   -4.7930   -0.6441 C.ar      1 <0>        -0.1356
     11 C9         -1.1171   -4.0032   -1.7637 C.ar      1 <0>        -0.0896
     12 C10        -1.2245   -2.6297   -1.6387 C.ar      1 <0>        -0.1295
     13 C11        -1.1287   -2.0374   -0.3961 C.ar      1 <0>        -0.0158
     14 C12        -1.2408   -0.5406   -0.2623 C.3       1 <0>        -0.0868
     15 C13         0.1553    0.0623   -0.0937 C.3       1 <0>        -0.1291
     16 C14         0.0415    1.5820    0.0422 C.3       1 <0>         0.1163
     17 C15         1.4421    2.1964    0.0856 C.3       1 <0>        -0.1279
     18 C16         1.3295    3.7223    0.0957 C.3       1 <0>        -0.0837
     19 C17         2.7090    4.3274    0.1385 C.ar      1 <0>        -0.0164
     20 C18         3.2500    4.7310    1.3419 C.ar      1 <0>        -0.1283
     21 C19         4.5181    5.2824    1.3834 C.ar      1 <0>        -0.0896
     22 C20         5.2480    5.4426    0.2188 C.ar      1 <0>        -0.1351
     23 C21         4.7168    5.0481   -0.9915 C.ar      1 <0>        -0.0854
     24 C22         3.4398    4.4862   -1.0398 C.ar      1 <0>        -0.1415
     25 C23         2.8640    4.0616   -2.3336 C.2       1 <0>         0.5600
     26 O2          1.7948    3.4840   -2.3627 O.2       1 <0>        -0.5180
     27 N2          3.5245    4.3149   -3.4808 N.am      1 <0>        -0.7223
     28 C24         2.9539    3.8941   -4.7628 C.3       1 <0>         0.1702
     29 C25         1.5950    4.5684   -4.9621 C.3       1 <0>        -0.1642
     30 C26         3.8959    4.2999   -5.8981 C.3       1 <0>        -0.1572
     31 C27         2.7748    2.3747   -4.7672 C.3       1 <0>        -0.1637
     32 O3         -0.6564    1.9016    1.2475 O.3       1 <0>        -0.5544
     33 H1         -2.5584   -2.4502    4.8459 H         1 <0>         0.0523
     34 H2         -1.7083   -1.2246    5.8173 H         1 <0>         0.0625
     35 H3         -2.0287   -0.9273    4.0918 H         1 <0>         0.0817
     36 H4          0.8636   -3.8568    5.2569 H         1 <0>         0.0612
     37 H5         -0.0193   -2.9353    6.4976 H         1 <0>         0.0746
     38 H6         -0.8694   -4.1609    5.5263 H         1 <0>         0.0616
     39 H7          0.4038   -0.5005    3.7137 H         1 <0>         0.0795
     40 H8          0.7242   -0.7978    5.4392 H         1 <0>         0.0628
     41 H9          1.6071   -1.7193    4.1984 H         1 <0>         0.0519
     42 H10        -0.3850   -3.9058    3.0495 H         1 <0>         0.3962
     43 H11        -0.6806   -4.8316    1.4776 H         1 <0>         0.1227
     44 H12        -0.8450   -5.8651   -0.7480 H         1 <0>         0.1270
     45 H13        -1.1887   -4.4614   -2.7391 H         1 <0>         0.1265
     46 H14        -1.3796   -2.0192   -2.5160 H         1 <0>         0.1284
     47 H15        -1.8489   -0.2982    0.6092 H         1 <0>         0.1138
     48 H16        -1.7083   -0.1298   -1.1572 H         1 <0>         0.0608
     49 H17         0.7634   -0.1801   -0.9652 H         1 <0>         0.0583
     50 H18         0.6228   -0.3485    0.8012 H         1 <0>         0.0670
     51 H19        -0.5049    1.9832   -0.8114 H         1 <0>         0.0962
     52 H20         1.9569    1.8641    0.9870 H         1 <0>         0.0522
     53 H21         2.0052    1.8795   -0.7922 H         1 <0>         0.0746
     54 H22         0.8147    4.0546   -0.8058 H         1 <0>         0.1008
     55 H23         0.7664    4.0392    0.9735 H         1 <0>         0.0690
     56 H24         2.6838    4.6125    2.2539 H         1 <0>         0.1289
     57 H25         4.9386    5.5929    2.3285 H         1 <0>         0.1267
     58 H26         6.2357    5.8778    0.2575 H         1 <0>         0.1273
     59 H27         5.2874    5.1740   -1.8998 H         1 <0>         0.1229
     60 H28         4.3777    4.7758   -3.4576 H         1 <0>         0.3968
     61 H29         1.7226    5.6509   -4.9589 H         1 <0>         0.0531
     62 H30         1.1704    4.2553   -5.9159 H         1 <0>         0.0630
     63 H31         0.9239    4.2793   -4.1533 H         1 <0>         0.0799
     64 H32         4.8640    3.8195   -5.7561 H         1 <0>         0.0616
     65 H33         3.4713    3.9868   -6.8519 H         1 <0>         0.0749
     66 H34         4.0235    5.3824   -5.8949 H         1 <0>         0.0619
     67 H35         2.1037    2.0856   -3.9584 H         1 <0>         0.0799
     68 H36         2.3502    2.0616   -5.7210 H         1 <0>         0.0628
     69 H37         3.7429    1.8943   -4.6252 H         1 <0>         0.0525
     70 H38        -0.2262    1.5748    2.0495 H         1 <0>         0.3715
@<TRIPOS>BOND
     1    1    2 1
     2    1   33 1
     3    1   34 1
     4    1   35 1
     5    2    3 1
     6    2    4 1
     7    2    5 1
     8    3   36 1
     9    3   37 1
    10    3   38 1
    11    4   39 1
    12    4   40 1
    13    4   41 1
    14    5    6 am
    15    5   42 1
    16    6    7 2
    17    6    8 1
    18    8   13 ar
    19    8    9 ar
    20    9   10 ar
    21    9   43 1
    22   10   11 ar
    23   10   44 1
    24   11   12 ar
    25   11   45 1
    26   12   13 ar
    27   12   46 1
    28   13   14 1
    29   14   15 1
    30   14   47 1
    31   14   48 1
    32   15   16 1
    33   15   49 1
    34   15   50 1
    35   16   17 1
    36   16   32 1
    37   16   51 1
    38   17   18 1
    39   17   52 1
    40   17   53 1
    41   18   19 1
    42   18   54 1
    43   18   55 1
    44   19   24 ar
    45   19   20 ar
    46   20   21 ar
    47   20   56 1
    48   21   22 ar
    49   21   57 1
    50   22   23 ar
    51   22   58 1
    52   23   24 ar
    53   23   59 1
    54   24   25 1
    55   25   26 2
    56   25   27 am
    57   27   28 1
    58   27   60 1
    59   28   29 1
    60   28   30 1
    61   28   31 1
    62   29   61 1
    63   29   62 1
    64   29   63 1
    65   30   64 1
    66   30   65 1
    67   30   66 1
    68   31   67 1
    69   31   68 1
    70   31   69 1
    71   32   70 1
@<TRIPOS>MOLECULE
ZINC03833850
   69    72     0     0     0
SMALL
USER_CHARGES

@<TRIPOS>ATOM
      1 C1          7.0822    2.7479    2.6196 C.3       1 <0>        -0.1848
      2 C2          6.5030    4.0711    3.1240 C.3       1 <0>         0.1369
      3 C3          7.5603    5.1703    3.0012 C.3       1 <0>        -0.1415
      4 C4          6.0906    3.9216    4.5897 C.3       1 <0>        -0.1848
      5 O1          5.3415    4.4258    2.3281 O.3       1 <0>        -0.3652
      6 C5          4.3126    3.5574    2.3276 C.2       1 <0>         0.6502
      7 O2          4.3833    2.5313    2.9745 O.2       1 <0>        -0.5606
      8 N1          3.2042    3.8263    1.6095 N.am      1 <0>        -0.7151
      9 C6          2.0847    2.8814    1.6089 C.3       1 <0>         0.1516
     10 C7          0.9616    3.4219    0.7216 C.3       1 <0>        -0.1534
     11 C8         -0.1901    2.4500    0.7210 C.2       1 <0>         0.5181
     12 O3         -0.1195    1.4257    1.3668 O.2       1 <0>        -0.5094
     13 N2         -1.2962    2.7162   -0.0014 N.am      1 <0>        -0.6729
     14 C9         -2.3201    1.7665   -0.0890 C.ar      1 <0>         0.1372
     15 C10        -2.0139    0.4118   -0.0971 C.ar      1 <0>        -0.1167
     16 C11        -3.0270   -0.5231   -0.1783 C.ar      1 <0>        -0.1037
     17 C12        -4.3447   -0.1114   -0.2626 C.ar      1 <0>        -0.0938
     18 C13        -4.6524    1.2365   -0.2604 C.ar      1 <0>        -0.0634
     19 C14        -3.6440    2.1765   -0.1737 C.ar      1 <0>        -0.1414
     20 C15        -6.0895    1.6806   -0.3524 C.3       1 <0>         0.0537
     21 H1         -6.2036    2.6465    0.1397 H         1 <0>         0.0987
     22 C16        -6.4851    1.8052   -1.8012 C.2       1 <0>        -0.2409
     23 C17        -6.8016    3.0300   -2.3240 C.2       1 <0>         0.2329
     24 C18        -7.1766    3.0989   -3.7433 C.ar      1 <0>        -0.2124
     25 C19        -7.5076    4.3174   -4.3426 C.ar      1 <0>        -0.0050
     26 C20        -7.8571    4.3519   -5.6620 C.ar      1 <0>        -0.2278
     27 C21        -7.8857    3.1799   -6.4145 C.ar      1 <0>         0.1916
     28 C22        -7.5608    1.9641   -5.8355 C.ar      1 <0>        -0.1771
     29 C23        -7.2037    1.9125   -4.4964 C.ar      1 <0>         0.1992
     30 O4         -6.8837    0.7377   -3.9122 O.3       1 <0>        -0.2690
     31 C24        -6.5358    0.6664   -2.6171 C.2       1 <0>         0.5241
     32 O5         -6.2560   -0.4187   -2.1377 O.2       1 <0>        -0.4431
     33 O6         -8.2352    3.2295   -7.7254 O.3       1 <0>        -0.3049
     34 C25        -8.5588    4.5137   -8.2623 C.3       1 <0>         0.0225
     35 O7         -6.7664    4.1444   -1.5581 O.3       1 <0>        -0.4745
     36 C26        -6.9870    0.6492    0.3344 C.3       1 <0>        -0.1496
     37 C27        -7.9800    1.1613    1.3796 C.3       1 <0>        -0.1785
     38 C28        -6.7421    0.3774    1.8200 C.3       1 <0>        -0.1682
     39 H2          7.3760    2.8544    1.5753 H         1 <0>         0.0599
     40 H3          7.9541    2.4816    3.2170 H         1 <0>         0.0721
     41 H4          6.3290    1.9648    2.7070 H         1 <0>         0.0874
     42 H5          7.1477    6.1130    3.3606 H         1 <0>         0.0669
     43 H6          8.4322    4.9041    3.5987 H         1 <0>         0.0821
     44 H7          7.8541    5.2768    1.9570 H         1 <0>         0.0669
     45 H8          5.3374    3.1386    4.6771 H         1 <0>         0.0874
     46 H9          6.9625    3.6554    5.1872 H         1 <0>         0.0721
     47 H10         5.6780    4.8643    4.9490 H         1 <0>         0.0598
     48 H11         3.1478    4.6455    1.0931 H         1 <0>         0.4056
     49 H12         1.7150    2.7555    2.6266 H         1 <0>         0.0822
     50 H13         2.4215    1.9193    1.2230 H         1 <0>         0.0821
     51 H14         1.3312    3.5479   -0.2960 H         1 <0>         0.1078
     52 H15         0.6248    4.3841    1.1075 H         1 <0>         0.1068
     53 H16        -1.3826    3.5662   -0.4607 H         1 <0>         0.4099
     54 H17        -0.9848    0.0898   -0.0358 H         1 <0>         0.1316
     55 H18        -2.7899   -1.5767   -0.1802 H         1 <0>         0.1260
     56 H19        -5.1349   -0.8444   -0.3305 H         1 <0>         0.1381
     57 H20        -3.8850    3.2293   -0.1721 H         1 <0>         0.1193
     58 H21        -7.4874    5.2289   -3.7637 H         1 <0>         0.1457
     59 H22        -8.1126    5.2935   -6.1252 H         1 <0>         0.1433
     60 H23        -7.5852    1.0595   -6.4250 H         1 <0>         0.1554
     61 H24        -8.8194    4.4118   -9.3158 H         1 <0>         0.1081
     62 H25        -9.4050    4.9325   -7.7176 H         1 <0>         0.0625
     63 H26        -7.6990    5.1762   -8.1631 H         1 <0>         0.0622
     64 H27        -5.9098    4.5931   -1.5558 H         1 <0>         0.4056
     65 H28        -7.2979   -0.1911   -0.2864 H         1 <0>         0.1180
     66 H29        -7.9940    2.2330    1.5780 H         1 <0>         0.0937
     67 H30        -8.9446    0.6580    1.4465 H         1 <0>         0.0937
     68 H31        -6.8923   -0.6416    2.1766 H         1 <0>         0.0954
     69 H32        -5.9414    0.9331    2.3080 H         1 <0>         0.0941
@<TRIPOS>BOND
     1    1    2 1
     2    1   39 1
     3    1   40 1
     4    1   41 1
     5    2    3 1
     6    2    4 1
     7    2    5 1
     8    3   42 1
     9    3   43 1
    10    3   44 1
    11    4   45 1
    12    4   46 1
    13    4   47 1
    14    5    6 1
    15    6    7 2
    16    6    8 am
    17    8    9 1
    18    8   48 1
    19    9   10 1
    20    9   49 1
    21    9   50 1
    22   10   11 1
    23   10   51 1
    24   10   52 1
    25   11   12 2
    26   11   13 am
    27   13   14 1
    28   13   53 1
    29   14   19 ar
    30   14   15 ar
    31   15   16 ar
    32   15   54 1
    33   16   17 ar
    34   16   55 1
    35   17   18 ar
    36   17   56 1
    37   18   19 ar
    38   18   20 1
    39   19   57 1
    40   20   21 1
    41   20   22 1
    42   20   36 1
    43   22   31 1
    44   22   23 2
    45   23   24 1
    46   23   35 1
    47   24   29 ar
    48   24   25 ar
    49   25   26 ar
    50   25   58 1
    51   26   27 ar
    52   26   59 1
    53   27   28 ar
    54   27   33 1
    55   28   29 ar
    56   28   60 1
    57   29   30 1
    58   30   31 1
    59   31   32 2
    60   33   34 1
    61   34   61 1
    62   34   62 1
    63   34   63 1
    64   35   64 1
    65   36   38 1
    66   36   37 1
    67   36   65 1
    68   37   38 1
    69   37   66 1
    70   37   67 1
    71   38   68 1
    72   38   69 1
@<TRIPOS>MOLECULE
ZINC03833851
   53    55     0     0     0
SMALL
USER_CHARGES

@<TRIPOS>ATOM
      1 C1          5.0241   -3.1325   -6.9460 C.3       1 <0>        -0.1554
      2 C2          4.1854   -2.8320   -5.7022 C.3       1 <0>        -0.1219
      3 C3          3.6049   -4.1361   -5.1513 C.3       1 <0>        -0.0359
      4 H1          3.0604   -4.6536   -5.9410 H         1 <0>         0.1109
      5 C4          4.7417   -5.0274   -4.6470 C.3       1 <0>        -0.0807
      6 C5          4.1813   -6.3553   -4.2070 C.ar      1 <0>        -0.0898
      7 C6          3.7691   -6.5325   -2.8995 C.ar      1 <0>        -0.1135
      8 C7          3.2506   -7.7491   -2.4970 C.ar      1 <0>        -0.1144
      9 C8          3.1540   -8.7918   -3.3994 C.ar      1 <0>        -0.1196
     10 C9          3.5711   -8.6162   -4.7056 C.ar      1 <0>        -0.1172
     11 C10         4.0847   -7.3980   -5.1094 C.ar      1 <0>        -0.1148
     12 C11         2.6664   -3.8270   -4.0134 C.2       1 <0>         0.1676
     13 C12         1.3751   -4.1973   -4.1021 C.2       1 <0>        -0.2657
     14 C13         0.4898   -3.9156   -3.0377 C.2       1 <0>         0.2291
     15 C14         0.9770   -3.2516   -1.9266 C.2       1 <0>        -0.2624
     16 C15         2.3302   -2.8931   -1.8931 C.2       1 <0>         0.5090
     17 O1          2.7820   -2.3112   -0.9206 O.2       1 <0>        -0.4603
     18 O2          3.1324   -3.1884   -2.9304 O.3       1 <0>        -0.2586
     19 C16         0.0686   -2.9249   -0.7693 C.3       1 <0>         0.0226
     20 H2         -0.9075   -3.3814   -0.9335 H         1 <0>         0.0947
     21 C17         0.6754   -3.4702    0.5250 C.3       1 <0>        -0.1239
     22 C18        -0.3035   -3.2492    1.6799 C.3       1 <0>        -0.1502
     23 C19        -0.0879   -1.4301   -0.6600 C.ar      1 <0>        -0.0788
     24 C20         0.8652   -0.6822    0.0058 C.ar      1 <0>        -0.0969
     25 C21         0.7217    0.6890    0.1061 C.ar      1 <0>        -0.1236
     26 C22        -0.3747    1.3124   -0.4598 C.ar      1 <0>        -0.1221
     27 C23        -1.3278    0.5645   -1.1255 C.ar      1 <0>        -0.1250
     28 C24        -1.1843   -0.8067   -1.2258 C.ar      1 <0>        -0.1193
     29 O3         -0.8110   -4.2846   -3.1059 O.3       1 <0>        -0.4821
     30 H3          5.8108   -3.8425   -6.6910 H         1 <0>         0.0615
     31 H4          4.3862   -3.5595   -7.7199 H         1 <0>         0.0579
     32 H5          5.4727   -2.2095   -7.3134 H         1 <0>         0.0619
     33 H6          3.3726   -2.1557   -5.9667 H         1 <0>         0.0702
     34 H7          4.8142   -2.3654   -4.9440 H         1 <0>         0.0763
     35 H8          5.4628   -5.1851   -5.4490 H         1 <0>         0.0930
     36 H9          5.2357   -4.5442   -3.8041 H         1 <0>         0.0845
     37 H10         3.8487   -5.7192   -2.1933 H         1 <0>         0.1142
     38 H11         2.9251   -7.8863   -1.4764 H         1 <0>         0.1208
     39 H12         2.7531   -9.7436   -3.0839 H         1 <0>         0.1218
     40 H13         3.4960   -9.4310   -5.4106 H         1 <0>         0.1227
     41 H14         4.4109   -7.2610   -6.1298 H         1 <0>         0.1227
     42 H15         1.0181   -4.7115   -4.9821 H         1 <0>         0.1580
     43 H16         0.8709   -4.5368    0.4135 H         1 <0>         0.0608
     44 H17         1.6096   -2.9497    0.7358 H         1 <0>         0.0862
     45 H18        -0.4990   -2.1827    1.7914 H         1 <0>         0.0573
     46 H19        -1.2377   -3.7697    1.4691 H         1 <0>         0.0521
     47 H20         0.1288   -3.6377    2.6020 H         1 <0>         0.0554
     48 H21         1.7218   -1.1693    0.4478 H         1 <0>         0.1400
     49 H22         1.4638    1.2727    0.6304 H         1 <0>         0.1202
     50 H23        -0.4870    2.3837   -0.3811 H         1 <0>         0.1191
     51 H24        -2.1842    1.0516   -1.5679 H         1 <0>         0.1196
     52 H25        -1.9286   -1.3909   -1.7466 H         1 <0>         0.1161
     53 H26        -1.3889   -3.6174   -3.5008 H         1 <0>         0.4058
@<TRIPOS>BOND
     1    1    2 1
     2    1   30 1
     3    1   31 1
     4    1   32 1
     5    2    3 1
     6    2   33 1
     7    2   34 1
     8    3    4 1
     9    3    5 1
    10    3   12 1
    11    5    6 1
    12    5   35 1
    13    5   36 1
    14    6   11 ar
    15    6    7 ar
    16    7    8 ar
    17    7   37 1
    18    8    9 ar
    19    8   38 1
    20    9   10 ar
    21    9   39 1
    22   10   11 ar
    23   10   40 1
    24   11   41 1
    25   12   18 1
    26   12   13 2
    27   13   14 1
    28   13   42 1
    29   14   15 2
    30   14   29 1
    31   15   16 1
    32   15   19 1
    33   16   17 2
    34   16   18 1
    35   19   20 1
    36   19   21 1
    37   19   23 1
    38   21   22 1
    39   21   43 1
    40   21   44 1
    41   22   45 1
    42   22   46 1
    43   22   47 1
    44   23   28 ar
    45   23   24 ar
    46   24   25 ar
    47   24   48 1
    48   25   26 ar
    49   25   49 1
    50   26   27 ar
    51   26   50 1
    52   27   28 ar
    53   27   51 1
    54   28   52 1
    55   29   53 1
@<TRIPOS>MOLECULE
ZINC03833852
   68    69     0     0     0
SMALL
USER_CHARGES

@<TRIPOS>ATOM
      1 C1         -8.3484    2.4653   -2.1882 C.3       1 <0>        -0.1637
      2 C2         -8.4998    1.5721   -0.9552 C.3       1 <0>         0.1701
      3 C3         -9.6222    0.5599   -1.1934 C.3       1 <0>        -0.1573
      4 C4         -8.8411    2.4352    0.2611 C.3       1 <0>        -0.1648
      5 N1         -7.2433    0.8595   -0.7112 N.am      1 <0>        -0.7215
      6 C5         -6.1122    1.5513   -0.4695 C.2       1 <0>         0.5607
      7 O1         -6.1336    2.7666   -0.4589 O.2       1 <0>        -0.5199
      8 C6         -4.8453    0.8321   -0.2173 C.ar      1 <0>        -0.1412
      9 C7         -4.8380   -0.5601   -0.1151 C.ar      1 <0>        -0.0851
     10 C8         -3.6519   -1.2253    0.1160 C.ar      1 <0>        -0.1337
     11 C9         -2.4727   -0.5149    0.2567 C.ar      1 <0>        -0.0892
     12 C10        -2.4738    0.8651    0.1613 C.ar      1 <0>        -0.1277
     13 C11        -3.6526    1.5424   -0.0744 C.ar      1 <0>        -0.0180
     14 C12        -3.6522    3.0460   -0.1770 C.3       1 <0>        -0.0852
     15 C13        -3.7205    3.4567   -1.6493 C.3       1 <0>        -0.1249
     16 C14        -3.7200    4.9832   -1.7534 C.3       1 <0>         0.1342
     17 H1         -4.5328    5.3887   -1.1509 H         1 <0>         0.1106
     18 C15        -3.9136    5.3948   -3.2142 C.3       1 <0>        -0.2006
     19 S1         -3.9131    7.2045   -3.3377 S.3       1 <0>         0.0332
     20 C16        -4.1426    7.5146   -5.0569 C.ar      1 <0>        -0.0480
     21 C17        -4.2674    6.4544   -5.9479 C.ar      1 <0>        -0.1476
     22 C18        -4.4523    6.7001   -7.2923 C.ar      1 <0>        -0.0704
     23 C19        -4.5046    8.0014   -7.7678 C.ar      1 <0>        -0.1401
     24 C20        -4.3774    9.0649   -6.9017 C.ar      1 <0>        -0.0651
     25 C21        -4.1948    8.8337   -5.5357 C.ar      1 <0>        -0.1336
     26 C22        -4.0574    9.9670   -4.6035 C.2       1 <0>         0.5556
     27 O2         -3.8983    9.7613   -3.4155 O.2       1 <0>        -0.5015
     28 N2         -4.1081   11.2313   -5.0676 N.am      1 <0>        -0.7203
     29 C23        -3.9716   12.3578   -4.1411 C.3       1 <0>         0.1701
     30 C24        -2.6160   12.2769   -3.4362 C.3       1 <0>        -0.1649
     31 C25        -4.0644   13.6721   -4.9189 C.3       1 <0>        -0.1564
     32 C26        -5.0917   12.3009   -3.1004 C.3       1 <0>        -0.1649
     33 O3         -2.4732    5.4928   -1.2762 O.3       1 <0>        -0.5497
     34 H2         -8.1053    1.8504   -3.0547 H         1 <0>         0.0524
     35 H3         -9.2833    2.9955   -2.3697 H         1 <0>         0.0635
     36 H4         -7.5488    3.1864   -2.0185 H         1 <0>         0.0793
     37 H5         -9.7300   -0.0764   -0.3151 H         1 <0>         0.0621
     38 H6        -10.5571    1.0901   -1.3750 H         1 <0>         0.0752
     39 H7         -9.3790   -0.0550   -2.0599 H         1 <0>         0.0617
     40 H8         -8.0415    3.1563    0.4307 H         1 <0>         0.0803
     41 H9         -9.7760    2.9654    0.0795 H         1 <0>         0.0635
     42 H10        -8.9489    1.7989    1.1394 H         1 <0>         0.0533
     43 H11        -7.2262   -0.1103   -0.7197 H         1 <0>         0.3970
     44 H12        -5.7583   -1.1154   -0.2203 H         1 <0>         0.1235
     45 H13        -3.6443   -2.3026    0.1919 H         1 <0>         0.1280
     46 H14        -1.5474   -1.0403    0.4420 H         1 <0>         0.1275
     47 H15        -1.5501    1.4137    0.2720 H         1 <0>         0.1297
     48 H16        -4.5166    3.4465    0.3524 H         1 <0>         0.1063
     49 H17        -2.7387    3.4402    0.2682 H         1 <0>         0.0718
     50 H18        -2.8560    3.0562   -2.1787 H         1 <0>         0.0576
     51 H19        -4.6339    3.0624   -2.0945 H         1 <0>         0.0773
     52 H20        -3.1008    4.9892   -3.8167 H         1 <0>         0.0828
     53 H21        -4.8647    5.0060   -3.5782 H         1 <0>         0.0909
     54 H22        -4.2233    5.4377   -5.5863 H         1 <0>         0.1274
     55 H23        -4.5525    5.8733   -7.9799 H         1 <0>         0.1290
     56 H24        -4.6457    8.1823   -8.8231 H         1 <0>         0.1305
     57 H25        -4.4183   10.0764   -7.2781 H         1 <0>         0.1283
     58 H26        -4.2351   11.3954   -6.0152 H         1 <0>         0.3970
     59 H27        -1.8180   12.3175   -4.1776 H         1 <0>         0.0532
     60 H28        -2.5144   13.1151   -2.7468 H         1 <0>         0.0636
     61 H29        -2.5499   11.3406   -2.8821 H         1 <0>         0.0806
     62 H30        -5.0301   13.7297   -5.4210 H         1 <0>         0.0618
     63 H31        -3.9628   14.5102   -4.2295 H         1 <0>         0.0753
     64 H32        -3.2663   13.7126   -5.6602 H         1 <0>         0.0619
     65 H33        -5.0256   11.3646   -2.5463 H         1 <0>         0.0804
     66 H34        -4.9901   13.1390   -2.4110 H         1 <0>         0.0637
     67 H35        -6.0574   12.3585   -3.6026 H         1 <0>         0.0532
     68 H36        -1.7038    5.1731   -1.7671 H         1 <0>         0.3717
@<TRIPOS>BOND
     1    1    2 1
     2    1   34 1
     3    1   35 1
     4    1   36 1
     5    2    3 1
     6    2    4 1
     7    2    5 1
     8    3   37 1
     9    3   38 1
    10    3   39 1
    11    4   40 1
    12    4   41 1
    13    4   42 1
    14    5    6 am
    15    5   43 1
    16    6    7 2
    17    6    8 1
    18    8   13 ar
    19    8    9 ar
    20    9   10 ar
    21    9   44 1
    22   10   11 ar
    23   10   45 1
    24   11   12 ar
    25   11   46 1
    26   12   13 ar
    27   12   47 1
    28   13   14 1
    29   14   15 1
    30   14   48 1
    31   14   49 1
    32   15   16 1
    33   15   50 1
    34   15   51 1
    35   16   17 1
    36   16   18 1
    37   16   33 1
    38   18   19 1
    39   18   52 1
    40   18   53 1
    41   19   20 1
    42   20   25 ar
    43   20   21 ar
    44   21   22 ar
    45   21   54 1
    46   22   23 ar
    47   22   55 1
    48   23   24 ar
    49   23   56 1
    50   24   25 ar
    51   24   57 1
    52   25   26 1
    53   26   27 2
    54   26   28 am
    55   28   29 1
    56   28   58 1
    57   29   30 1
    58   29   31 1
    59   29   32 1
    60   30   59 1
    61   30   60 1
    62   30   61 1
    63   31   62 1
    64   31   63 1
    65   31   64 1
    66   32   65 1
    67   32   66 1
    68   32   67 1
    69   33   68 1
@<TRIPOS>MOLECULE
ZINC03833853
   57    60     0     0     0
SMALL
USER_CHARGES

@<TRIPOS>ATOM
      1 C1         -1.0404   10.7368   10.5452 C.ar      1 <0>        -0.1005
      2 C2          0.2635   10.5241   10.1277 C.ar      1 <0>        -0.1403
      3 C3          0.5196    9.8567    8.9484 C.ar      1 <0>        -0.0862
      4 C4         -0.5405    9.3903    8.1663 C.ar      1 <0>        -0.0939
      5 C5         -1.8664    9.6127    8.5898 C.ar      1 <0>         0.0507
      6 C6         -2.1016   10.2842    9.7866 C.ar      1 <0>        -0.1270
      7 C7         -3.0007    9.1309    7.7706 C.ar      1 <0>        -0.0287
      8 C8         -3.8778   10.0402    7.1842 C.ar      1 <0>        -0.1240
      9 C9         -4.9347    9.5862    6.4208 C.ar      1 <0>        -0.1307
     10 C10        -5.1314    8.2283    6.2316 C.ar      1 <0>        -0.1331
     11 C11        -4.2736    7.3115    6.8041 C.ar      1 <0>        -0.0854
     12 C12        -3.1968    7.7510    7.5744 C.ar      1 <0>        -0.0607
     13 C13        -2.2725    6.7755    8.1837 C.2       1 <0>         0.4944
     14 O1         -1.3384    7.1625    8.8573 O.co2     1 <0>        -0.6241
     15 C14        -0.2749    8.6783    6.9086 C.2       1 <0>         0.4013
     16 O2         -1.1982    8.2754    6.2332 O.2       1 <0>        -0.4204
     17 C15         1.1447    8.4489    6.4579 C.3       1 <0>        -0.1231
     18 C16         1.1417    7.7025    5.1487 C.ar      1 <0>        -0.0284
     19 C17         1.1201    8.4045    3.9561 C.ar      1 <0>        -0.1236
     20 C18         1.1181    7.7288    2.7541 C.ar      1 <0>        -0.0599
     21 C19         1.1375    6.3304    2.7423 C.ar      1 <0>        -0.1825
     22 C20         1.1530    5.6283    3.9517 C.ar      1 <0>        -0.0662
     23 C21         1.1610    6.3186    5.1453 C.ar      1 <0>        -0.1107
     24 C22         1.1356    5.6015    1.4638 C.2       1 <0>         0.4028
     25 O3          1.1171    6.2133    0.4171 O.2       1 <0>        -0.4590
     26 C23         1.1566    4.0947    1.4556 C.3       1 <0>        -0.1534
     27 C24         1.1499    3.5924    0.0103 C.3       1 <0>        -0.0752
     28 C25         1.1709    2.0856    0.0021 C.ar      1 <0>        -0.0643
     29 C26        -0.0167    1.3780    0.0096 C.ar      1 <0>        -0.1092
     30 C27         0.0021   -0.0041    0.0020 C.ar      1 <0>        -0.0871
     31 C28         1.2093   -0.6791   -0.0131 C.ar      1 <0>        -0.0952
     32 C29         2.3974    0.0294   -0.0206 C.ar      1 <0>        -0.0888
     33 C30         2.3776    1.4114   -0.0130 C.ar      1 <0>        -0.1110
     34 Br1         1.2357   -2.5699   -0.0229 Br        1 <0>        -0.0555
     35 H1         -1.2282   11.2607   11.4707 H         1 <0>         0.1182
     36 H2          1.0848   10.8837   10.7298 H         1 <0>         0.1186
     37 H3          1.5386    9.6950    8.6293 H         1 <0>         0.1220
     38 H4         -3.1147   10.4551   10.1195 H         1 <0>         0.1196
     39 H5         -3.7308   11.1007    7.3264 H         1 <0>         0.1128
     40 H6         -5.6124   10.2946    5.9678 H         1 <0>         0.1124
     41 H7         -5.9612    7.8848    5.6318 H         1 <0>         0.1124
     42 H8         -4.4332    6.2542    6.6522 H         1 <0>         0.1263
     43 H9          1.6304    7.9112    7.1471 H         1 <0>         0.0979
     44 H10         1.6442    9.4089    6.3276 H         1 <0>         0.1034
     45 H11         1.1051    9.4843    3.9669 H         1 <0>         0.1257
     46 H12         1.1020    8.2779    1.8243 H         1 <0>         0.1303
     47 H13         1.1631    4.5483    3.9507 H         1 <0>         0.1303
     48 H14         1.1778    5.7779    6.0801 H         1 <0>         0.1318
     49 H15         0.3494    3.7475    1.9329 H         1 <0>         0.0935
     50 H16         2.0564    3.7410    1.9589 H         1 <0>         0.1022
     51 H17         2.0298    3.9709   -0.5099 H         1 <0>         0.0825
     52 H18         0.2501    3.9460   -0.4930 H         1 <0>         0.0829
     53 H19        -0.9593    1.9051    0.0169 H         1 <0>         0.1334
     54 H20        -0.9257   -0.5568    0.0082 H         1 <0>         0.1330
     55 H21         3.3402   -0.4972   -0.0321 H         1 <0>         0.1321
     56 H22         3.3051    1.9647   -0.0192 H         1 <0>         0.1322
     57 O4         -2.4643    5.4555    7.9930 O.co2     1 <0>        -0.7542
@<TRIPOS>BOND
     1    1    6 ar
     2    1    2 ar
     3    1   35 1
     4    2    3 ar
     5    2   36 1
     6    3    4 ar
     7    3   37 1
     8    4    5 ar
     9    4   15 1
    10    5    6 ar
    11    5    7 1
    12    6   38 1
    13    7   12 ar
    14    7    8 ar
    15    8    9 ar
    16    8   39 1
    17    9   10 ar
    18    9   40 1
    19   10   11 ar
    20   10   41 1
    21   11   12 ar
    22   11   42 1
    23   12   13 1
    24   13   14 2
    25   13   57 1
    26   15   16 2
    27   15   17 1
    28   17   18 1
    29   17   43 1
    30   17   44 1
    31   18   23 ar
    32   18   19 ar
    33   19   20 ar
    34   19   45 1
    35   20   21 ar
    36   20   46 1
    37   21   22 ar
    38   21   24 1
    39   22   23 ar
    40   22   47 1
    41   23   48 1
    42   24   25 2
    43   24   26 1
    44   26   27 1
    45   26   49 1
    46   26   50 1
    47   27   28 1
    48   27   51 1
    49   27   52 1
    50   28   33 ar
    51   28   29 ar
    52   29   30 ar
    53   29   53 1
    54   30   31 ar
    55   30   54 1
    56   31   32 ar
    57   31   34 1
    58   32   33 ar
    59   32   55 1
    60   33   56 1
@<TRIPOS>MOLECULE
ZINC03833854
   82    86     0     0     0
SMALL
USER_CHARGES

@<TRIPOS>ATOM
      1 C1          6.5005    3.1550   -1.6911 C.3       1 <0>         0.0874
      2 N1          5.2518    3.9072   -1.8364 N.am      1 <0>        -0.7344
      3 C2          4.1892    3.6047   -1.0645 C.2       1 <0>         0.5584
      4 O1          4.2669    2.7077   -0.2478 O.2       1 <0>        -0.5395
      5 C3          2.9290    4.3638   -1.2111 C.ar      1 <0>        -0.1506
      6 C4          2.8364    5.3945   -2.1480 C.ar      1 <0>        -0.0851
      7 C5          1.6576    6.0985   -2.2800 C.ar      1 <0>        -0.1311
      8 C6          0.5683    5.7851   -1.4862 C.ar      1 <0>        -0.0772
      9 C7          0.6532    4.7645   -0.5562 C.ar      1 <0>        -0.0893
     10 C8          1.8283    4.0562   -0.4101 C.ar      1 <0>         0.0057
     11 C9         -0.5383    4.4298    0.3036 C.3       1 <0>         0.1676
     12 N2         -1.4724    3.5978   -0.4589 N.pl3     1 <0>        -0.9694
     13 C10        -1.2732    2.1677   -0.5424 C.3       1 <0>         0.1723
     14 H1         -2.2438    1.6751   -0.5996 H         1 <0>         0.1162
     15 C11        -0.4498    1.7974   -1.7750 C.3       1 <0>         0.0538
     16 H2         -0.0073    0.8139   -1.6169 H         1 <0>         0.0733
     17 C12        -1.2405    1.7655   -3.0214 C.3       1 <0>         0.0514
     18 H3         -0.6178    1.3622   -3.8199 H         1 <0>         0.0718
     19 C13        -1.7564    3.1386   -3.4491 C.3       1 <0>         0.1722
     20 H4         -0.9785    3.8824   -3.2766 H         1 <0>         0.1135
     21 N3         -2.9389    3.5068   -2.7022 N.pl3     1 <0>        -0.9687
     22 S1         -2.7753    4.2937   -1.2382 S.o2      1 <0>         2.7721
     23 O2         -2.4048    5.6331   -1.5348 O.2       1 <0>        -0.9663
     24 O3         -3.9285    3.9730   -0.4723 O.2       1 <0>        -0.9632
     25 C14        -4.2703    3.1915   -3.2258 C.3       1 <0>         0.1685
     26 C15        -4.6363    1.7788   -2.8499 C.ar      1 <0>        -0.0829
     27 C16        -4.4938    0.7591   -3.7723 C.ar      1 <0>        -0.0562
     28 C17        -4.8253   -0.5375   -3.4261 C.ar      1 <0>        -0.1342
     29 C18        -5.3084   -0.8129   -2.1605 C.ar      1 <0>        -0.1171
     30 C19        -5.4554    0.2075   -1.2396 C.ar      1 <0>        -0.1257
     31 C20        -5.1198    1.5034   -1.5844 C.ar      1 <0>        -0.1050
     32 C21        -2.0951    3.1052   -4.9407 C.3       1 <0>         0.0551
     33 O4         -2.4674    4.4151   -5.3741 O.3       1 <0>        -0.3029
     34 C22        -2.8009    4.5602   -6.6835 C.ar      1 <0>         0.1287
     35 C23        -2.7650    3.4655   -7.5351 C.ar      1 <0>        -0.2104
     36 C24        -3.1096    3.6146   -8.8645 C.ar      1 <0>        -0.0801
     37 C25        -3.4799    4.8555   -9.3490 C.ar      1 <0>        -0.1577
     38 C26        -3.5111    5.9492   -8.5036 C.ar      1 <0>        -0.0792
     39 C27        -3.1724    5.8043   -7.1722 C.ar      1 <0>        -0.1503
     40 O5         -2.3595    0.8973   -2.8318 O.3       1 <0>        -0.5209
     41 O6          0.6020    2.7526   -1.9271 O.3       1 <0>        -0.5254
     42 C28        -0.5408    1.6890    0.7127 C.3       1 <0>         0.0543
     43 O7         -1.3575    1.9272    1.8608 O.3       1 <0>        -0.3033
     44 C29        -0.8507    1.5568    3.0661 C.ar      1 <0>         0.1277
     45 C30         0.4046    0.9708    3.1416 C.ar      1 <0>        -0.2083
     46 C31         0.9201    0.6009    4.3687 C.ar      1 <0>        -0.0792
     47 C32         0.1811    0.8029    5.5197 C.ar      1 <0>        -0.1577
     48 C33        -1.0725    1.3815    5.4465 C.ar      1 <0>        -0.0804
     49 C34        -1.5900    1.7588    4.2225 C.ar      1 <0>        -0.1505
     50 H5          6.3159    2.1010   -1.8985 H         1 <0>         0.0601
     51 H6          7.2400    3.5395   -2.3935 H         1 <0>         0.0759
     52 H7          6.8746    3.2650   -0.6733 H         1 <0>         0.0607
     53 H8          5.1897    4.6230   -2.4881 H         1 <0>         0.4011
     54 H9          3.6859    5.6404   -2.7678 H         1 <0>         0.1178
     55 H10         1.5847    6.8964   -3.0042 H         1 <0>         0.1239
     56 H11        -0.3524    6.3394   -1.5936 H         1 <0>         0.1433
     57 H12         1.8948    3.2629    0.3197 H         1 <0>         0.1240
     58 H13        -1.0367    5.3501    0.6081 H         1 <0>         0.0871
     59 H14        -0.2067    3.8863    1.1884 H         1 <0>         0.0937
     60 H15        -5.0002    3.8810   -2.8016 H         1 <0>         0.0828
     61 H16        -4.2663    3.2892   -4.3114 H         1 <0>         0.0908
     62 H17        -4.1202    0.9750   -4.7624 H         1 <0>         0.1076
     63 H18        -4.7102   -1.3347   -4.1455 H         1 <0>         0.1128
     64 H19        -5.5706   -1.8253   -1.8911 H         1 <0>         0.1127
     65 H20        -5.8328   -0.0077   -0.2509 H         1 <0>         0.1146
     66 H21        -5.2349    2.3007   -0.8651 H         1 <0>         0.1371
     67 H22        -1.2239    2.7702   -5.5037 H         1 <0>         0.0699
     68 H23        -2.9235    2.4174   -5.1099 H         1 <0>         0.0809
     69 H24        -2.4718    2.4969   -7.1581 H         1 <0>         0.1243
     70 H25        -3.0861    2.7619   -9.5269 H         1 <0>         0.1238
     71 H26        -3.7450    4.9708  -10.3896 H         1 <0>         0.1236
     72 H27        -3.8000    6.9176   -8.8845 H         1 <0>         0.1295
     73 H28        -3.1965    6.6589   -6.5123 H         1 <0>         0.1313
     74 H29        -2.1182   -0.0137   -2.6153 H         1 <0>         0.3693
     75 H30         1.1741    2.5897   -2.6895 H         1 <0>         0.3687
     76 H31        -0.3348    0.6219    0.6284 H         1 <0>         0.0709
     77 H32         0.3980    2.2332    0.8154 H         1 <0>         0.0809
     78 H33         0.9802    0.8084    2.2424 H         1 <0>         0.1258
     79 H34         1.8991    0.1487    4.4285 H         1 <0>         0.1241
     80 H35         0.5839    0.5086    6.4776 H         1 <0>         0.1233
     81 H36        -1.6475    1.5389    6.3471 H         1 <0>         0.1290
     82 H37        -2.5694    2.2104    4.1658 H         1 <0>         0.1309
@<TRIPOS>BOND
     1    1    2 1
     2    1   50 1
     3    1   51 1
     4    1   52 1
     5    2    3 am
     6    2   53 1
     7    3    4 2
     8    3    5 1
     9    5   10 ar
    10    5    6 ar
    11    6    7 ar
    12    6   54 1
    13    7    8 ar
    14    7   55 1
    15    8    9 ar
    16    8   56 1
    17    9   10 ar
    18    9   11 1
    19   10   57 1
    20   11   12 1
    21   11   58 1
    22   11   59 1
    23   12   22 1
    24   12   13 1
    25   13   14 1
    26   13   15 1
    27   13   42 1
    28   15   16 1
    29   15   17 1
    30   15   41 1
    31   17   18 1
    32   17   19 1
    33   17   40 1
    34   19   20 1
    35   19   21 1
    36   19   32 1
    37   21   22 1
    38   21   25 1
    39   22   23 2
    40   22   24 2
    41   25   26 1
    42   25   60 1
    43   25   61 1
    44   26   31 ar
    45   26   27 ar
    46   27   28 ar
    47   27   62 1
    48   28   29 ar
    49   28   63 1
    50   29   30 ar
    51   29   64 1
    52   30   31 ar
    53   30   65 1
    54   31   66 1
    55   32   33 1
    56   32   67 1
    57   32   68 1
    58   33   34 1
    59   34   39 ar
    60   34   35 ar
    61   35   36 ar
    62   35   69 1
    63   36   37 ar
    64   36   70 1
    65   37   38 ar
    66   37   71 1
    67   38   39 ar
    68   38   72 1
    69   39   73 1
    70   40   74 1
    71   41   75 1
    72   42   43 1
    73   42   76 1
    74   42   77 1
    75   43   44 1
    76   44   49 ar
    77   44   45 ar
    78   45   46 ar
    79   45   78 1
    80   46   47 ar
    81   46   79 1
    82   47   48 ar
    83   47   80 1
    84   48   49 ar
    85   48   81 1
    86   49   82 1
@<TRIPOS>MOLECULE
ZINC03833855
   86    90     0     0     0
SMALL
USER_CHARGES

@<TRIPOS>ATOM
      1 C1          2.2205    8.2185    4.5836 C.ar      1 <0>        -0.0951
      2 C2          2.1097    6.9776    3.9845 C.ar      1 <0>        -0.1099
      3 C3          0.9455    6.6299    3.3253 C.ar      1 <0>        -0.1086
      4 C4         -0.1045    7.5264    3.2574 C.ar      1 <0>        -0.1203
      5 C5          0.0083    8.7693    3.8519 C.ar      1 <0>        -0.1106
      6 C6          1.1709    9.1154    4.5148 C.ar      1 <0>        -0.1133
      7 C7         -1.3723    7.1488    2.5355 C.3       1 <0>        -0.0940
      8 C8         -1.2537    7.5356    1.0600 C.3       1 <0>         0.0406
      9 H1         -0.4278    6.9795    0.6163 H         1 <0>         0.1636
     10 C9         -0.9603    8.9648    0.9689 C.3       1 <0>         0.0371
     11 H2         -0.0390    9.1752    1.5119 H         1 <0>         0.1447
     12 C10        -0.7946    9.4121   -0.5016 C.3       1 <0>         0.0577
     13 H3         -0.3140   10.3899   -0.5342 H         1 <0>         0.1424
     14 C11        -2.1554    9.4975   -1.1376 C.3       1 <0>         0.0193
     15 H4         -2.8866    9.7420   -0.3671 H         1 <0>         0.1607
     16 C12        -2.2502    7.0153   -1.0445 C.3       1 <0>         0.4023
     17 C13        -3.0750    5.9333    0.9317 C.3       1 <0>         0.0420
     18 C14        -4.5250    5.8228    0.5363 C.ar      1 <0>        -0.1583
     19 C15        -5.4178    6.8138    0.8992 C.ar      1 <0>        -0.1221
     20 C16        -6.7471    6.7146    0.5328 C.ar      1 <0>        -0.0812
     21 C17        -7.1853    5.6199   -0.1887 C.ar      1 <0>        -0.0455
     22 C18        -6.2935    4.6264   -0.5471 C.ar      1 <0>        -0.0840
     23 C19        -4.9634    4.7277   -0.1844 C.ar      1 <0>        -0.0989
     24 C20        -8.6351    5.5099   -0.5850 C.3       1 <0>         0.1019
     25 O1         -9.3579    4.8232    0.4387 O.3       1 <0>        -0.5641
     26 N1         -3.0616    5.9098   -1.5600 N.3       1 <0>        -0.6748
     27 C21        -2.5020    4.6908   -1.7521 C.1       1 <0>         0.3818
     28 N2         -2.0328    3.6689   -1.9132 N.1       1 <0>        -0.3155
     29 C22        -2.0343    8.1704   -3.1720 C.3       1 <0>         0.0261
     30 C23        -2.7853    7.1229   -3.9530 C.ar      1 <0>        -0.1657
     31 C24        -2.2213    5.8778   -4.1590 C.ar      1 <0>        -0.0883
     32 C25        -2.9120    4.9155   -4.8716 C.ar      1 <0>        -0.0914
     33 C26        -4.1629    5.2014   -5.3860 C.ar      1 <0>        -0.0418
     34 C27        -4.7246    6.4483   -5.1845 C.ar      1 <0>        -0.0886
     35 C28        -4.0357    7.4091   -4.4681 C.ar      1 <0>        -0.1142
     36 C29        -4.9143    4.1536   -6.1660 C.3       1 <0>         0.1019
     37 O2         -4.5831    4.2627   -7.5519 O.3       1 <0>        -0.5641
     38 C30        -2.1435   10.6245   -2.1723 C.3       1 <0>        -0.1002
     39 C31        -3.5410   10.8448   -2.6913 C.ar      1 <0>        -0.1499
     40 C32        -3.8653   10.4732   -3.9827 C.ar      1 <0>        -0.1285
     41 C33        -5.1486   10.6709   -4.4572 C.ar      1 <0>        -0.1078
     42 C34        -6.1047   11.2498   -3.6438 C.ar      1 <0>        -0.0921
     43 C35        -5.7790   11.6262   -2.3542 C.ar      1 <0>        -0.1044
     44 C36        -4.4971   11.4238   -1.8780 C.ar      1 <0>        -0.1095
     45 O3          0.0042    8.4588   -1.2053 O.3       1 <0>        -0.5686
     46 O4         -2.0309    9.7009    1.5640 O.3       1 <0>        -0.5551
     47 H5          3.1288    8.4889    5.1015 H         1 <0>         0.1334
     48 H6          2.9314    6.2786    4.0344 H         1 <0>         0.1330
     49 H7          0.8572    5.6587    2.8612 H         1 <0>         0.1248
     50 H8         -0.8120    9.4698    3.7988 H         1 <0>         0.1300
     51 H9          1.2590   10.0864    4.9793 H         1 <0>         0.1321
     52 H10        -1.5306    6.0735    2.6176 H         1 <0>         0.1068
     53 H11        -2.2156    7.6753    2.9825 H         1 <0>         0.1138
     54 H12        -1.1969    6.7755   -1.1893 H         1 <0>         0.2264
     55 H13        -2.5276    5.0715    0.5498 H         1 <0>         0.1424
     56 H14        -2.9959    5.9616    2.0184 H         1 <0>         0.1719
     57 H15        -5.0762    7.6672    1.4662 H         1 <0>         0.1327
     58 H16        -7.4437    7.4910    0.8125 H         1 <0>         0.1433
     59 H17        -6.6358    3.7711   -1.1108 H         1 <0>         0.1429
     60 H18        -4.2667    3.9515   -0.4645 H         1 <0>         0.1332
     61 H19        -9.0523    6.5082   -0.7171 H         1 <0>         0.0647
     62 H20        -8.7151    4.9559   -1.5203 H         1 <0>         0.0645
     63 H21       -10.3003    4.7159    0.2504 H         1 <0>         0.3972
     64 H22        -3.9995    6.0504   -1.7637 H         1 <0>         0.4440
     65 H23        -2.1489    9.1386   -3.6593 H         1 <0>         0.1685
     66 H24        -0.9775    7.9062   -3.1328 H         1 <0>         0.1634
     67 H25        -1.2425    5.6556   -3.7603 H         1 <0>         0.1288
     68 H26        -2.4733    3.9412   -5.0287 H         1 <0>         0.1383
     69 H27        -5.7018    6.6716   -5.5863 H         1 <0>         0.1397
     70 H28        -4.4746    8.3833   -4.3107 H         1 <0>         0.1400
     71 H29        -4.6385    3.1633   -5.8035 H         1 <0>         0.0630
     72 H30        -5.9861    4.3027   -6.0358 H         1 <0>         0.0636
     73 H31        -5.0316    3.6174   -8.1154 H         1 <0>         0.3962
     74 H32        -1.7799   11.5409   -1.7073 H         1 <0>         0.1349
     75 H33        -1.4876   10.3517   -2.9991 H         1 <0>         0.1156
     76 H34        -3.1172   10.0249   -4.6196 H         1 <0>         0.1304
     77 H35        -5.4030   10.3771   -5.4648 H         1 <0>         0.1368
     78 H36        -7.1061   11.4083   -4.0159 H         1 <0>         0.1367
     79 H37        -6.5259   12.0788   -1.7188 H         1 <0>         0.1361
     80 H38        -4.2425   11.7182   -0.8705 H         1 <0>         0.1297
     81 H39         0.8964    8.3529   -0.8478 H         1 <0>         0.4228
     82 H40        -1.9087   10.6598    1.5421 H         1 <0>         0.4168
     83 N3         -2.6206    8.2437   -1.8233 N.4       1 <0>        -0.4033
     84 H41        -3.6432    8.2793   -1.9074 H         1 <0>         0.4344
     85 N4         -2.5117    7.1852    0.3670 N.4       1 <0>        -0.4151
     86 H42        -3.1898    7.9454    0.4953 H         1 <0>         0.4304
@<TRIPOS>BOND
     1    1    6 ar
     2    1    2 ar
     3    1   47 1
     4    2    3 ar
     5    2   48 1
     6    3    4 ar
     7    3   49 1
     8    4    5 ar
     9    4    7 1
    10    5    6 ar
    11    5   50 1
    12    6   51 1
    13    7    8 1
    14    7   52 1
    15    7   53 1
    16    8    9 1
    17    8   10 1
    18    8   85 1
    19   10   11 1
    20   10   12 1
    21   10   46 1
    22   12   13 1
    23   12   14 1
    24   12   45 1
    25   14   15 1
    26   14   38 1
    27   14   83 1
    28   16   26 1
    29   16   54 1
    30   16   83 1
    31   16   85 1
    32   17   18 1
    33   17   55 1
    34   17   56 1
    35   17   85 1
    36   18   23 ar
    37   18   19 ar
    38   19   20 ar
    39   19   57 1
    40   20   21 ar
    41   20   58 1
    42   21   22 ar
    43   21   24 1
    44   22   23 ar
    45   22   59 1
    46   23   60 1
    47   24   25 1
    48   24   61 1
    49   24   62 1
    50   25   63 1
    51   26   27 1
    52   26   64 1
    53   27   28 3
    54   29   30 1
    55   29   65 1
    56   29   66 1
    57   29   83 1
    58   30   35 ar
    59   30   31 ar
    60   31   32 ar
    61   31   67 1
    62   32   33 ar
    63   32   68 1
    64   33   34 ar
    65   33   36 1
    66   34   35 ar
    67   34   69 1
    68   35   70 1
    69   36   37 1
    70   36   71 1
    71   36   72 1
    72   37   73 1
    73   38   39 1
    74   38   74 1
    75   38   75 1
    76   39   44 ar
    77   39   40 ar
    78   40   41 ar
    79   40   76 1
    80   41   42 ar
    81   41   77 1
    82   42   43 ar
    83   42   78 1
    84   43   44 ar
    85   43   79 1
    86   44   80 1
    87   45   81 1
    88   46   82 1
    89   83   84 1
    90   85   86 1
@<TRIPOS>MOLECULE
ZINC03833856
   84    90     0     0     0
SMALL
USER_CHARGES

@<TRIPOS>ATOM
      1 C1         -5.4164   -2.8992    0.9617 C.ar      1 <0>        -0.1217
      2 C2         -5.5298   -1.5221    1.0020 C.ar      1 <0>        -0.1142
      3 C3         -4.4338   -0.7297    0.7159 C.ar      1 <0>        -0.1079
      4 C4         -3.2246   -1.3144    0.3891 C.ar      1 <0>        -0.0630
      5 C5         -3.1127   -2.6914    0.3433 C.ar      1 <0>        -0.1117
      6 C6         -4.2072   -3.4839    0.6349 C.ar      1 <0>        -0.1140
      7 C7         -2.0299   -0.4505    0.0768 C.3       1 <0>        -0.1038
      8 C8         -1.0895   -0.4358    1.2705 C.3       1 <0>         0.1596
      9 H1         -0.8480   -1.4735    1.5419 H         1 <0>         0.0955
     10 C9         -1.7148    0.2437    2.4981 C.3       1 <0>         0.0812
     11 H2         -0.9219    0.5469    3.1851 H         1 <0>         0.0723
     12 C10        -2.5186    1.4667    2.0871 C.3       1 <0>         0.0577
     13 H3         -3.4033    1.1594    1.5315 H         1 <0>         0.0852
     14 C11        -1.7414    2.4834    1.2827 C.3       1 <0>         0.1636
     15 H4         -1.8564    2.2782    0.2166 H         1 <0>         0.0855
     16 N1         -0.3210    2.4742    1.6243 N.am      1 <0>        -0.6090
     17 C12         0.4930    1.4689    1.2691 C.2       1 <0>         0.7160
     18 O1          1.6896    1.7299    1.2572 O.2       1 <0>        -0.5953
     19 N2          0.1692    0.2382    0.9335 N.am      1 <0>        -0.6022
     20 C13         1.1604   -0.5487    0.1918 C.3       1 <0>         0.1615
     21 C14         1.0315   -0.2587   -1.2814 C.ar      1 <0>        -0.1088
     22 C15         0.2862   -1.1174   -2.0875 C.ar      1 <0>        -0.1047
     23 C16         0.1455   -0.8814   -3.4204 C.ar      1 <0>        -0.1079
     24 C17         0.7693    0.2376   -3.9980 C.ar      1 <0>        -0.0475
     25 C18         0.6515    0.5107   -5.3716 C.ar      1 <0>        -0.1095
     26 C19         1.2700    1.6035   -5.8963 C.ar      1 <0>        -0.1136
     27 C20         2.0198    2.4593   -5.0913 C.ar      1 <0>        -0.1182
     28 C21         2.1555    2.2267   -3.7573 C.ar      1 <0>        -0.1018
     29 C22         1.5316    1.1078   -3.1795 C.ar      1 <0>        -0.0536
     30 C23         1.6493    0.8347   -1.8059 C.ar      1 <0>        -0.0762
     31 C24         0.2365    3.6065    2.3776 C.3       1 <0>         0.1605
     32 C25         0.2727    3.2647    3.8449 C.ar      1 <0>        -0.1080
     33 C26        -0.8478    3.5139    4.6355 C.ar      1 <0>        -0.0804
     34 C27        -0.8501    3.2120    5.9625 C.ar      1 <0>        -0.1162
     35 C28         0.2969    2.6514    6.5501 C.ar      1 <0>        -0.0456
     36 C29         0.3341    2.3318    7.9181 C.ar      1 <0>        -0.1116
     37 C30         1.4625    1.7905    8.4527 C.ar      1 <0>        -0.1145
     38 C31         2.5848    1.5463    7.6632 C.ar      1 <0>        -0.1216
     39 C32         2.5851    1.8425    6.3349 C.ar      1 <0>        -0.1016
     40 C33         1.4381    2.4030    5.7473 C.ar      1 <0>        -0.0574
     41 C34         1.4008    2.7225    4.3792 C.ar      1 <0>        -0.0796
     42 C35        -2.3090    3.8810    1.5656 C.3       1 <0>        -0.0844
     43 C36        -3.7181    3.9671    1.0382 C.ar      1 <0>        -0.0819
     44 C37        -3.9410    4.2735   -0.2912 C.ar      1 <0>        -0.1182
     45 C38        -5.2334    4.3473   -0.7761 C.ar      1 <0>        -0.1197
     46 C39        -6.3031    4.1254    0.0708 C.ar      1 <0>        -0.1204
     47 C40        -6.0803    3.8246    1.4015 C.ar      1 <0>        -0.1240
     48 C41        -4.7878    3.7452    1.8851 C.ar      1 <0>        -0.1026
     49 O2         -2.9802    2.1091    3.2874 O.3       1 <0>        -0.5531
     50 O3         -2.5757   -0.6854    3.1639 O.3       1 <0>        -0.5433
     51 H5         -6.2725   -3.5183    1.1859 H         1 <0>         0.1183
     52 H6         -6.4745   -1.0653    1.2573 H         1 <0>         0.1176
     53 H7         -4.5224    0.3462    0.7474 H         1 <0>         0.1155
     54 H8         -2.1691   -3.1482    0.0836 H         1 <0>         0.1158
     55 H9         -4.1185   -4.5598    0.6037 H         1 <0>         0.1192
     56 H10        -2.3621    0.5655   -0.1366 H         1 <0>         0.0733
     57 H11        -1.5082   -0.8522   -0.7918 H         1 <0>         0.0930
     58 H12         0.9884   -1.6102    0.3695 H         1 <0>         0.0874
     59 H13         2.1621   -0.2815    0.5284 H         1 <0>         0.1052
     60 H14        -0.1903   -1.9807   -1.6469 H         1 <0>         0.1219
     61 H15        -0.4382   -1.5535   -4.0320 H         1 <0>         0.1267
     62 H16         0.0731   -0.1432   -6.0074 H         1 <0>         0.1261
     63 H17         1.1782    1.8109   -6.9522 H         1 <0>         0.1228
     64 H18         2.5000    3.3201   -5.5327 H         1 <0>         0.1230
     65 H19         2.7394    2.8988   -3.1458 H         1 <0>         0.1265
     66 H20         2.2267    1.4892   -1.1698 H         1 <0>         0.1348
     67 H21         1.2480    3.8130    2.0276 H         1 <0>         0.0966
     68 H22        -0.3876    4.4870    2.2249 H         1 <0>         0.0952
     69 H23        -1.7288    3.9491    4.1874 H         1 <0>         0.1291
     70 H24        -1.7269    3.4072    6.5621 H         1 <0>         0.1228
     71 H25        -0.5283    2.5148    8.5419 H         1 <0>         0.1244
     72 H26         1.4885    1.5461    9.5044 H         1 <0>         0.1214
     73 H27         3.4674    1.1153    8.1123 H         1 <0>         0.1216
     74 H28         3.4620    1.6474    5.7355 H         1 <0>         0.1250
     75 H29         2.2628    2.5385    3.7550 H         1 <0>         0.1296
     76 H30        -2.3117    4.0613    2.6405 H         1 <0>         0.1030
     77 H31        -1.6902    4.6310    1.0729 H         1 <0>         0.0792
     78 H32        -3.1053    4.4513   -0.9519 H         1 <0>         0.1179
     79 H33        -5.4075    4.5820   -1.8159 H         1 <0>         0.1199
     80 H34        -7.3130    4.1867   -0.3072 H         1 <0>         0.1191
     81 H35        -6.9161    3.6512    2.0632 H         1 <0>         0.1195
     82 H36        -4.6137    3.5101    2.9248 H         1 <0>         0.1335
     83 H37        -3.5429    1.5506    3.8410 H         1 <0>         0.3691
     84 H38        -3.0078   -0.3268    3.9512 H         1 <0>         0.3758
@<TRIPOS>BOND
     1    1    6 ar
     2    1    2 ar
     3    1   51 1
     4    2    3 ar
     5    2   52 1
     6    3    4 ar
     7    3   53 1
     8    4    5 ar
     9    4    7 1
    10    5    6 ar
    11    5   54 1
    12    6   55 1
    13    7    8 1
    14    7   56 1
    15    7   57 1
    16    8    9 1
    17    8   19 1
    18    8   10 1
    19   10   11 1
    20   10   12 1
    21   10   50 1
    22   12   13 1
    23   12   14 1
    24   12   49 1
    25   14   15 1
    26   14   16 1
    27   14   42 1
    28   16   17 am
    29   16   31 1
    30   17   18 2
    31   17   19 am
    32   19   20 1
    33   20   21 1
    34   20   58 1
    35   20   59 1
    36   21   30 ar
    37   21   22 ar
    38   22   23 ar
    39   22   60 1
    40   23   24 ar
    41   23   61 1
    42   24   29 ar
    43   24   25 ar
    44   25   26 ar
    45   25   62 1
    46   26   27 ar
    47   26   63 1
    48   27   28 ar
    49   27   64 1
    50   28   29 ar
    51   28   65 1
    52   29   30 ar
    53   30   66 1
    54   31   32 1
    55   31   67 1
    56   31   68 1
    57   32   41 ar
    58   32   33 ar
    59   33   34 ar
    60   33   69 1
    61   34   35 ar
    62   34   70 1
    63   35   40 ar
    64   35   36 ar
    65   36   37 ar
    66   36   71 1
    67   37   38 ar
    68   37   72 1
    69   38   39 ar
    70   38   73 1
    71   39   40 ar
    72   39   74 1
    73   40   41 ar
    74   41   75 1
    75   42   43 1
    76   42   76 1
    77   42   77 1
    78   43   48 ar
    79   43   44 ar
    80   44   45 ar
    81   44   78 1
    82   45   46 ar
    83   45   79 1
    84   46   47 ar
    85   46   80 1
    86   47   48 ar
    87   47   81 1
    88   48   82 1
    89   49   83 1
    90   50   84 1
@<TRIPOS>MOLECULE
ZINC03833857
   80    84     0     0     0
SMALL
USER_CHARGES

@<TRIPOS>ATOM
      1 C1          6.0144   -1.8152   -3.6822 C.3       1 <0>         0.0269
      2 O1          6.6606   -0.6291   -3.2157 O.3       1 <0>        -0.3090
      3 C2          6.3173   -0.1856   -1.9767 C.ar      1 <0>         0.0972
      4 C3          5.3834   -0.8801   -1.2247 C.ar      1 <0>        -0.1615
      5 C4          5.0317   -0.4249    0.0324 C.ar      1 <0>        -0.0777
      6 C5          5.6176    0.7170    0.5464 C.ar      1 <0>        -0.1260
      7 C6          6.5542    1.4113   -0.1963 C.ar      1 <0>        -0.1115
      8 C7          6.9073    0.9635   -1.4592 C.ar      1 <0>         0.0773
      9 O2          7.8282    1.6457   -2.1914 O.3       1 <0>        -0.4876
     10 C8          4.0120   -1.1786    0.8468 C.3       1 <0>         0.1732
     11 N1          2.6739   -0.6569    0.5578 N.am      1 <0>        -0.5866
     12 C9          2.1765    0.4467    1.3782 C.3       1 <0>         0.1694
     13 H1          3.0096    0.9099    1.9069 H         1 <0>         0.0963
     14 C10         1.4945    1.4920    0.4813 C.3       1 <0>         0.1038
     15 H2          2.0240    1.5583   -0.4691 H         1 <0>         0.0602
     16 C11         0.0570    1.0677    0.2340 C.3       1 <0>        -0.0168
     17 N2         -0.1192   -0.3743    0.2082 N.3       1 <0>        -0.2729
     18 N3          0.6938   -0.9795   -0.7041 N.am      1 <0>        -0.4750
     19 C12         1.9906   -1.2138   -0.4303 C.2       1 <0>         0.7373
     20 O3          2.5812   -1.9991   -1.1465 O.2       1 <0>        -0.5866
     21 C13         0.1470   -1.3813   -2.0025 C.3       1 <0>         0.1438
     22 C14         0.4037   -0.2940   -3.0139 C.ar      1 <0>        -0.0830
     23 C15         1.5677   -0.3066   -3.7597 C.ar      1 <0>        -0.1106
     24 C16         1.8074    0.6880   -4.6894 C.ar      1 <0>        -0.1057
     25 C17         0.8801    1.7008   -4.8751 C.ar      1 <0>         0.0824
     26 C18        -0.2913    1.7137   -4.1241 C.ar      1 <0>         0.1012
     27 C19        -0.5280    0.7105   -3.1980 C.ar      1 <0>        -0.1870
     28 O4         -1.2045    2.7055   -4.3028 O.3       1 <0>        -0.3058
     29 C20        -2.3836    2.6546   -3.4972 C.3       1 <0>         0.0262
     30 O5          1.1142    2.6798   -5.7896 O.3       1 <0>        -0.4859
     31 C21        -1.5259   -0.7287   -0.0234 C.3       1 <0>         0.0754
     32 C22        -2.3713   -0.1913    1.1026 C.ar      1 <0>        -0.0875
     33 C23        -2.5088   -0.9173    2.2709 C.ar      1 <0>        -0.0897
     34 C24        -3.2807   -0.4223    3.3053 C.ar      1 <0>        -0.1161
     35 C25        -3.9224    0.7943    3.1680 C.ar      1 <0>        -0.1109
     36 C26        -3.7891    1.5178    1.9977 C.ar      1 <0>        -0.1182
     37 C27        -3.0137    1.0249    0.9649 C.ar      1 <0>        -0.1116
     38 O6          1.5125    2.7646    1.1310 O.3       1 <0>        -0.5502
     39 C28         1.1644   -0.0891    2.3929 C.3       1 <0>        -0.1212
     40 C29         1.8712   -0.9718    3.3891 C.ar      1 <0>        -0.0727
     41 C30         1.9911   -2.3277    3.1482 C.ar      1 <0>        -0.1070
     42 C31         2.6436   -3.1366    4.0597 C.ar      1 <0>        -0.1196
     43 C32         3.1670   -2.5913    5.2171 C.ar      1 <0>        -0.1258
     44 C33         3.0425   -1.2363    5.4605 C.ar      1 <0>        -0.1186
     45 C34         2.3946   -0.4265    4.5465 C.ar      1 <0>        -0.1209
     46 H3          4.9372   -1.6521   -3.7176 H         1 <0>         0.0569
     47 H4          6.3780   -2.0583   -4.6806 H         1 <0>         0.0992
     48 H5          6.2350   -2.6398   -3.0044 H         1 <0>         0.0554
     49 H6          4.9273   -1.7747   -1.6222 H         1 <0>         0.1444
     50 H7          5.3432    1.0671    1.5306 H         1 <0>         0.1248
     51 H8          7.0109    2.3027    0.2078 H         1 <0>         0.1344
     52 H9          8.7389    1.3531   -2.0492 H         1 <0>         0.3860
     53 H10         4.2296   -1.0533    1.9075 H         1 <0>         0.0883
     54 H11         4.0525   -2.2372    0.5902 H         1 <0>         0.0961
     55 H12        -0.2691    1.4772   -0.7221 H         1 <0>         0.0438
     56 H13        -0.5710    1.4830    1.0222 H         1 <0>         0.1062
     57 H14         0.6281   -2.3030   -2.3298 H         1 <0>         0.1105
     58 H15        -0.9266   -1.5451   -1.9096 H         1 <0>         0.0941
     59 H16         2.2913   -1.0954   -3.6159 H         1 <0>         0.1343
     60 H17         2.7175    0.6759   -5.2707 H         1 <0>         0.1366
     61 H18        -1.4384    0.7158   -2.6170 H         1 <0>         0.1260
     62 H19        -3.0258    3.5015   -3.7390 H         1 <0>         0.1036
     63 H20        -2.9183    1.7253   -3.6940 H         1 <0>         0.0553
     64 H21        -2.1062    2.6981   -2.4439 H         1 <0>         0.0507
     65 H22         0.7786    2.4800   -6.6742 H         1 <0>         0.3884
     66 H23        -1.8591   -0.2957   -0.9665 H         1 <0>         0.0573
     67 H24        -1.6250   -1.8133   -0.0664 H         1 <0>         0.1027
     68 H25        -2.0105   -1.8696    2.3767 H         1 <0>         0.1248
     69 H26        -3.3846   -0.9874    4.2198 H         1 <0>         0.1241
     70 H27        -4.5276    1.1798    3.9752 H         1 <0>         0.1229
     71 H28        -4.2904    2.4684    1.8903 H         1 <0>         0.1227
     72 H29        -2.9095    1.5901    0.0505 H         1 <0>         0.1149
     73 H30         1.0906    3.4713    0.6234 H         1 <0>         0.3831
     74 H31         0.6965    0.7456    2.9148 H         1 <0>         0.0753
     75 H32         0.4002   -0.6671    1.8733 H         1 <0>         0.1389
     76 H33         1.5783   -2.7545    2.2461 H         1 <0>         0.1156
     77 H34         2.7406   -4.1953    3.8697 H         1 <0>         0.1176
     78 H35         3.6729   -3.2240    5.9314 H         1 <0>         0.1176
     79 H36         3.4511   -0.8103    6.3650 H         1 <0>         0.1181
     80 H37         2.2970    0.6321    4.7369 H         1 <0>         0.1180
@<TRIPOS>BOND
     1    1    2 1
     2    1   46 1
     3    1   47 1
     4    1   48 1
     5    2    3 1
     6    3    8 ar
     7    3    4 ar
     8    4    5 ar
     9    4   49 1
    10    5    6 ar
    11    5   10 1
    12    6    7 ar
    13    6   50 1
    14    7    8 ar
    15    7   51 1
    16    8    9 1
    17    9   52 1
    18   10   11 1
    19   10   53 1
    20   10   54 1
    21   11   19 am
    22   11   12 1
    23   12   13 1
    24   12   14 1
    25   12   39 1
    26   14   15 1
    27   14   16 1
    28   14   38 1
    29   16   17 1
    30   16   55 1
    31   16   56 1
    32   17   18 1
    33   17   31 1
    34   18   19 am
    35   18   21 1
    36   19   20 2
    37   21   22 1
    38   21   57 1
    39   21   58 1
    40   22   27 ar
    41   22   23 ar
    42   23   24 ar
    43   23   59 1
    44   24   25 ar
    45   24   60 1
    46   25   26 ar
    47   25   30 1
    48   26   27 ar
    49   26   28 1
    50   27   61 1
    51   28   29 1
    52   29   62 1
    53   29   63 1
    54   29   64 1
    55   30   65 1
    56   31   32 1
    57   31   66 1
    58   31   67 1
    59   32   37 ar
    60   32   33 ar
    61   33   34 ar
    62   33   68 1
    63   34   35 ar
    64   34   69 1
    65   35   36 ar
    66   35   70 1
    67   36   37 ar
    68   36   71 1
    69   37   72 1
    70   38   73 1
    71   39   40 1
    72   39   74 1
    73   39   75 1
    74   40   45 ar
    75   40   41 ar
    76   41   42 ar
    77   41   76 1
    78   42   43 ar
    79   42   77 1
    80   43   44 ar
    81   43   78 1
    82   44   45 ar
    83   44   79 1
    84   45   80 1
@<TRIPOS>MOLECULE
ZINC03833858
   80    84     0     0     0
SMALL
USER_CHARGES

@<TRIPOS>ATOM
      1 C1          3.2003    0.9138    1.0957 C.ar      1 <0>        -0.1209
      2 C2          3.8118    2.0720    1.5380 C.ar      1 <0>        -0.1248
      3 C3          3.3885    3.3006    1.0665 C.ar      1 <0>        -0.0995
      4 C4          2.3499    3.3713    0.1569 C.ar      1 <0>        -0.0816
      5 C5          1.7352    2.2134   -0.2817 C.ar      1 <0>        -0.1189
      6 C6          2.1591    0.9848    0.1892 C.ar      1 <0>        -0.1207
      7 C7          1.8881    4.7106   -0.3568 C.3       1 <0>        -0.0814
      8 C8          2.5389    4.9883   -1.7178 C.3       1 <0>         0.1648
      9 H1          2.3012    4.1594   -2.3880 H         1 <0>         0.0869
     10 C9          4.0373    5.0815   -1.5378 C.3       1 <0>         0.0681
     11 H2          4.4637    4.0768   -1.5812 H         1 <0>         0.0742
     12 C10         4.7416    5.9789   -2.5319 C.3       1 <0>         0.0788
     13 H3          4.4454    7.0192   -2.3482 H         1 <0>         0.0749
     14 C11         4.4073    5.6117   -3.9774 C.3       1 <0>         0.1619
     15 H4          5.1664    6.0747   -4.6308 H         1 <0>         0.0932
     16 N1          3.1071    6.1433   -4.3675 N.am      1 <0>        -0.5980
     17 C12         2.1663    6.5695   -3.5488 C.2       1 <0>         0.7106
     18 O1          1.3692    7.3724   -4.0123 O.2       1 <0>        -0.5825
     19 N2          1.9816    6.2228   -2.2657 N.am      1 <0>        -0.6122
     20 C13         1.1967    7.1045   -1.3924 C.3       1 <0>         0.1629
     21 C14         2.0856    8.1927   -0.8476 C.ar      1 <0>        -0.1038
     22 C15         2.7488    8.0081    0.3512 C.ar      1 <0>        -0.0863
     23 C16         3.5679    9.0044    0.8485 C.ar      1 <0>        -0.1064
     24 C17         3.7156   10.1894    0.1523 C.ar      1 <0>        -0.0890
     25 C18         3.0483   10.3761   -1.0439 C.ar      1 <0>        -0.1065
     26 C19         2.2333    9.3778   -1.5438 C.ar      1 <0>        -0.0964
     27 C20         4.6038   11.2780    0.6975 C.3       1 <0>         0.1162
     28 O2          3.8361   12.1437    1.5361 O.3       1 <0>        -0.5669
     29 C21         2.8189    6.2105   -5.8068 C.3       1 <0>         0.1558
     30 C22         3.1401    7.5908   -6.3194 C.ar      1 <0>        -0.0972
     31 C23         2.1664    8.5720   -6.3193 C.ar      1 <0>        -0.0756
     32 C24         2.4623    9.8395   -6.7850 C.ar      1 <0>        -0.1085
     33 C25         3.7290   10.1227   -7.2606 C.ar      1 <0>        -0.0898
     34 C26         4.7012    9.1401   -7.2656 C.ar      1 <0>        -0.1085
     35 C27         4.4068    7.8741   -6.7950 C.ar      1 <0>        -0.1080
     36 C28         4.0499   11.5027   -7.7741 C.3       1 <0>         0.1165
     37 O3          3.7694   11.5673   -9.1738 O.3       1 <0>        -0.5671
     38 C29         4.4562    4.1036   -4.2000 C.3       1 <0>        -0.0954
     39 C30         4.4005    3.8118   -5.6774 C.ar      1 <0>        -0.0837
     40 C31         3.2084    3.4260   -6.2613 C.ar      1 <0>        -0.1131
     41 C32         3.1563    3.1630   -7.6174 C.ar      1 <0>        -0.1175
     42 C33         4.2986    3.2757   -8.3877 C.ar      1 <0>        -0.1182
     43 C34         5.4919    3.6565   -7.8028 C.ar      1 <0>        -0.1143
     44 C35         5.5428    3.9245   -6.4477 C.ar      1 <0>        -0.1179
     45 O4          6.1588    5.8806   -2.3350 O.3       1 <0>        -0.5544
     46 O5          4.2962    5.5869   -0.2178 O.3       1 <0>        -0.5496
     47 H5          3.5340   -0.0463    1.4608 H         1 <0>         0.1190
     48 H6          4.6232    2.0168    2.2487 H         1 <0>         0.1193
     49 H7          3.8689    4.2052    1.4089 H         1 <0>         0.1335
     50 H8          0.9240    2.2687   -0.9926 H         1 <0>         0.1182
     51 H9          1.6791    0.0802   -0.1538 H         1 <0>         0.1199
     52 H10         0.8038    4.7032   -0.4674 H         1 <0>         0.0793
     53 H11         2.1760    5.4895    0.3493 H         1 <0>         0.1002
     54 H12         0.3834    7.5518   -1.9638 H         1 <0>         0.0964
     55 H13         0.7845    6.5246   -0.5666 H         1 <0>         0.0940
     56 H14         2.6299    7.0840    0.8973 H         1 <0>         0.1272
     57 H15         4.0890    8.8587    1.7832 H         1 <0>         0.1186
     58 H16         3.1635   11.3021   -1.5877 H         1 <0>         0.1173
     59 H17         1.7117    9.5238   -2.4782 H         1 <0>         0.1259
     60 H18         5.4110   10.8316    1.2782 H         1 <0>         0.0530
     61 H19         5.0245   11.8515   -0.1285 H         1 <0>         0.0521
     62 H20         4.3448   12.8696    1.9226 H         1 <0>         0.3806
     63 H21         3.4281    5.4763   -6.3340 H         1 <0>         0.1072
     64 H22         1.7637    5.9963   -5.9765 H         1 <0>         0.0839
     65 H23         1.1755    8.3495   -5.9519 H         1 <0>         0.1367
     66 H24         1.7027   10.6071   -6.7815 H         1 <0>         0.1186
     67 H25         5.6908    9.3613   -7.6375 H         1 <0>         0.1183
     68 H26         5.1662    7.1062   -6.7992 H         1 <0>         0.1161
     69 H27         3.4408   12.2372   -7.2472 H         1 <0>         0.0533
     70 H28         5.1051   11.7172   -7.6048 H         1 <0>         0.0525
     71 H29         3.9530   12.4290   -9.5724 H         1 <0>         0.3800
     72 H30         5.3821    3.7049   -3.7855 H         1 <0>         0.0927
     73 H31         3.6053    3.6355   -3.7049 H         1 <0>         0.0757
     74 H32         2.3169    3.3337   -5.6587 H         1 <0>         0.1196
     75 H33         2.2241    2.8652   -8.0743 H         1 <0>         0.1235
     76 H34         4.2589    3.0660   -9.4464 H         1 <0>         0.1225
     77 H35         6.3844    3.7442   -8.4046 H         1 <0>         0.1230
     78 H36         6.4752    4.2216   -5.9907 H         1 <0>         0.1228
     79 H37         6.4475    6.0996   -1.4384 H         1 <0>         0.3805
     80 H38         5.2359    5.6813   -0.0101 H         1 <0>         0.3684
@<TRIPOS>BOND
     1    1    6 ar
     2    1    2 ar
     3    1   47 1
     4    2    3 ar
     5    2   48 1
     6    3    4 ar
     7    3   49 1
     8    4    5 ar
     9    4    7 1
    10    5    6 ar
    11    5   50 1
    12    6   51 1
    13    7    8 1
    14    7   52 1
    15    7   53 1
    16    8    9 1
    17    8   19 1
    18    8   10 1
    19   10   11 1
    20   10   12 1
    21   10   46 1
    22   12   13 1
    23   12   14 1
    24   12   45 1
    25   14   15 1
    26   14   16 1
    27   14   38 1
    28   16   17 am
    29   16   29 1
    30   17   18 2
    31   17   19 am
    32   19   20 1
    33   20   21 1
    34   20   54 1
    35   20   55 1
    36   21   26 ar
    37   21   22 ar
    38   22   23 ar
    39   22   56 1
    40   23   24 ar
    41   23   57 1
    42   24   25 ar
    43   24   27 1
    44   25   26 ar
    45   25   58 1
    46   26   59 1
    47   27   28 1
    48   27   60 1
    49   27   61 1
    50   28   62 1
    51   29   30 1
    52   29   63 1
    53   29   64 1
    54   30   35 ar
    55   30   31 ar
    56   31   32 ar
    57   31   65 1
    58   32   33 ar
    59   32   66 1
    60   33   34 ar
    61   33   36 1
    62   34   35 ar
    63   34   67 1
    64   35   68 1
    65   36   37 1
    66   36   69 1
    67   36   70 1
    68   37   71 1
    69   38   39 1
    70   38   72 1
    71   38   73 1
    72   39   44 ar
    73   39   40 ar
    74   40   41 ar
    75   40   74 1
    76   41   42 ar
    77   41   75 1
    78   42   43 ar
    79   42   76 1
    80   43   44 ar
    81   43   77 1
    82   44   78 1
    83   45   79 1
    84   46   80 1
@<TRIPOS>MOLECULE
ZINC03833859
   79    84     0     0     0
SMALL
USER_CHARGES

@<TRIPOS>ATOM
      1 C1          3.5831   -4.9893   -0.1998 C.ar      1 <0>        -0.1209
      2 C2          3.1343   -3.8605   -0.8596 C.ar      1 <0>        -0.1201
      3 C3          3.3649   -2.6081   -0.3218 C.ar      1 <0>        -0.0860
      4 C4          4.0445   -2.4845    0.8756 C.ar      1 <0>        -0.0634
      5 C5          4.4982   -3.6130    1.5325 C.ar      1 <0>        -0.1093
      6 C6          4.2627   -4.8657    0.9976 C.ar      1 <0>        -0.1175
      7 C7          4.2962   -1.1192    1.4617 C.3       1 <0>        -0.1057
      8 C8          3.2370   -0.8150    2.5139 C.3       1 <0>         0.1640
      9 H1          3.2095   -1.6909    3.1996 H         1 <0>         0.0919
     10 C9          1.8477   -0.6790    1.9071 C.3       1 <0>         0.0788
     11 H2          1.1471   -0.3526    2.6904 H         1 <0>         0.0669
     12 C10         1.7700    0.3043    0.7570 C.3       1 <0>         0.0646
     13 H3          2.0239   -0.2206   -0.1696 H         1 <0>         0.0772
     14 C11         2.6774    1.5118    0.8819 C.3       1 <0>         0.1587
     15 H4          3.7141    1.2471    0.7261 H         1 <0>         0.0951
     16 N1          2.5108    2.1228    2.2078 N.am      1 <0>        -0.6069
     17 C12         3.0858    1.5455    3.2757 C.2       1 <0>         0.7141
     18 O1          3.1364    2.2100    4.2984 O.2       1 <0>        -0.5881
     19 N2          3.6034    0.3326    3.3298 N.am      1 <0>        -0.6092
     20 C13         4.6633    0.1214    4.3297 C.3       1 <0>         0.1597
     21 C14         5.9872    0.5603    3.7588 C.ar      1 <0>        -0.1154
     22 C15         6.3546    1.8933    3.8133 C.ar      1 <0>        -0.0603
     23 C16         7.5683    2.3046    3.2920 C.ar      1 <0>        -0.1229
     24 C17         8.4207    1.3867    2.7135 C.ar      1 <0>        -0.0772
     25 C18         8.0560    0.0407    2.6548 C.ar      1 <0>        -0.1382
     26 C19         6.8323   -0.3685    3.1883 C.ar      1 <0>        -0.0403
     27 C20         8.9640   -0.9481    2.0366 C.2       1 <0>         0.5629
     28 O2          8.6038   -2.1008    1.8980 O.2       1 <0>        -0.4905
     29 N3         10.1915   -0.5717    1.6264 N.am      1 <0>        -0.6075
     30 C21        11.0448   -1.5009    1.0454 C.2       1 <0>         0.2779
     31 N4         12.2691   -1.3281    0.5860 N.2       1 <0>        -0.5480
     32 C22        12.9484   -2.3278    0.0589 C.2       1 <0>         0.0517
     33 C23        12.3599   -3.5474   -0.0027 C.2       1 <0>        -0.2630
     34 S1         10.7765   -3.1899    0.7444 S.3       1 <0>         0.1613
     35 C24         1.7509    3.3629    2.3510 C.3       1 <0>         0.1598
     36 C25         0.2903    3.0328    2.6646 C.3       1 <0>        -0.1683
     37 C26        -0.2607    3.4832    4.0190 C.3       1 <0>        -0.1755
     38 C27        -0.6975    4.1989    2.7382 C.3       1 <0>        -0.1775
     39 C28         2.2696    2.5439   -0.1788 C.3       1 <0>        -0.0847
     40 C29         2.5677    1.9981   -1.5515 C.ar      1 <0>        -0.0844
     41 C30         3.8379    2.1206   -2.0832 C.ar      1 <0>        -0.1174
     42 C31         4.1123    1.6165   -3.3407 C.ar      1 <0>        -0.1169
     43 C32         3.1144    0.9976   -4.0702 C.ar      1 <0>        -0.1194
     44 C33         1.8430    0.8794   -3.5405 C.ar      1 <0>        -0.1198
     45 C34         1.5696    1.3801   -2.2814 C.ar      1 <0>        -0.1077
     46 O3          0.4181    0.7619    0.6381 O.3       1 <0>        -0.5497
     47 O4          1.4058   -1.9656    1.4461 O.3       1 <0>        -0.5411
     48 H5          3.4024   -5.9678   -0.6196 H         1 <0>         0.1164
     49 H6          2.6033   -3.9571   -1.7950 H         1 <0>         0.1152
     50 H7          3.0143   -1.7262   -0.8372 H         1 <0>         0.1094
     51 H8          5.0331   -3.5162    2.4658 H         1 <0>         0.1148
     52 H9          4.6130   -5.7477    1.5132 H         1 <0>         0.1178
     53 H10         4.2488   -0.3701    0.6713 H         1 <0>         0.0715
     54 H11         5.2834   -1.0983    1.9233 H         1 <0>         0.0901
     55 H12         4.4415    0.7051    5.2231 H         1 <0>         0.1108
     56 H13         4.7123   -0.9361    4.5894 H         1 <0>         0.0923
     57 H14         5.6911    2.6158    4.2651 H         1 <0>         0.1377
     58 H15         7.8494    3.3463    3.3384 H         1 <0>         0.1347
     59 H16         9.3680    1.7090    2.3072 H         1 <0>         0.1279
     60 H17         6.5463   -1.4093    3.1504 H         1 <0>         0.1414
     61 H18        10.4789    0.3481    1.7370 H         1 <0>         0.4243
     62 H19        13.9506   -2.1785   -0.3148 H         1 <0>         0.1722
     63 H20        12.7438   -4.4790   -0.3914 H         1 <0>         0.1972
     64 H21         1.8037    3.9307    1.4220 H         1 <0>         0.0859
     65 H22         2.1720    3.9553    3.1633 H         1 <0>         0.0864
     66 H23        -0.0752    2.0883    2.2615 H         1 <0>         0.1216
     67 H24        -0.9887    2.8351    4.5069 H         1 <0>         0.0869
     68 H25         0.4172    4.0152    4.6864 H         1 <0>         0.0943
     69 H26        -0.3067    5.2013    2.5637 H         1 <0>         0.0917
     70 H27        -1.7127    4.0217    2.3832 H         1 <0>         0.0917
     71 H28         1.2027    2.7503   -0.0937 H         1 <0>         0.1007
     72 H29         2.8314    3.4651   -0.0242 H         1 <0>         0.0797
     73 H30         4.6166    2.6074   -1.5148 H         1 <0>         0.1183
     74 H31         5.1055    1.7091   -3.7547 H         1 <0>         0.1209
     75 H32         3.3280    0.6068   -5.0541 H         1 <0>         0.1207
     76 H33         1.0633    0.3962   -4.1105 H         1 <0>         0.1210
     77 H34         0.5762    1.2881   -1.8677 H         1 <0>         0.1264
     78 H35        -0.2318    0.0510    0.5532 H         1 <0>         0.3728
     79 H36         0.4969   -1.9742    1.1160 H         1 <0>         0.3757
@<TRIPOS>BOND
     1    1    6 ar
     2    1    2 ar
     3    1   48 1
     4    2    3 ar
     5    2   49 1
     6    3    4 ar
     7    3   50 1
     8    4    5 ar
     9    4    7 1
    10    5    6 ar
    11    5   51 1
    12    6   52 1
    13    7    8 1
    14    7   53 1
    15    7   54 1
    16    8    9 1
    17    8   19 1
    18    8   10 1
    19   10   11 1
    20   10   12 1
    21   10   47 1
    22   12   13 1
    23   12   14 1
    24   12   46 1
    25   14   15 1
    26   14   16 1
    27   14   39 1
    28   16   17 am
    29   16   35 1
    30   17   18 2
    31   17   19 am
    32   19   20 1
    33   20   21 1
    34   20   55 1
    35   20   56 1
    36   21   26 ar
    37   21   22 ar
    38   22   23 ar
    39   22   57 1
    40   23   24 ar
    41   23   58 1
    42   24   25 ar
    43   24   59 1
    44   25   26 ar
    45   25   27 1
    46   26   60 1
    47   27   28 2
    48   27   29 am
    49   29   30 1
    50   29   61 1
    51   30   34 1
    52   30   31 2
    53   31   32 1
    54   32   33 2
    55   32   62 1
    56   33   34 1
    57   33   63 1
    58   35   36 1
    59   35   64 1
    60   35   65 1
    61   36   38 1
    62   36   37 1
    63   36   66 1
    64   37   38 1
    65   37   67 1
    66   37   68 1
    67   38   69 1
    68   38   70 1
    69   39   40 1
    70   39   71 1
    71   39   72 1
    72   40   45 ar
    73   40   41 ar
    74   41   42 ar
    75   41   73 1
    76   42   43 ar
    77   42   74 1
    78   43   44 ar
    79   43   75 1
    80   44   45 ar
    81   44   76 1
    82   45   77 1
    83   46   78 1
    84   47   79 1
@<TRIPOS>MOLECULE
ZINC03833860
   75    79     0     0     0
SMALL
USER_CHARGES

@<TRIPOS>ATOM
      1 C1         -2.3172    1.4903   -2.9825 C.ar      1 <0>        -0.1173
      2 C2         -1.4761    2.5177   -2.5979 C.ar      1 <0>        -0.1267
      3 C3         -0.5792    2.3263   -1.5636 C.ar      1 <0>        -0.1053
      4 C4         -0.5231    1.1074   -0.9140 C.ar      1 <0>        -0.0847
      5 C5         -1.3603    0.0781   -1.3023 C.ar      1 <0>        -0.0542
      6 C6         -2.2608    0.2712   -2.3332 C.ar      1 <0>        -0.1345
      7 C7          0.4549    0.8986    0.2133 C.3       1 <0>         0.1681
      8 N1         -0.0927    1.4687    1.4468 N.pl3     1 <0>        -0.9690
      9 C8         -0.9833    0.6884    2.2773 C.3       1 <0>         0.1724
     10 H1         -0.8314    0.9632    3.3211 H         1 <0>         0.1151
     11 C9         -2.4436    0.9359    1.9024 C.3       1 <0>         0.0528
     12 H2         -3.0423    0.0969    2.2572 H         1 <0>         0.0710
     13 C10        -2.9936    2.1813    2.4735 C.3       1 <0>         0.0513
     14 H3         -4.0650    2.2131    2.2752 H         1 <0>         0.0713
     15 C11        -2.3547    3.4460    1.9020 C.3       1 <0>         0.1728
     16 H4         -2.2049    3.3177    0.8300 H         1 <0>         0.1142
     17 N2         -1.0796    3.7150    2.5293 N.pl3     1 <0>        -0.9675
     18 S1          0.3121    3.0220    1.9078 S.o2      1 <0>         2.7698
     19 O1          1.2287    2.9008    2.9868 O.2       1 <0>        -0.9639
     20 O2          0.6236    3.7322    0.7171 O.2       1 <0>        -0.9641
     21 C12        -1.0045    4.5867    3.7043 C.3       1 <0>         0.1680
     22 C13        -1.2664    3.7770    4.9480 C.ar      1 <0>        -0.0851
     23 C14        -2.5191    3.7932    5.5323 C.ar      1 <0>        -0.0546
     24 C15        -2.7607    3.0467    6.6704 C.ar      1 <0>        -0.1351
     25 C16        -1.7468    2.2919    7.2300 C.ar      1 <0>        -0.1170
     26 C17        -0.4925    2.2802    6.6490 C.ar      1 <0>        -0.1264
     27 C18        -0.2524    3.0226    5.5079 C.ar      1 <0>        -0.1052
     28 C19        -3.2910    4.6325    2.1393 C.3       1 <0>         0.0554
     29 O3         -2.7552    5.7962    1.5062 O.3       1 <0>        -0.3026
     30 C20        -3.4703    6.9460    1.6217 C.ar      1 <0>         0.1288
     31 C21        -4.6661    6.9528    2.3251 C.ar      1 <0>        -0.2106
     32 C22        -5.3885    8.1241    2.4456 C.ar      1 <0>        -0.0802
     33 C23        -4.9261    9.2866    1.8570 C.ar      1 <0>        -0.1579
     34 C24        -3.7375    9.2811    1.1506 C.ar      1 <0>        -0.0792
     35 C25        -3.0087    8.1136    1.0317 C.ar      1 <0>        -0.1503
     36 O4         -2.7911    2.1649    3.8880 O.3       1 <0>        -0.5216
     37 O5         -2.5462    1.0007    0.4786 O.3       1 <0>        -0.5217
     38 C26        -0.6639   -0.7972    2.0981 C.3       1 <0>         0.0553
     39 O6          0.6503   -1.0647    2.5913 O.3       1 <0>        -0.3031
     40 C27         1.0921   -2.3471    2.5060 C.ar      1 <0>         0.1289
     41 C28         0.2753   -3.3288    1.9640 C.ar      1 <0>        -0.2106
     42 C29         0.7287   -4.6306    1.8736 C.ar      1 <0>        -0.0802
     43 C30         1.9914   -4.9575    2.3323 C.ar      1 <0>        -0.1579
     44 C31         2.8053   -3.9820    2.8781 C.ar      1 <0>        -0.0792
     45 C32         2.3585   -2.6778    2.9660 C.ar      1 <0>        -0.1503
     46 H5         -3.0181    1.6399   -3.7904 H         1 <0>         0.1127
     47 H6         -1.5199    3.4700   -3.1054 H         1 <0>         0.1146
     48 H7          0.0779    3.1290   -1.2632 H         1 <0>         0.1379
     49 H8         -1.3134   -0.8756   -0.7977 H         1 <0>         0.1080
     50 H9         -2.9176   -0.5316   -2.6338 H         1 <0>         0.1128
     51 H10         0.6274   -0.1687    0.3517 H         1 <0>         0.0907
     52 H11         1.3972    1.3908   -0.0273 H         1 <0>         0.0822
     53 H12        -0.0115    5.0324    3.7633 H         1 <0>         0.0816
     54 H13        -1.7523    5.3753    3.6200 H         1 <0>         0.0910
     55 H14        -3.3102    4.3862    5.0974 H         1 <0>         0.1079
     56 H15        -3.7405    3.0562    7.1245 H         1 <0>         0.1128
     57 H16        -1.9345    1.7116    8.1213 H         1 <0>         0.1127
     58 H17         0.2998    1.6908    7.0864 H         1 <0>         0.1145
     59 H18         0.7276    3.0134    5.0540 H         1 <0>         0.1382
     60 H19        -4.2725    4.4103    1.7205 H         1 <0>         0.0699
     61 H20        -3.3853    4.8124    3.2102 H         1 <0>         0.0802
     62 H21        -5.0298    6.0441    2.7816 H         1 <0>         0.1244
     63 H22        -6.3176    8.1308    2.9963 H         1 <0>         0.1238
     64 H23        -5.4944   10.2004    1.9488 H         1 <0>         0.1236
     65 H24        -3.3787   10.1903    0.6911 H         1 <0>         0.1295
     66 H25        -2.0805    8.1098    0.4795 H         1 <0>         0.1313
     67 H26        -3.2183    1.4233    4.3380 H         1 <0>         0.3688
     68 H27        -3.4443    1.1560    0.1556 H         1 <0>         0.3684
     69 H28        -1.3884   -1.3940    2.6521 H         1 <0>         0.0699
     70 H29        -0.7143   -1.0545    1.0401 H         1 <0>         0.0806
     71 H30        -0.7127   -3.0747    1.6094 H         1 <0>         0.1244
     72 H31         0.0946   -5.3945    1.4484 H         1 <0>         0.1238
     73 H32         2.3425   -5.9766    2.2645 H         1 <0>         0.1236
     74 H33         3.7909   -4.2400    3.2364 H         1 <0>         0.1295
     75 H34         2.9944   -1.9162    3.3927 H         1 <0>         0.1313
@<TRIPOS>BOND
     1    1    6 ar
     2    1    2 ar
     3    1   46 1
     4    2    3 ar
     5    2   47 1
     6    3    4 ar
     7    3   48 1
     8    4    5 ar
     9    4    7 1
    10    5    6 ar
    11    5   49 1
    12    6   50 1
    13    7    8 1
    14    7   51 1
    15    7   52 1
    16    8   18 1
    17    8    9 1
    18    9   10 1
    19    9   11 1
    20    9   38 1
    21   11   12 1
    22   11   13 1
    23   11   37 1
    24   13   14 1
    25   13   15 1
    26   13   36 1
    27   15   16 1
    28   15   17 1
    29   15   28 1
    30   17   18 1
    31   17   21 1
    32   18   19 2
    33   18   20 2
    34   21   22 1
    35   21   53 1
    36   21   54 1
    37   22   27 ar
    38   22   23 ar
    39   23   24 ar
    40   23   55 1
    41   24   25 ar
    42   24   56 1
    43   25   26 ar
    44   25   57 1
    45   26   27 ar
    46   26   58 1
    47   27   59 1
    48   28   29 1
    49   28   60 1
    50   28   61 1
    51   29   30 1
    52   30   35 ar
    53   30   31 ar
    54   31   32 ar
    55   31   62 1
    56   32   33 ar
    57   32   63 1
    58   33   34 ar
    59   33   64 1
    60   34   35 ar
    61   34   65 1
    62   35   66 1
    63   36   67 1
    64   37   68 1
    65   38   39 1
    66   38   69 1
    67   38   70 1
    68   39   40 1
    69   40   45 ar
    70   40   41 ar
    71   41   42 ar
    72   41   71 1
    73   42   43 ar
    74   42   72 1
    75   43   44 ar
    76   43   73 1
    77   44   45 ar
    78   44   74 1
    79   45   75 1
@<TRIPOS>MOLECULE
ZINC03833861
   74    78     0     0     0
SMALL
USER_CHARGES

@<TRIPOS>ATOM
      1 C1          1.5408    6.9442   -2.8838 C.ar      1 <0>        -0.1157
      2 C2          2.7103    6.4900   -2.3033 C.ar      1 <0>        -0.1270
      3 C3          2.6772    5.4214   -1.4271 C.ar      1 <0>        -0.1070
      4 C4          1.4748    4.8069   -1.1314 C.ar      1 <0>        -0.1051
      5 C5          0.3055    5.2603   -1.7130 C.ar      1 <0>        -0.0823
      6 C6          0.3384    6.3295   -2.5885 C.ar      1 <0>        -0.1267
      7 C7          1.4388    3.6416   -0.1765 C.3       1 <0>         0.1668
      8 N1          1.3625    4.1407    1.2020 N.am      1 <0>        -0.5969
      9 C8          2.6232    4.4878    1.8497 C.3       1 <0>         0.1526
     10 H1          3.2430    5.0168    1.1056 H         1 <0>         0.1091
     11 C9          2.3965    5.4306    3.0306 C.3       1 <0>         0.0859
     12 H2          1.6392    6.1755    2.7557 H         1 <0>         0.0871
     13 C10         1.9380    4.6939    4.2701 C.3       1 <0>         0.0616
     14 H3          2.7576    4.0890    4.6643 H         1 <0>         0.0785
     15 C11         0.7262    3.8117    4.0708 C.3       1 <0>         0.1599
     16 H4          1.0471    2.8049    3.7949 H         1 <0>         0.0986
     17 N2         -0.1586    4.3347    3.0325 N.am      1 <0>        -0.6066
     18 C12         0.1629    4.2692    1.7318 C.2       1 <0>         0.7110
     19 O1         -0.7696    4.3362    0.9426 O.2       1 <0>        -0.5797
     20 C13        -1.4367    4.9447    3.4225 C.3       1 <0>         0.1670
     21 C14        -1.2779    6.4416    3.4934 C.ar      1 <0>        -0.1150
     22 C15        -0.8213    7.0339    4.6560 C.ar      1 <0>        -0.0883
     23 C16        -0.6715    8.4067    4.7196 C.ar      1 <0>        -0.1279
     24 C17        -0.9870    9.1879    3.6237 C.ar      1 <0>        -0.1151
     25 C18        -1.4486    8.5960    2.4629 C.ar      1 <0>        -0.1263
     26 C19        -1.5943    7.2229    2.3978 C.ar      1 <0>        -0.0930
     27 C20        -0.0520    3.7258    5.3899 C.3       1 <0>         0.0589
     28 O2         -1.1191    2.7853    5.2530 O.3       1 <0>        -0.3108
     29 C21        -1.9117    2.5891    6.3394 C.ar      1 <0>         0.1268
     30 C22        -1.6639    3.2832    7.5148 C.ar      1 <0>        -0.2080
     31 C23        -2.4742    3.0858    8.6160 C.ar      1 <0>        -0.0801
     32 C24        -3.5251    2.1896    8.5508 C.ar      1 <0>        -0.1562
     33 C25        -3.7707    1.4924    7.3823 C.ar      1 <0>        -0.0800
     34 C26        -2.9664    1.6901    6.2767 C.ar      1 <0>        -0.1491
     35 O3          1.6181    5.6683    5.2766 O.3       1 <0>        -0.5542
     36 O4          3.6166    6.1266    3.3205 O.3       1 <0>        -0.5515
     37 C27         3.3714    3.2273    2.2699 C.3       1 <0>         0.0478
     38 O5          3.7638    2.4961    1.1065 O.3       1 <0>        -0.3074
     39 C28         4.5345    1.3938    1.3013 C.ar      1 <0>         0.1276
     40 C29         4.8216    0.9656    2.5893 C.ar      1 <0>        -0.2074
     41 C30         5.6008   -0.1583    2.7846 C.ar      1 <0>        -0.0801
     42 C31         6.1031   -0.8501    1.6979 C.ar      1 <0>        -0.1562
     43 C32         5.8230   -0.4221    0.4134 C.ar      1 <0>        -0.0795
     44 C33         5.0400    0.6982    0.2127 C.ar      1 <0>        -0.1495
     45 H5          1.5665    7.7796   -3.5679 H         1 <0>         0.1187
     46 H6          3.6497    6.9703   -2.5341 H         1 <0>         0.1193
     47 H7          3.5915    5.0636   -0.9771 H         1 <0>         0.1181
     48 H8         -0.6339    4.7802   -1.4819 H         1 <0>         0.1298
     49 H9         -0.5753    6.6849   -3.0415 H         1 <0>         0.1194
     50 H10         0.5654    3.0249   -0.3885 H         1 <0>         0.0938
     51 H11         2.3429    3.0449   -0.2973 H         1 <0>         0.1016
     52 H12        -2.1988    4.6947    2.6844 H         1 <0>         0.0960
     53 H13        -1.7378    4.5646    4.3987 H         1 <0>         0.0961
     54 H14        -0.5784    6.4239    5.5135 H         1 <0>         0.1243
     55 H15        -0.3106    8.8690    5.6265 H         1 <0>         0.1184
     56 H16        -0.8725   10.2606    3.6743 H         1 <0>         0.1182
     57 H17        -1.6951    9.2064    1.6066 H         1 <0>         0.1187
     58 H18        -1.9549    6.7605    1.4909 H         1 <0>         0.1240
     59 H19         0.6179    3.4019    6.1865 H         1 <0>         0.0780
     60 H20        -0.4608    4.7060    5.6351 H         1 <0>         0.0911
     61 H21        -0.8406    3.9802    7.5675 H         1 <0>         0.1270
     62 H22        -2.2840    3.6287    9.5301 H         1 <0>         0.1247
     63 H23        -4.1550    2.0337    9.4141 H         1 <0>         0.1241
     64 H24        -4.5922    0.7930    7.3339 H         1 <0>         0.1298
     65 H25        -3.1589    1.1455    5.3641 H         1 <0>         0.1306
     66 H26         2.3609    6.2353    5.5253 H         1 <0>         0.3776
     67 H27         3.5502    6.7452    4.0608 H         1 <0>         0.3846
     68 H28         4.2575    3.5041    2.8411 H         1 <0>         0.0818
     69 H29         2.7208    2.6071    2.8865 H         1 <0>         0.0642
     70 H30         4.4330    1.5081    3.4385 H         1 <0>         0.1233
     71 H31         5.8216   -0.4942    3.7870 H         1 <0>         0.1245
     72 H32         6.7154   -1.7262    1.8528 H         1 <0>         0.1243
     73 H33         6.2165   -0.9642   -0.4338 H         1 <0>         0.1301
     74 H34         4.8212    1.0319   -0.7909 H         1 <0>         0.1312
@<TRIPOS>BOND
     1    1    6 ar
     2    1    2 ar
     3    1   45 1
     4    2    3 ar
     5    2   46 1
     6    3    4 ar
     7    3   47 1
     8    4    5 ar
     9    4    7 1
    10    5    6 ar
    11    5   48 1
    12    6   49 1
    13    7    8 1
    14    7   50 1
    15    7   51 1
    16    8   18 am
    17    8    9 1
    18    9   10 1
    19    9   11 1
    20    9   37 1
    21   11   12 1
    22   11   13 1
    23   11   36 1
    24   13   14 1
    25   13   15 1
    26   13   35 1
    27   15   16 1
    28   15   17 1
    29   15   27 1
    30   17   18 am
    31   17   20 1
    32   18   19 2
    33   20   21 1
    34   20   52 1
    35   20   53 1
    36   21   26 ar
    37   21   22 ar
    38   22   23 ar
    39   22   54 1
    40   23   24 ar
    41   23   55 1
    42   24   25 ar
    43   24   56 1
    44   25   26 ar
    45   25   57 1
    46   26   58 1
    47   27   28 1
    48   27   59 1
    49   27   60 1
    50   28   29 1
    51   29   34 ar
    52   29   30 ar
    53   30   31 ar
    54   30   61 1
    55   31   32 ar
    56   31   62 1
    57   32   33 ar
    58   32   63 1
    59   33   34 ar
    60   33   64 1
    61   34   65 1
    62   35   66 1
    63   36   67 1
    64   37   38 1
    65   37   68 1
    66   37   69 1
    67   38   39 1
    68   39   44 ar
    69   39   40 ar
    70   40   41 ar
    71   40   70 1
    72   41   42 ar
    73   41   71 1
    74   42   43 ar
    75   42   72 1
    76   43   44 ar
    77   43   73 1
    78   44   74 1
