@<TRIPOS>MOLECULE
ZINC00002216
   24    25     0     0     0
SMALL
USER_CHARGES

@<TRIPOS>ATOM
      1 C1          0.9581    7.2383   -0.1766 C.ar      1 <0>        -0.0768
      2 C2          1.0248    5.8606   -0.0791 C.ar      1 <0>        -0.1670
      3 C3          2.2549    5.2235   -0.0956 C.ar      1 <0>         0.1028
      4 C4          3.4228    5.9733   -0.2057 C.ar      1 <0>         0.1015
      5 C5          3.3496    7.3527   -0.3088 C.ar      1 <0>        -0.1001
      6 C6          2.1179    7.9833   -0.2913 C.ar      1 <0>        -0.0490
      7 Cl1         2.0282    9.7126   -0.4139 Cl        1 <0>        -0.0576
      8 O1          4.6326    5.3525   -0.2167 O.3       1 <0>        -0.4792
      9 O2          2.3218    3.8687    0.0011 O.3       1 <0>        -0.2349
     10 C7          1.1559    3.1701   -0.0073 C.ar      1 <0>         0.0909
     11 C8          0.5953    2.7398    1.1865 C.ar      1 <0>        -0.0951
     12 C9         -0.5894    2.0295    1.1760 C.ar      1 <0>        -0.0906
     13 C10        -1.2205    1.7516   -0.0238 C.ar      1 <0>        -0.0221
     14 C11        -0.6609    2.1744   -1.2164 C.ar      1 <0>        -0.0912
     15 C12         0.5246    2.8856   -1.2106 C.ar      1 <0>        -0.0400
     16 Cl2         1.2228    3.4228   -2.7064 Cl        1 <0>        -0.0345
     17 Cl3        -2.7130    0.8649   -0.0331 Cl        1 <0>        -0.0435
     18 H1         -0.0015    7.7337   -0.1629 H         1 <0>         0.1426
     19 H2          0.1178    5.2812    0.0103 H         1 <0>         0.1391
     20 H3          4.2539    7.9363   -0.3984 H         1 <0>         0.1508
     21 H4          4.9412    5.1080   -1.0999 H         1 <0>         0.3933
     22 H5          1.0847    2.9604    2.1237 H         1 <0>         0.1546
     23 H6         -1.0260    1.6948    2.1054 H         1 <0>         0.1521
     24 H7         -1.1528    1.9526   -2.1519 H         1 <0>         0.1539
@<TRIPOS>BOND
     1    1    6 ar
     2    1    2 ar
     3    1   18 1
     4    2    3 ar
     5    2   19 1
     6    3    4 ar
     7    3    9 1
     8    4    5 ar
     9    4    8 1
    10    5    6 ar
    11    5   20 1
    12    6    7 1
    13    8   21 1
    14    9   10 1
    15   10   15 ar
    16   10   11 ar
    17   11   12 ar
    18   11   22 1
    19   12   13 ar
    20   12   23 1
    21   13   14 ar
    22   13   17 1
    23   14   15 ar
    24   14   24 1
    25   15   16 1
@<TRIPOS>MOLECULE
ZINC00162027
   39    41     0     0     0
SMALL
USER_CHARGES

@<TRIPOS>ATOM
      1 C1         -6.6316    4.1039    5.8814 C.ar      1 <0>        -0.1288
      2 C2         -6.0770    5.0924    6.6731 C.ar      1 <0>        -0.0896
      3 C3         -5.0879    5.9122    6.1642 C.ar      1 <0>        -0.1534
      4 C4         -4.6522    5.7433    4.8606 C.ar      1 <0>         0.1124
      5 C5         -5.2082    4.7532    4.0688 C.ar      1 <0>        -0.1030
      6 C6         -6.2015    3.9381    4.5783 C.ar      1 <0>        -0.0795
      7 C7         -4.7351    4.5681    2.6500 C.3       1 <0>        -0.1026
      8 C8         -3.5117    3.6883    2.6392 C.2       1 <0>         0.5145
      9 O1         -3.0677    3.2542    3.6810 O.2       1 <0>        -0.5280
     10 N1         -2.9109    3.3837    1.4718 N.am      1 <0>        -0.7332
     11 C9         -1.7216    2.5284    1.4613 C.3       1 <0>         0.1244
     12 C10        -1.2412    2.3405    0.0209 C.3       1 <0>        -0.0519
     13 C11        -0.0178    1.4607    0.0101 C.2       1 <0>        -0.1734
     14 C12         1.2604    1.8706    0.0001 C.2       1 <0>         0.0615
     15 N2          2.0974    0.7881   -0.0137 N.pl3     1 <0>        -0.5948
     16 H1          3.0663    0.8331   -0.0232 H         1 <0>         0.4172
     17 C13         1.3594   -0.3743   -0.0129 C.ar      1 <0>         0.0948
     18 C14         0.0021   -0.0041    0.0020 C.ar      1 <0>        -0.1005
     19 C15        -0.9882   -0.9879    0.0069 C.ar      1 <0>        -0.0714
     20 C16        -0.6335   -2.3076   -0.0030 C.ar      1 <0>        -0.1447
     21 C17         0.7039   -2.6780   -0.0182 C.ar      1 <0>        -0.0980
     22 C18         1.6976   -1.7234   -0.0230 C.ar      1 <0>        -0.1302
     23 F1         -3.6855    6.5445    4.3618 F         1 <0>        -0.1383
     24 H2         -7.4047    3.4636    6.2800 H         1 <0>         0.1307
     25 H3         -6.4172    5.2242    7.6896 H         1 <0>         0.1331
     26 H4         -4.6551    6.6845    6.7827 H         1 <0>         0.1356
     27 H5         -6.6386    3.1685    3.9593 H         1 <0>         0.1311
     28 H6         -4.4884    5.5387    2.2198 H         1 <0>         0.1064
     29 H7         -5.5245    4.1000    2.0619 H         1 <0>         0.1096
     30 H8         -3.2660    3.7309    0.6386 H         1 <0>         0.4010
     31 H9         -1.9683    1.5578    1.8916 H         1 <0>         0.0690
     32 H10        -0.9322    2.9965    2.0494 H         1 <0>         0.0672
     33 H11        -0.9945    3.3112   -0.4094 H         1 <0>         0.0765
     34 H12        -2.0306    1.8724   -0.5672 H         1 <0>         0.0771
     35 H13         1.5808    2.9019    0.0018 H         1 <0>         0.1706
     36 H14        -2.0310   -0.7070    0.0184 H         1 <0>         0.1202
     37 H15        -1.4001   -3.0684    0.0012 H         1 <0>         0.1227
     38 H16         0.9686   -3.7250   -0.0261 H         1 <0>         0.1256
     39 H17         2.7355   -2.0217   -0.0342 H         1 <0>         0.1199
@<TRIPOS>BOND
     1    1    6 ar
     2    1    2 ar
     3    1   24 1
     4    2    3 ar
     5    2   25 1
     6    3    4 ar
     7    3   26 1
     8    4    5 ar
     9    4   23 1
    10    5    6 ar
    11    5    7 1
    12    6   27 1
    13    7    8 1
    14    7   28 1
    15    7   29 1
    16    8    9 2
    17    8   10 am
    18   10   11 1
    19   10   30 1
    20   11   12 1
    21   11   31 1
    22   11   32 1
    23   12   13 1
    24   12   33 1
    25   12   34 1
    26   13   18 1
    27   13   14 2
    28   14   15 1
    29   14   35 1
    30   15   16 1
    31   15   17 1
    32   17   22 ar
    33   17   18 ar
    34   18   19 ar
    35   19   20 ar
    36   19   36 1
    37   20   21 ar
    38   20   37 1
    39   21   22 ar
    40   21   38 1
    41   22   39 1
@<TRIPOS>MOLECULE
ZINC02650665
   48    50     0     0     0
SMALL
USER_CHARGES

@<TRIPOS>ATOM
      1 C1         -0.9786    4.0843    0.7574 C.ar      1 <0>        -0.1213
      2 C2          0.2719    3.7520    0.2711 C.ar      1 <0>        -0.1160
      3 C3          0.5894    2.4289    0.0269 C.ar      1 <0>        -0.1132
      4 C4         -0.3439    1.4383    0.2686 C.ar      1 <0>        -0.0744
      5 C5         -1.5964    1.7711    0.7495 C.ar      1 <0>        -0.1140
      6 C6         -1.9121    3.0937    0.9987 C.ar      1 <0>        -0.1174
      7 C7          0.0021   -0.0041    0.0020 C.3       1 <0>        -0.0034
      8 C8         -0.3028   -0.8401    1.2466 C.3       1 <0>        -0.1215
      9 C9          0.6178   -0.4077    2.3896 C.3       1 <0>         0.1200
     10 N1          0.3259   -1.2082    3.5813 N.am      1 <0>        -0.7322
     11 C10         1.0188   -1.0010    4.7186 C.2       1 <0>         0.5149
     12 O1          1.8839   -0.1518    4.7554 O.2       1 <0>        -0.5271
     13 C11         0.7185   -1.8245    5.9445 C.3       1 <0>        -0.1026
     14 C12         1.6253   -1.3985    7.0702 C.ar      1 <0>        -0.1032
     15 C13         2.8013   -2.0848    7.3081 C.ar      1 <0>        -0.0796
     16 C14         3.6360   -1.6907    8.3370 C.ar      1 <0>        -0.1289
     17 C15         3.2902   -0.6170    9.1365 C.ar      1 <0>        -0.0892
     18 C16         2.1123    0.0670    8.9042 C.ar      1 <0>        -0.1532
     19 C17         1.2780   -0.3233    7.8701 C.ar      1 <0>         0.1127
     20 F1          0.1259    0.3444    7.6423 F         1 <0>        -0.1380
     21 C18        -0.8171   -0.5112   -1.1568 C.ar      1 <0>        -0.0727
     22 C19        -0.2017   -0.8197   -2.3556 C.ar      1 <0>        -0.1135
     23 C20        -0.9524   -1.2895   -3.4170 C.ar      1 <0>        -0.1172
     24 C21        -2.3199   -1.4412   -3.2829 C.ar      1 <0>        -0.1218
     25 C22        -2.9360   -1.1273   -2.0859 C.ar      1 <0>        -0.1178
     26 C23        -2.1846   -0.6625   -1.0228 C.ar      1 <0>        -0.1138
     27 H1         -1.2265    5.1180    0.9485 H         1 <0>         0.1211
     28 H2          1.0011    4.5260    0.0822 H         1 <0>         0.1222
     29 H3          1.5665    2.1693   -0.3530 H         1 <0>         0.1214
     30 H4         -2.3271    0.9975    0.9341 H         1 <0>         0.1205
     31 H5         -2.8892    3.3534    1.3783 H         1 <0>         0.1212
     32 H6          1.0619   -0.0849   -0.2393 H         1 <0>         0.0904
     33 H7         -1.3417   -0.6894    1.5400 H         1 <0>         0.0750
     34 H8         -0.1369   -1.8945    1.0256 H         1 <0>         0.0774
     35 H9          1.6567   -0.5584    2.0961 H         1 <0>         0.0679
     36 H10         0.4520    0.6467    2.6106 H         1 <0>         0.0718
     37 H11        -0.3660   -1.8873    3.5518 H         1 <0>         0.4008
     38 H12        -0.3204   -1.6738    6.2379 H         1 <0>         0.1062
     39 H13         0.8844   -2.8789    5.7234 H         1 <0>         0.1094
     40 H14         3.0703   -2.9264    6.6870 H         1 <0>         0.1309
     41 H15         4.5569   -2.2247    8.5193 H         1 <0>         0.1307
     42 H16         3.9408   -0.3130    9.9432 H         1 <0>         0.1333
     43 H17         1.8422    0.9054    9.5291 H         1 <0>         0.1358
     44 H18         0.8661   -0.6972   -2.4617 H         1 <0>         0.1216
     45 H19        -0.4711   -1.5343   -4.3523 H         1 <0>         0.1224
     46 H20        -2.9069   -1.8047   -4.1134 H         1 <0>         0.1213
     47 H21        -4.0044   -1.2455   -1.9812 H         1 <0>         0.1217
     48 H22        -2.6659   -0.4173   -0.0876 H         1 <0>         0.1212
@<TRIPOS>BOND
     1    1    6 ar
     2    1    2 ar
     3    1   27 1
     4    2    3 ar
     5    2   28 1
     6    3    4 ar
     7    3   29 1
     8    4    5 ar
     9    4    7 1
    10    5    6 ar
    11    5   30 1
    12    6   31 1
    13    7    8 1
    14    7   21 1
    15    7   32 1
    16    8    9 1
    17    8   33 1
    18    8   34 1
    19    9   10 1
    20    9   35 1
    21    9   36 1
    22   10   11 am
    23   10   37 1
    24   11   12 2
    25   11   13 1
    26   13   14 1
    27   13   38 1
    28   13   39 1
    29   14   19 ar
    30   14   15 ar
    31   15   16 ar
    32   15   40 1
    33   16   17 ar
    34   16   41 1
    35   17   18 ar
    36   17   42 1
    37   18   19 ar
    38   18   43 1
    39   19   20 1
    40   21   26 ar
    41   21   22 ar
    42   22   23 ar
    43   22   44 1
    44   23   24 ar
    45   23   45 1
    46   24   25 ar
    47   24   46 1
    48   25   26 ar
    49   25   47 1
    50   26   48 1
@<TRIPOS>MOLECULE
ZINC03565391
   32    33     0     0     0
SMALL
USER_CHARGES

@<TRIPOS>ATOM
      1 C1          0.0596   -0.4029    6.6342 C.ar      1 <0>        -0.1288
      2 C2          1.1392    0.3024    7.1330 C.ar      1 <0>        -0.0888
      3 C3          1.5512    1.4662    6.5125 C.ar      1 <0>        -0.1530
      4 C4          0.8824    1.9262    5.3906 C.ar      1 <0>         0.1128
      5 C5         -0.1984    1.2192    4.8920 C.ar      1 <0>        -0.1041
      6 C6         -0.6123    0.0583    5.5177 C.ar      1 <0>        -0.0794
      7 C7         -0.9273    1.7184    3.6711 C.3       1 <0>        -0.1018
      8 C8         -0.2219    1.2324    2.4312 C.2       1 <0>         0.5164
      9 O1          0.7745    0.5480    2.5293 O.2       1 <0>        -0.5263
     10 N1         -0.6984    1.5583    1.2133 N.am      1 <0>        -0.7290
     11 C9         -0.0127    1.0858    0.0080 C.3       1 <0>         0.1621
     12 C10        -0.7416    1.5850   -1.2129 C.ar      1 <0>        -0.0983
     13 C11        -1.7500    0.8243   -1.7750 C.ar      1 <0>        -0.0961
     14 C12        -2.4222    1.2837   -2.8920 C.ar      1 <0>        -0.1070
     15 C13        -2.0795    2.4994   -3.4539 C.ar      1 <0>        -0.1017
     16 C14        -1.0671    3.2585   -2.8950 C.ar      1 <0>        -0.0365
     17 C15        -0.3980    2.8004   -1.7737 C.ar      1 <0>        -0.0920
     18 Cl1        -0.6357    4.7849   -3.6005 Cl        1 <0>        -0.0640
     19 F1          1.2840    3.0642    4.7833 F         1 <0>        -0.1379
     20 H1         -0.2617   -1.3124    7.1198 H         1 <0>         0.1309
     21 H2          1.6605   -0.0564    8.0083 H         1 <0>         0.1335
     22 H3          2.3943    2.0171    6.9026 H         1 <0>         0.1360
     23 H4         -1.4582   -0.4910    5.1316 H         1 <0>         0.1311
     24 H5         -0.9421    2.8083    3.6771 H         1 <0>         0.1072
     25 H6         -1.9499    1.3411    3.6788 H         1 <0>         0.1103
     26 H7         -1.4954    2.1056    1.1349 H         1 <0>         0.4031
     27 H8          0.0021   -0.0041    0.0020 H         1 <0>         0.0814
     28 H9          1.0099    1.4631    0.0003 H         1 <0>         0.0797
     29 H10        -2.0151   -0.1275   -1.3390 H         1 <0>         0.1320
     30 H11        -3.2124    0.6908   -3.3284 H         1 <0>         0.1362
     31 H12        -2.6018    2.8562   -4.3293 H         1 <0>         0.1361
     32 H13         0.3922    3.3928   -1.3367 H         1 <0>         0.1358
@<TRIPOS>BOND
     1    1    6 ar
     2    1    2 ar
     3    1   20 1
     4    2    3 ar
     5    2   21 1
     6    3    4 ar
     7    3   22 1
     8    4    5 ar
     9    4   19 1
    10    5    6 ar
    11    5    7 1
    12    6   23 1
    13    7    8 1
    14    7   24 1
    15    7   25 1
    16    8    9 2
    17    8   10 am
    18   10   11 1
    19   10   26 1
    20   11   12 1
    21   11   27 1
    22   11   28 1
    23   12   17 ar
    24   12   13 ar
    25   13   14 ar
    26   13   29 1
    27   14   15 ar
    28   14   30 1
    29   15   16 ar
    30   15   31 1
    31   16   17 ar
    32   16   18 1
    33   17   32 1
@<TRIPOS>MOLECULE
ZINC03591536
   38    40     0     0     0
SMALL
USER_CHARGES

@<TRIPOS>ATOM
      1 C1         -3.6137    2.9975    0.0522 C.3       1 <0>         0.0253
      2 O1         -2.4284    3.7957    0.0452 O.3       1 <0>        -0.3059
      3 C2         -1.2395    3.1355    0.0307 C.ar      1 <0>         0.0981
      4 C3         -1.2175    1.7494    0.0173 C.ar      1 <0>        -0.1655
      5 C4         -0.0126    1.0758    0.0080 C.ar      1 <0>        -0.1105
      6 C5          1.1844    1.7884    0.0004 C.ar      1 <0>        -0.0010
      7 C6          1.1637    3.1812    0.0080 C.ar      1 <0>        -0.1655
      8 C7         -0.0462    3.8526    0.0232 C.ar      1 <0>         0.1076
      9 O2         -0.0695    5.2123    0.0312 O.3       1 <0>        -0.3050
     10 C8          1.1923    5.8829    0.0232 C.3       1 <0>         0.0240
     11 C9          2.4806    1.0643   -0.0164 C.2       1 <0>        -0.1679
     12 C10         3.7621    1.6515   -0.0251 C.2       1 <0>         0.0840
     13 N1          4.6512    0.6947   -0.0389 N.2       1 <0>        -0.2474
     14 N2          3.9826   -0.5356   -0.0396 N.pl3     1 <0>        -0.3198
     15 C11         2.6468   -0.2890   -0.0202 C.2       1 <0>         0.0941
     16 C12         4.5831   -1.7942   -0.0525 C.ar      1 <0>         0.5749
     17 N3          3.8184   -2.8743   -0.0510 N.ar      1 <0>        -0.5135
     18 C13         4.3551   -4.0830   -0.0630 C.ar      1 <0>         0.1998
     19 C14         5.7357   -4.2094   -0.0771 C.ar      1 <0>        -0.1994
     20 C15         6.5057   -3.0569   -0.0783 C.ar      1 <0>         0.1220
     21 N4          5.9035   -1.8791   -0.0713 N.ar      1 <0>        -0.4738
     22 C16         8.0100   -3.1445   -0.0940 C.3       1 <0>         0.5271
     23 F1          8.4622   -3.1640   -1.4177 F         1 <0>        -0.1614
     24 F2          8.5487   -2.0351    0.5665 F         1 <0>        -0.1547
     25 F3          8.4157   -4.3158    0.5547 F         1 <0>        -0.1619
     26 H1         -3.6364    2.3729   -0.8407 H         1 <0>         0.0556
     27 H2         -3.6197    2.3639    0.9391 H         1 <0>         0.0556
     28 H3         -4.4890    3.6470    0.0637 H         1 <0>         0.1013
     29 H4         -2.1447    1.1956    0.0187 H         1 <0>         0.1384
     30 H5          0.0021   -0.0041    0.0020 H         1 <0>         0.1278
     31 H6          2.0902    3.7360    0.0025 H         1 <0>         0.1377
     32 H7          1.7459    5.6048   -0.8736 H         1 <0>         0.0562
     33 H8          1.0309    6.9609    0.0308 H         1 <0>         0.1019
     34 H9          1.7626    5.5946    0.9062 H         1 <0>         0.0562
     35 H10         3.9726    2.7107   -0.0213 H         1 <0>         0.1998
     36 H11         1.8605   -1.0292   -0.0115 H         1 <0>         0.1924
     37 H12         3.7257   -4.9607   -0.0613 H         1 <0>         0.1993
     38 H13         6.2008   -5.1841   -0.0874 H         1 <0>         0.1740
@<TRIPOS>BOND
     1    1    2 1
     2    1   26 1
     3    1   27 1
     4    1   28 1
     5    2    3 1
     6    3    8 ar
     7    3    4 ar
     8    4    5 ar
     9    4   29 1
    10    5    6 ar
    11    5   30 1
    12    6    7 ar
    13    6   11 1
    14    7    8 ar
    15    7   31 1
    16    8    9 1
    17    9   10 1
    18   10   32 1
    19   10   33 1
    20   10   34 1
    21   11   15 2
    22   11   12 1
    23   12   13 2
    24   12   35 1
    25   13   14 1
    26   14   15 1
    27   14   16 1
    28   15   36 1
    29   16   21 ar
    30   16   17 ar
    31   17   18 ar
    32   18   19 ar
    33   18   37 1
    34   19   20 ar
    35   19   38 1
    36   20   21 ar
    37   20   22 1
    38   22   23 1
    39   22   24 1
    40   22   25 1
@<TRIPOS>MOLECULE
ZINC03591540
   38    40     0     0     0
SMALL
USER_CHARGES

@<TRIPOS>ATOM
      1 C1          4.3212   -1.0500   -1.7992 C.3       1 <0>        -0.6477
      2 S1          3.9322   -0.8310   -0.0410 S.o2      1 <0>         2.5018
      3 O1          4.8592    0.0644    0.5575 O.2       1 <0>        -0.9262
      4 O2          3.6493   -2.0881    0.5580 O.2       1 <0>        -0.9249
      5 C2          2.3963    0.0323   -0.0211 C.ar      1 <0>        -0.6704
      6 C3          2.3833    1.4156   -0.0131 C.ar      1 <0>         0.0300
      7 C4          1.1831    2.0967    0.0020 C.ar      1 <0>        -0.1298
      8 C5         -0.0168    1.3887    0.0097 C.ar      1 <0>         0.1205
      9 C6          0.0021   -0.0041    0.0020 C.ar      1 <0>        -0.0609
     10 C7          1.2082   -0.6754   -0.0131 C.ar      1 <0>         0.0475
     11 N1         -1.2688   -0.7629    0.0096 N.pl3     1 <0>         0.0293
     12 O3         -1.2511   -1.9807    0.0029 O.2       1 <0>        -0.1478
     13 O4         -2.3324   -0.1694    0.0225 O.3       1 <0>        -0.1486
     14 C8         -1.3110    2.1161    0.0198 C.2       1 <0>        -0.2241
     15 C9         -2.3969    1.8954   -0.8517 C.2       1 <0>         0.1426
     16 N2         -3.3544    2.7236   -0.5308 N.2       1 <0>        -0.2451
     17 N3         -2.9224    3.5103    0.5440 N.pl3     1 <0>        -0.3180
     18 C10        -1.6624    3.1227    0.8699 C.2       1 <0>         0.1300
     19 C11        -3.6575    4.5166    1.1699 C.ar      1 <0>         0.5735
     20 N4         -3.1171    5.1763    2.1820 N.ar      1 <0>        -0.5150
     21 C12        -3.7842    6.1402    2.7945 C.ar      1 <0>         0.1999
     22 C13        -5.0681    6.4478    2.3711 C.ar      1 <0>        -0.1956
     23 C14        -5.6047    5.7329    1.3118 C.ar      1 <0>         0.1225
     24 N5         -4.8800    4.7849    0.7408 N.ar      1 <0>        -0.4692
     25 C15        -6.9965    6.0315    0.8171 C.3       1 <0>         0.5256
     26 F1         -7.3477    5.1077   -0.1731 F         1 <0>        -0.1515
     27 F2         -7.8995    5.9399    1.8817 F         1 <0>        -0.1615
     28 F3         -7.0344    7.3241    0.2834 F         1 <0>        -0.1620
     29 H1          4.4010   -0.0740   -2.2780 H         1 <0>         0.1346
     30 H2          5.2674   -1.5818   -1.8985 H         1 <0>         0.1398
     31 H3          3.5288   -1.6257   -2.2776 H         1 <0>         0.1347
     32 H4          3.3139    1.9635   -0.0190 H         1 <0>         0.1656
     33 H5          1.1740    3.1767    0.0076 H         1 <0>         0.1599
     34 H6          1.2240   -1.7553   -0.0191 H         1 <0>         0.1744
     35 H7         -2.4322    1.1647   -1.6462 H         1 <0>         0.1972
     36 H8         -1.0504    3.5363    1.6578 H         1 <0>         0.1955
     37 H9         -3.3362    6.6779    3.6170 H         1 <0>         0.1998
     38 H10        -5.6375    7.2269    2.8560 H         1 <0>         0.1734
@<TRIPOS>BOND
     1    1    2 1
     2    1   29 1
     3    1   30 1
     4    1   31 1
     5    2    3 2
     6    2    4 2
     7    2    5 1
     8    5   10 ar
     9    5    6 ar
    10    6    7 ar
    11    6   32 1
    12    7    8 ar
    13    7   33 1
    14    8    9 ar
    15    8   14 1
    16    9   10 ar
    17    9   11 1
    18   10   34 1
    19   11   12 2
    20   11   13 1
    21   14   18 2
    22   14   15 1
    23   15   16 2
    24   15   35 1
    25   16   17 1
    26   17   18 1
    27   17   19 1
    28   18   36 1
    29   19   24 ar
    30   19   20 ar
    31   20   21 ar
    32   21   22 ar
    33   21   37 1
    34   22   23 ar
    35   22   38 1
    36   23   24 ar
    37   23   25 1
    38   25   26 1
    39   25   27 1
    40   25   28 1
@<TRIPOS>MOLECULE
ZINC03591542
   30    32     0     0     0
SMALL
USER_CHARGES

@<TRIPOS>ATOM
      1 C1         -1.1934   -0.7192    0.0149 C.ar      1 <0>        -0.1052
      2 C2         -1.1697   -2.0990    0.0019 C.ar      1 <0>        -0.1019
      3 C3          0.0396   -2.7725   -0.0122 C.ar      1 <0>        -0.0398
      4 C4          1.2302   -2.0663   -0.0198 C.ar      1 <0>        -0.1018
      5 C5          1.2166   -0.6863   -0.0127 C.ar      1 <0>        -0.1006
      6 C6          0.0021   -0.0041    0.0020 C.ar      1 <0>         0.0036
      7 C7         -0.0181    1.4805    0.0102 C.2       1 <0>        -0.1781
      8 C8          1.1081    2.3284    0.0040 C.2       1 <0>         0.0869
      9 N1          0.6895    3.5655    0.0146 N.2       1 <0>        -0.2470
     10 N2         -0.7106    3.5627    0.0280 N.pl3     1 <0>        -0.3191
     11 C9         -1.1292    2.2707    0.0191 C.2       1 <0>         0.0998
     12 C10        -1.5319    4.6897    0.0426 C.ar      1 <0>         0.5736
     13 N3         -2.8458    4.5308    0.0547 N.ar      1 <0>        -0.5133
     14 C11        -3.6536    5.5779    0.0687 C.ar      1 <0>         0.2000
     15 C12        -3.1079    6.8525    0.0706 C.ar      1 <0>        -0.1980
     16 C13        -1.7279    6.9815    0.0577 C.ar      1 <0>         0.1220
     17 N4         -0.9784    5.8915    0.0494 N.ar      1 <0>        -0.4730
     18 C14        -1.0893    8.3465    0.0598 C.3       1 <0>         0.5271
     19 F1         -0.8785    8.7608    1.3793 F         1 <0>        -0.1612
     20 F2          0.1364    8.2889   -0.6123 F         1 <0>        -0.1546
     21 F3         -1.9328    9.2570   -0.5858 F         1 <0>        -0.1617
     22 Cl1         0.0632   -4.5084   -0.0212 Cl        1 <0>        -0.0686
     23 H1         -2.1373   -0.1946    0.0305 H         1 <0>         0.1320
     24 H2         -2.0960   -2.6542    0.0074 H         1 <0>         0.1362
     25 H3          2.1713   -2.5962   -0.0309 H         1 <0>         0.1370
     26 H4          2.1459   -0.1362   -0.0183 H         1 <0>         0.1352
     27 H5          2.1400    2.0097   -0.0076 H         1 <0>         0.2029
     28 H6         -2.1545    1.9313    0.0215 H         1 <0>         0.1930
     29 H7         -4.7249    5.4419    0.0782 H         1 <0>         0.1998
     30 H8         -3.7438    7.7253    0.0823 H         1 <0>         0.1745
@<TRIPOS>BOND
     1    1    6 ar
     2    1    2 ar
     3    1   23 1
     4    2    3 ar
     5    2   24 1
     6    3    4 ar
     7    3   22 1
     8    4    5 ar
     9    4   25 1
    10    5    6 ar
    11    5   26 1
    12    6    7 1
    13    7   11 2
    14    7    8 1
    15    8    9 2
    16    8   27 1
    17    9   10 1
    18   10   11 1
    19   10   12 1
    20   11   28 1
    21   12   17 ar
    22   12   13 ar
    23   13   14 ar
    24   14   15 ar
    25   14   29 1
    26   15   16 ar
    27   15   30 1
    28   16   17 ar
    29   16   18 1
    30   18   19 1
    31   18   20 1
    32   18   21 1
@<TRIPOS>MOLECULE
ZINC03591544
   32    34     0     0     0
SMALL
USER_CHARGES

@<TRIPOS>ATOM
      1 C1          0.6437    2.5341    1.2212 C.ar      1 <0>        -0.0627
      2 C2          1.0300    3.3324    0.1594 C.ar      1 <0>        -0.1187
      3 C3          0.3551    3.2632   -1.0457 C.ar      1 <0>        -0.0515
      4 C4         -0.7089    2.3964   -1.1949 C.ar      1 <0>        -0.0415
      5 C5         -1.0981    1.5859   -0.1310 C.ar      1 <0>         0.0656
      6 C6         -0.4183    1.6638    1.0826 C.ar      1 <0>        -0.1074
      7 C7         -2.2375    0.6470   -0.2878 C.2       1 <0>        -0.2160
      8 C8         -3.4046    0.6150    0.5022 C.2       1 <0>         0.0985
      9 N1         -4.1731   -0.3435    0.0589 N.2       1 <0>        -0.2474
     10 N2         -3.5321   -0.9670   -1.0187 N.pl3     1 <0>        -0.3127
     11 C9         -2.3419   -0.3444   -1.2182 C.2       1 <0>         0.1559
     12 C10        -4.0291   -2.0402   -1.7577 C.ar      1 <0>         0.5757
     13 N3         -3.3091   -2.5241   -2.7572 N.ar      1 <0>        -0.5116
     14 C11        -3.7484   -3.5442   -3.4753 C.ar      1 <0>         0.2000
     15 C12        -4.9833   -4.0991   -3.1763 C.ar      1 <0>        -0.1963
     16 C13        -5.7126   -3.5638   -2.1263 C.ar      1 <0>         0.1209
     17 N4         -5.2113   -2.5461   -1.4458 N.ar      1 <0>        -0.4710
     18 C14        -7.0600   -4.1335   -1.7646 C.3       1 <0>         0.5260
     19 F1         -7.6398   -3.3559   -0.7564 F         1 <0>        -0.1524
     20 F2         -7.8873   -4.1266   -2.8928 F         1 <0>        -0.1617
     21 F3         -6.9039   -5.4470   -1.3089 F         1 <0>        -0.1624
     22 N5         -1.4307    2.3237   -2.4852 N.pl3     1 <0>         0.0294
     23 O1         -1.0119    2.9339   -3.4525 O.2       1 <0>        -0.1607
     24 O2         -2.4435    1.6536   -2.5795 O.3       1 <0>        -0.1555
     25 H1          1.1744    2.5919    2.1600 H         1 <0>         0.1466
     26 H2          1.8615    4.0124    0.2722 H         1 <0>         0.1489
     27 H3          0.6608    3.8886   -1.8714 H         1 <0>         0.1550
     28 H4         -0.7192    1.0411    1.9122 H         1 <0>         0.1498
     29 H5         -3.6264    1.2720    1.3302 H         1 <0>         0.2015
     30 H6         -1.6115   -0.5897   -1.9750 H         1 <0>         0.1839
     31 H7         -3.1546   -3.9371   -4.2873 H         1 <0>         0.1992
     32 H8         -5.3685   -4.9298   -3.7490 H         1 <0>         0.1727
@<TRIPOS>BOND
     1    1    6 ar
     2    1    2 ar
     3    1   25 1
     4    2    3 ar
     5    2   26 1
     6    3    4 ar
     7    3   27 1
     8    4    5 ar
     9    4   22 1
    10    5    6 ar
    11    5    7 1
    12    6   28 1
    13    7   11 2
    14    7    8 1
    15    8    9 2
    16    8   29 1
    17    9   10 1
    18   10   11 1
    19   10   12 1
    20   11   30 1
    21   12   17 ar
    22   12   13 ar
    23   13   14 ar
    24   14   15 ar
    25   14   31 1
    26   15   16 ar
    27   15   32 1
    28   16   17 ar
    29   16   18 1
    30   18   19 1
    31   18   20 1
    32   18   21 1
    33   22   23 2
    34   22   24 1
@<TRIPOS>MOLECULE
ZINC03591546
   36    38     0     0     0
SMALL
USER_CHARGES

@<TRIPOS>ATOM
      1 C1          2.4260    3.0426    0.7249 C.3       1 <0>         0.0191
      2 O1          1.6626    3.3430    1.8950 O.3       1 <0>        -0.3018
      3 C2          0.3964    3.7987    1.7055 C.ar      1 <0>         0.1877
      4 C3         -0.1003    3.9531    0.4183 C.ar      1 <0>        -0.2122
      5 C4         -1.3875    4.4162    0.2211 C.ar      1 <0>        -0.0060
      6 C5         -2.1865    4.7273    1.3033 C.ar      1 <0>        -0.0817
      7 C6         -1.6955    4.5751    2.5981 C.ar      1 <0>         0.1077
      8 C7         -0.4005    4.1036    2.7966 C.ar      1 <0>        -0.1427
      9 C8         -2.5528    4.9091    3.7634 C.2       1 <0>        -0.2176
     10 C9         -2.2480    5.8329    4.7837 C.2       1 <0>         0.1008
     11 N1         -3.2442    5.8541    5.6280 N.2       1 <0>        -0.2474
     12 N2         -4.2172    4.9461    5.1929 N.pl3     1 <0>        -0.3128
     13 C10        -3.7750    4.3734    4.0437 C.2       1 <0>         0.1613
     14 C11        -5.4287    4.6766    5.8288 C.ar      1 <0>         0.5761
     15 N3         -6.2553    3.7917    5.2947 N.ar      1 <0>        -0.5113
     16 C12        -7.4097    3.5083    5.8746 C.ar      1 <0>         0.2000
     17 C13        -7.7536    4.1594    7.0494 C.ar      1 <0>        -0.1964
     18 C14        -6.8665    5.0841    7.5776 C.ar      1 <0>         0.1209
     19 N4         -5.7260    5.3157    6.9486 N.ar      1 <0>        -0.4709
     20 C15        -7.1973    5.8169    8.8522 C.3       1 <0>         0.5261
     21 F1         -6.2059    6.7687    9.1136 F         1 <0>        -0.1524
     22 F2         -8.4336    6.4569    8.7147 F         1 <0>        -0.1618
     23 F3         -7.2593    4.9052    9.9116 F         1 <0>        -0.1625
     24 N5         -3.5646    5.2230    1.0877 N.pl3     1 <0>         0.0370
     25 O2         -4.0382    5.2371   -0.0343 O.2       1 <0>        -0.1665
     26 O3         -4.2249    5.6168    2.0324 O.3       1 <0>        -0.1604
     27 H1          3.4150    2.6896    1.0171 H         1 <0>         0.1104
     28 H2          2.5261    3.9410    0.1158 H         1 <0>         0.0644
     29 H3          1.9191    2.2681    0.1494 H         1 <0>         0.0642
     30 H4          0.5207    3.7103   -0.4313 H         1 <0>         0.1531
     31 H5         -1.7694    4.5346   -0.7821 H         1 <0>         0.1585
     32 H6         -0.0169    3.9798    3.7986 H         1 <0>         0.1580
     33 H7         -1.3466    6.4237    4.8536 H         1 <0>         0.2024
     34 H8         -4.2959    3.6296    3.4590 H         1 <0>         0.1851
     35 H9         -8.0779    2.7818    5.4364 H         1 <0>         0.1992
     36 H10        -8.6920    3.9509    7.5418 H         1 <0>         0.1726
@<TRIPOS>BOND
     1    1    2 1
     2    1   27 1
     3    1   28 1
     4    1   29 1
     5    2    3 1
     6    3    8 ar
     7    3    4 ar
     8    4    5 ar
     9    4   30 1
    10    5    6 ar
    11    5   31 1
    12    6    7 ar
    13    6   24 1
    14    7    8 ar
    15    7    9 1
    16    8   32 1
    17    9   13 2
    18    9   10 1
    19   10   11 2
    20   10   33 1
    21   11   12 1
    22   12   13 1
    23   12   14 1
    24   13   34 1
    25   14   19 ar
    26   14   15 ar
    27   15   16 ar
    28   16   17 ar
    29   16   35 1
    30   17   18 ar
    31   17   36 1
    32   18   19 ar
    33   18   20 1
    34   20   21 1
    35   20   22 1
    36   20   23 1
    37   24   25 2
    38   24   26 1
@<TRIPOS>MOLECULE
ZINC03591551
   58    63     0     0     0
SMALL
USER_CHARGES

@<TRIPOS>ATOM
      1 C1         -6.9277    4.9666   -2.3133 C.3       1 <0>         0.0196
      2 O1         -6.2017    3.7378   -2.2435 O.3       1 <0>        -0.3070
      3 C2         -5.2206    3.6534   -1.3076 C.ar      1 <0>         0.1659
      4 C3         -4.9617    4.7291   -0.4744 C.ar      1 <0>        -0.1805
      5 C4         -3.9643    4.6458    0.4783 C.ar      1 <0>        -0.0591
      6 C5         -3.2185    3.4864    0.6050 C.ar      1 <0>        -0.1217
      7 C6         -3.4637    2.4111   -0.2223 C.ar      1 <0>        -0.1164
      8 C7         -4.4689    2.4783   -1.1827 C.ar      1 <0>        -0.0731
      9 C8         -4.5286    1.1966   -1.9266 C.ar      1 <0>        -0.0180
     10 C9         -5.3520    0.7786   -2.9742 C.ar      1 <0>        -0.0834
     11 C10        -5.2058   -0.4871   -3.5022 C.ar      1 <0>        -0.0850
     12 C11        -4.2445   -1.3455   -2.9993 C.ar      1 <0>        -0.1062
     13 C12        -3.4249   -0.9381   -1.9617 C.ar      1 <0>        -0.0849
     14 C13        -3.5645    0.3252   -1.4271 C.ar      1 <0>        -0.1541
     15 C14        -2.8365    1.0417   -0.3162 C.3       1 <0>         0.1422
     16 H1         -1.7777    1.1326   -0.5589 H         1 <0>         0.1582
     17 C15        -2.1832   -0.9029    0.9701 C.3       1 <0>        -0.0242
     18 C16        -2.2445   -1.5325    2.3658 C.3       1 <0>         0.0767
     19 N1         -3.6563   -1.7280    2.7287 N.am      1 <0>        -0.6297
     20 C17        -4.5722   -0.5842    2.6017 C.3       1 <0>         0.0920
     21 C18        -4.4194    0.0082    1.1967 C.3       1 <0>        -0.0126
     22 C19        -4.0990   -2.9233    3.1665 C.2       1 <0>         0.5793
     23 O2         -5.2856   -3.0957    3.3673 O.2       1 <0>        -0.5072
     24 C20        -3.1428   -4.0235    3.4021 C.ar      1 <0>        -0.1713
     25 C21        -3.4761   -5.3332    3.0287 C.ar      1 <0>        -0.0500
     26 C22        -2.6041   -6.3595    3.2396 C.ar      1 <0>        -0.1235
     27 C23        -1.3659   -6.1180    3.8319 C.ar      1 <0>         0.1216
     28 C24        -1.0192   -4.8065    4.2116 C.ar      1 <0>        -0.1180
     29 C25        -1.9094   -3.7588    3.9894 C.ar      1 <0>        -0.0393
     30 C26         0.3234   -4.8950    4.7931 C.2       1 <0>        -0.2010
     31 C27         0.6902   -6.1845    4.7343 C.2       1 <0>         0.0617
     32 N2         -0.3068   -6.9282    4.1633 N.pl3     1 <0>        -0.5891
     33 H2         -0.2709   -7.8860    4.0141 H         1 <0>         0.4226
     34 H3         -7.4175    5.1540   -1.3577 H         1 <0>         0.0636
     35 H4         -6.2402    5.7827   -2.5353 H         1 <0>         0.0638
     36 H5         -7.6792    4.9004   -3.1000 H         1 <0>         0.1115
     37 H6         -5.5407    5.6358   -0.5699 H         1 <0>         0.1462
     38 H7         -3.7658    5.4874    1.1255 H         1 <0>         0.1454
     39 H8         -2.4396    3.4257    1.3507 H         1 <0>         0.1357
     40 H9         -6.1037    1.4456   -3.3698 H         1 <0>         0.1398
     41 H10        -5.8441   -0.8092   -4.3117 H         1 <0>         0.1401
     42 H11        -4.1339   -2.3353   -3.4169 H         1 <0>         0.1401
     43 H12        -2.6756   -1.6101   -1.5701 H         1 <0>         0.1301
     44 H13        -2.5646   -1.6111    0.2346 H         1 <0>         0.1373
     45 H14        -1.1506   -0.6496    0.7304 H         1 <0>         0.1445
     46 H15        -1.7693   -0.8688    3.0881 H         1 <0>         0.0988
     47 H16        -1.7323   -2.4947    2.3563 H         1 <0>         0.1414
     48 H17        -4.3208    0.1708    3.3467 H         1 <0>         0.0954
     49 H18        -5.5990   -0.9193    2.7481 H         1 <0>         0.1366
     50 H19        -5.0084    0.9222    1.1212 H         1 <0>         0.1378
     51 H20        -4.7696   -0.7128    0.4580 H         1 <0>         0.1363
     52 H21        -4.4331   -5.5308    2.5689 H         1 <0>         0.1356
     53 H22        -2.8739   -7.3635    2.9470 H         1 <0>         0.1318
     54 H23        -1.6466   -2.7507    4.2743 H         1 <0>         0.1300
     55 H24         0.9062   -4.0783    5.1927 H         1 <0>         0.1527
     56 H25         1.6328   -6.5773    5.0857 H         1 <0>         0.1779
     57 N3         -2.9943    0.3340    0.9713 N.4       1 <0>        -0.3844
     58 H26        -2.6686    0.9448    1.7296 H         1 <0>         0.4273
@<TRIPOS>BOND
     1    1    2 1
     2    1   34 1
     3    1   35 1
     4    1   36 1
     5    2    3 1
     6    3    8 ar
     7    3    4 ar
     8    4    5 ar
     9    4   37 1
    10    5    6 ar
    11    5   38 1
    12    6    7 ar
    13    6   39 1
    14    7   15 1
    15    7    8 ar
    16    8    9 1
    17    9   14 ar
    18    9   10 ar
    19   10   11 ar
    20   10   40 1
    21   11   12 ar
    22   11   41 1
    23   12   13 ar
    24   12   42 1
    25   13   14 ar
    26   13   43 1
    27   14   15 1
    28   15   16 1
    29   15   57 1
    30   17   18 1
    31   17   44 1
    32   17   45 1
    33   17   57 1
    34   18   19 1
    35   18   46 1
    36   18   47 1
    37   19   20 1
    38   19   22 am
    39   20   21 1
    40   20   48 1
    41   20   49 1
    42   21   50 1
    43   21   51 1
    44   21   57 1
    45   22   23 2
    46   22   24 1
    47   24   29 ar
    48   24   25 ar
    49   25   26 ar
    50   25   52 1
    51   26   27 ar
    52   26   53 1
    53   27   32 1
    54   27   28 ar
    55   28   29 ar
    56   28   30 1
    57   29   54 1
    58   30   31 2
    59   30   55 1
    60   31   32 1
    61   31   56 1
    62   32   33 1
    63   57   58 1
@<TRIPOS>MOLECULE
ZINC03591558
   68    73     0     0     0
SMALL
USER_CHARGES

@<TRIPOS>ATOM
      1 C1          0.3544   -0.5105    2.4312 C.3       1 <0>        -0.1757
      2 C2          0.0865   -0.1692    0.9640 C.3       1 <0>         0.1113
      3 N1         -0.2727    1.2464    0.8497 N.pl3     1 <0>        -0.6135
      4 C3         -1.6759    1.6562    0.9466 C.3       1 <0>         0.1106
      5 C4         -2.3073    1.6473   -0.4471 C.3       1 <0>        -0.1731
      6 C5          0.7218    2.2047    0.6484 C.ar      1 <0>         0.2433
      7 C6          2.0537    1.8166    0.5563 C.ar      1 <0>        -0.1712
      8 C7          3.0371    2.7591    0.3516 C.ar      1 <0>        -0.0318
      9 C8          2.6994    4.1103    0.2410 C.ar      1 <0>        -0.1041
     10 C9          1.3638    4.4932    0.3399 C.ar      1 <0>        -0.0992
     11 C10         0.3822    3.5491    0.5457 C.ar      1 <0>        -0.1718
     12 C11         1.3082    5.9931    0.1827 C.3       1 <0>         0.1418
     13 H1          0.8909    6.4493    1.0805 H         1 <0>         0.1537
     14 C12         2.7342    6.4446   -0.0164 C.ar      1 <0>        -0.1584
     15 C13         3.5422    5.3116    0.0217 C.ar      1 <0>        -0.0107
     16 C14         4.9225    5.4493   -0.1394 C.ar      1 <0>        -0.0982
     17 C15         5.4719    6.6995   -0.3326 C.ar      1 <0>        -0.0819
     18 C16         4.6606    7.8195   -0.3690 C.ar      1 <0>        -0.1129
     19 C17         3.2922    7.6905   -0.2110 C.ar      1 <0>        -0.0832
     20 C18         1.0737    5.7902   -2.2186 C.3       1 <0>        -0.0128
     21 C19         0.1090    6.0273   -3.3853 C.3       1 <0>         0.0768
     22 N2         -0.2095    7.4620   -3.4441 N.am      1 <0>        -0.6281
     23 C20        -0.6640    8.1249   -2.2124 C.3       1 <0>         0.0911
     24 C21         0.3312    7.8052   -1.0918 C.3       1 <0>        -0.0245
     25 C22        -0.0884    8.1508   -4.5962 C.2       1 <0>         0.5801
     26 O1         -0.4219    9.3190   -4.6439 O.2       1 <0>        -0.5059
     27 C23         0.4493    7.4867   -5.8004 C.ar      1 <0>        -0.1684
     28 C24         1.4807    8.0918   -6.5324 C.ar      1 <0>        -0.0534
     29 C25         1.9876    7.4913   -7.6462 C.ar      1 <0>        -0.1217
     30 C26         1.4841    6.2637   -8.0725 C.ar      1 <0>         0.1194
     31 C27         0.4478    5.6455   -7.3457 C.ar      1 <0>        -0.1158
     32 C28        -0.0641    6.2582   -6.2046 C.ar      1 <0>        -0.0407
     33 C29         0.1544    4.3917   -8.0459 C.2       1 <0>        -0.2010
     34 C30         0.9850    4.3284   -9.0980 C.2       1 <0>         0.0616
     35 N3          1.7856    5.4381   -9.1286 N.pl3     1 <0>        -0.5892
     36 H2          2.4657    5.6153   -9.7970 H         1 <0>         0.4223
     37 H3          0.6217   -1.5638    2.5163 H         1 <0>         0.0720
     38 H4          1.1745    0.1037    2.8032 H         1 <0>         0.0589
     39 H5         -0.5421   -0.3145    3.0194 H         1 <0>         0.0597
     40 H6         -0.7336   -0.7834    0.5920 H         1 <0>         0.0828
     41 H7          0.9830   -0.3652    0.3759 H         1 <0>         0.0804
     42 H8         -2.2132    0.9625    1.5933 H         1 <0>         0.0835
     43 H9         -1.7329    2.6611    1.3649 H         1 <0>         0.0758
     44 H10        -1.7700    2.3410   -1.0938 H         1 <0>         0.0538
     45 H11        -2.2503    0.6423   -0.8653 H         1 <0>         0.0624
     46 H12        -3.3513    1.9522   -0.3750 H         1 <0>         0.0704
     47 H13         2.3175    0.7727    0.6411 H         1 <0>         0.1383
     48 H14         4.0701    2.4533    0.2762 H         1 <0>         0.1338
     49 H15        -0.6515    3.8524    0.6215 H         1 <0>         0.1307
     50 H16         5.5594    4.5776   -0.1117 H         1 <0>         0.1340
     51 H17         6.5397    6.8045   -0.4563 H         1 <0>         0.1382
     52 H18         5.0962    8.7961   -0.5205 H         1 <0>         0.1385
     53 H19         2.6607    8.5661   -0.2397 H         1 <0>         0.1294
     54 H20         2.0253    6.2785   -2.4285 H         1 <0>         0.1356
     55 H21         1.2342    4.7196   -2.0911 H         1 <0>         0.1402
     56 H22        -0.8053    5.4555   -3.2264 H         1 <0>         0.0960
     57 H23         0.5768    5.7175   -4.3198 H         1 <0>         0.1397
     58 H24        -1.6526    7.7547   -1.9407 H         1 <0>         0.0957
     59 H25        -0.7041    9.2027   -2.3700 H         1 <0>         0.1374
     60 H26        -0.0469    8.1961   -0.1471 H         1 <0>         0.1430
     61 H27         1.2931    8.2655   -1.3174 H         1 <0>         0.1385
     62 H28         1.8778    9.0431   -6.2103 H         1 <0>         0.1340
     63 H29         2.7821    7.9688   -8.2006 H         1 <0>         0.1316
     64 H30        -0.8554    5.7862   -5.6410 H         1 <0>         0.1291
     65 H31        -0.5886    3.6587   -7.7682 H         1 <0>         0.1523
     66 H32         1.0171    3.5211   -9.8146 H         1 <0>         0.1777
     67 N4          0.4693    6.3365   -0.9842 N.4       1 <0>        -0.3839
     68 H33        -0.4621    5.9230   -0.8584 H         1 <0>         0.4257
@<TRIPOS>BOND
     1    1    2 1
     2    1   37 1
     3    1   38 1
     4    1   39 1
     5    2    3 1
     6    2   40 1
     7    2   41 1
     8    3    4 1
     9    3    6 1
    10    4    5 1
    11    4   42 1
    12    4   43 1
    13    5   44 1
    14    5   45 1
    15    5   46 1
    16    6   11 ar
    17    6    7 ar
    18    7    8 ar
    19    7   47 1
    20    8    9 ar
    21    8   48 1
    22    9   15 1
    23    9   10 ar
    24   10   11 ar
    25   10   12 1
    26   11   49 1
    27   12   13 1
    28   12   14 1
    29   12   67 1
    30   14   19 ar
    31   14   15 ar
    32   15   16 ar
    33   16   17 ar
    34   16   50 1
    35   17   18 ar
    36   17   51 1
    37   18   19 ar
    38   18   52 1
    39   19   53 1
    40   20   21 1
    41   20   54 1
    42   20   55 1
    43   20   67 1
    44   21   22 1
    45   21   56 1
    46   21   57 1
    47   22   23 1
    48   22   25 am
    49   23   24 1
    50   23   58 1
    51   23   59 1
    52   24   60 1
    53   24   61 1
    54   24   67 1
    55   25   26 2
    56   25   27 1
    57   27   32 ar
    58   27   28 ar
    59   28   29 ar
    60   28   62 1
    61   29   30 ar
    62   29   63 1
    63   30   35 1
    64   30   31 ar
    65   31   32 ar
    66   31   33 1
    67   32   64 1
    68   33   34 2
    69   33   65 1
    70   34   35 1
    71   34   66 1
    72   35   36 1
    73   67   68 1
@<TRIPOS>MOLECULE
ZINC03591562
   67    72     0     0     0
SMALL
USER_CHARGES

@<TRIPOS>ATOM
      1 C1          1.7917   -1.3671   -2.4239 C.3       1 <0>        -0.1559
      2 C2          1.6578   -2.7736   -1.8368 C.3       1 <0>        -0.1120
      3 C3          0.2256   -2.9855   -1.3420 C.3       1 <0>        -0.1394
      4 C4          0.0937   -4.3709   -0.7637 C.2       1 <0>         0.5151
      5 O1          1.0510   -5.1155   -0.7488 O.2       1 <0>        -0.5080
      6 N1         -1.0880   -4.7825   -0.2630 N.am      1 <0>        -0.6798
      7 C5         -1.2375   -6.0989    0.1839 C.ar      1 <0>         0.1694
      8 C6         -0.1752   -6.7488    0.8013 C.ar      1 <0>        -0.0920
      9 C7         -0.3191   -8.0456    1.2434 C.ar      1 <0>        -0.0641
     10 C8         -1.5347   -8.7124    1.0722 C.ar      1 <0>        -0.0504
     11 C9         -2.5952   -8.0554    0.4527 C.ar      1 <0>        -0.1350
     12 C10        -2.4503   -6.7569    0.0164 C.ar      1 <0>        -0.1148
     13 C11        -3.7604   -9.0136    0.4092 C.3       1 <0>         0.1440
     14 H1         -4.0491   -9.2067   -0.6240 H         1 <0>         0.1561
     15 C12        -3.2779  -10.2865    1.0604 C.ar      1 <0>        -0.1504
     16 C13        -1.9554  -10.0853    1.4460 C.ar      1 <0>        -0.0271
     17 C14        -1.2623  -11.1189    2.0795 C.ar      1 <0>        -0.0879
     18 C15        -1.8889  -12.3244    2.3163 C.ar      1 <0>        -0.0836
     19 C16        -3.2036  -12.5146    1.9298 C.ar      1 <0>        -0.1046
     20 C17        -3.8966  -11.4949    1.3019 C.ar      1 <0>        -0.0858
     21 C18        -4.5335   -8.2057    2.5568 C.3       1 <0>        -0.0131
     22 C19        -5.6818   -7.4679    3.2533 C.3       1 <0>         0.0927
     23 N2         -6.9175   -8.2430    3.0650 N.am      1 <0>        -0.6277
     24 C20        -7.2783   -8.6567    1.7004 C.3       1 <0>         0.0543
     25 C21        -6.0671   -9.3477    1.0650 C.3       1 <0>        -0.0275
     26 C22        -7.6988   -8.5653    4.1148 C.2       1 <0>         0.5787
     27 O2         -7.4176   -8.1642    5.2276 O.2       1 <0>        -0.5093
     28 C23        -8.8962   -9.4055    3.9136 C.ar      1 <0>        -0.1794
     29 C24        -9.6289   -9.3071    2.7223 C.ar      1 <0>        -0.1005
     30 C25       -10.7329  -10.0804    2.5191 C.ar      1 <0>        -0.1232
     31 C26       -11.1553  -10.9730    3.5026 C.ar      1 <0>         0.1188
     32 C27       -10.4310  -11.0770    4.7064 C.ar      1 <0>        -0.1161
     33 C28        -9.2998  -10.2903    4.9089 C.ar      1 <0>         0.0072
     34 C29       -11.1260  -12.0861    5.5110 C.2       1 <0>        -0.1928
     35 C30       -12.1728  -12.5101    4.7863 C.2       1 <0>         0.0586
     36 N3        -12.2049  -11.8557    3.5847 N.pl3     1 <0>        -0.5875
     37 H2        -12.8706  -11.9947    2.8930 H         1 <0>         0.4220
     38 H3          2.8120   -1.2162   -2.7765 H         1 <0>         0.0630
     39 H4          1.0987   -1.2540   -3.2577 H         1 <0>         0.0564
     40 H5          1.5597   -0.6292   -1.6560 H         1 <0>         0.0569
     41 H6          1.8898   -3.5115   -2.6048 H         1 <0>         0.0713
     42 H7          2.3508   -2.8868   -1.0031 H         1 <0>         0.0719
     43 H8         -0.0063   -2.2476   -0.5740 H         1 <0>         0.1016
     44 H9         -0.4673   -2.8723   -2.1757 H         1 <0>         0.1009
     45 H10        -1.8347   -4.1654   -0.2128 H         1 <0>         0.4164
     46 H11         0.7656   -6.2355    0.9353 H         1 <0>         0.1554
     47 H12         0.5087   -8.5473    1.7223 H         1 <0>         0.1405
     48 H13        -3.2778   -6.2514   -0.4592 H         1 <0>         0.1357
     49 H14        -0.2360  -10.9745    2.3832 H         1 <0>         0.1369
     50 H15        -1.3513  -13.1230    2.8059 H         1 <0>         0.1410
     51 H16        -3.6896  -13.4605    2.1182 H         1 <0>         0.1409
     52 H17        -4.9228  -11.6454    1.0010 H         1 <0>         0.1318
     53 H18        -4.3487   -9.1525    3.0642 H         1 <0>         0.1352
     54 H19        -3.6331   -7.5923    2.5913 H         1 <0>         0.1392
     55 H20        -5.8004   -6.4774    2.8142 H         1 <0>         0.0937
     56 H21        -5.4677   -7.3732    4.3179 H         1 <0>         0.1361
     57 H22        -7.5503   -7.7804    1.1120 H         1 <0>         0.0984
     58 H23        -8.1188   -9.3498    1.7350 H         1 <0>         0.1604
     59 H24        -6.2789   -9.5625    0.0176 H         1 <0>         0.1430
     60 H25        -5.8609  -10.2786    1.5932 H         1 <0>         0.1397
     61 H26        -9.3127   -8.6148    1.9560 H         1 <0>         0.1415
     62 H27       -11.2852   -9.9974    1.5947 H         1 <0>         0.1308
     63 H28        -8.7412  -10.3660    5.8301 H         1 <0>         0.1364
     64 H29       -10.8482  -12.4242    6.4984 H         1 <0>         0.1552
     65 H30       -12.8846  -13.2576    5.1043 H         1 <0>         0.1795
     66 N4         -4.9050   -8.4361    1.1438 N.4       1 <0>        -0.3844
     67 H31        -5.1571   -7.5377    0.7152 H         1 <0>         0.4259
@<TRIPOS>BOND
     1    1    2 1
     2    1   38 1
     3    1   39 1
     4    1   40 1
     5    2    3 1
     6    2   41 1
     7    2   42 1
     8    3    4 1
     9    3   43 1
    10    3   44 1
    11    4    5 2
    12    4    6 am
    13    6    7 1
    14    6   45 1
    15    7   12 ar
    16    7    8 ar
    17    8    9 ar
    18    8   46 1
    19    9   10 ar
    20    9   47 1
    21   10   16 1
    22   10   11 ar
    23   11   12 ar
    24   11   13 1
    25   12   48 1
    26   13   14 1
    27   13   15 1
    28   13   66 1
    29   15   20 ar
    30   15   16 ar
    31   16   17 ar
    32   17   18 ar
    33   17   49 1
    34   18   19 ar
    35   18   50 1
    36   19   20 ar
    37   19   51 1
    38   20   52 1
    39   21   22 1
    40   21   53 1
    41   21   54 1
    42   21   66 1
    43   22   23 1
    44   22   55 1
    45   22   56 1
    46   23   24 1
    47   23   26 am
    48   24   25 1
    49   24   57 1
    50   24   58 1
    51   25   59 1
    52   25   60 1
    53   25   66 1
    54   26   27 2
    55   26   28 1
    56   28   33 ar
    57   28   29 ar
    58   29   30 ar
    59   29   61 1
    60   30   31 ar
    61   30   62 1
    62   31   36 1
    63   31   32 ar
    64   32   33 ar
    65   32   34 1
    66   33   63 1
    67   34   35 2
    68   34   64 1
    69   35   36 1
    70   35   65 1
    71   36   37 1
    72   66   67 1
@<TRIPOS>MOLECULE
ZINC03591568
   58    63     0     0     0
SMALL
USER_CHARGES

@<TRIPOS>ATOM
      1 C1          8.5621    1.7644   -5.3300 C.ar      1 <0>        -0.0843
      2 C2          7.3369    1.1672   -5.0929 C.ar      1 <0>        -0.1042
      3 C3          7.1140    0.4872   -3.9088 C.ar      1 <0>        -0.0836
      4 C4          8.1118    0.4030   -2.9624 C.ar      1 <0>        -0.1482
      5 C5          9.3494    1.0015   -3.1915 C.ar      1 <0>        -0.0285
      6 C6          9.5673    1.6857   -4.3891 C.ar      1 <0>        -0.0881
      7 C7         10.2369    0.7646   -2.0263 C.ar      1 <0>        -0.0538
      8 C8         11.5555    1.1560   -1.7817 C.ar      1 <0>        -0.0621
      9 C9         12.1714    0.8057   -0.6002 C.ar      1 <0>        -0.1186
     10 C10        11.4847    0.0614    0.3520 C.ar      1 <0>         0.1647
     11 C11        10.1728   -0.3304    0.1123 C.ar      1 <0>        -0.0978
     12 C12         9.5546    0.0190   -1.0680 C.ar      1 <0>        -0.1334
     13 C13         8.1703   -0.2526   -1.6045 C.3       1 <0>         0.1424
     14 H1          8.0084   -1.3264   -1.6989 H         1 <0>         0.1570
     15 C14         7.1436    1.7989   -0.8302 C.3       1 <0>        -0.0123
     16 C15         6.2105    2.3818    0.2365 C.3       1 <0>         0.0920
     17 N1          4.8959    1.7343    0.1116 N.am      1 <0>        -0.6295
     18 C16         4.8436    0.2646    0.0867 C.3       1 <0>         0.0695
     19 C17         5.8310   -0.2348   -0.9800 C.3       1 <0>        -0.0239
     20 C18         3.7685    2.4681    0.0277 C.2       1 <0>         0.5787
     21 O1          3.8357    3.6802   -0.0384 O.2       1 <0>        -0.5088
     22 C19         2.4519    1.7999    0.0160 C.ar      1 <0>        -0.1713
     23 C20         1.3950    2.3474   -0.7249 C.ar      1 <0>        -0.0475
     24 C21         0.1735    1.7426   -0.7452 C.ar      1 <0>        -0.1238
     25 C22        -0.0397    0.5672   -0.0274 C.ar      1 <0>         0.1228
     26 C23         1.0143    0.0068    0.7205 C.ar      1 <0>        -0.1186
     27 C24         2.2612    0.6268    0.7398 C.ar      1 <0>        -0.0453
     28 C25         0.4710   -1.2053    1.3403 C.2       1 <0>        -0.2014
     29 C26        -0.8120   -1.2978    0.9582 C.2       1 <0>         0.0621
     30 N2         -1.1323   -0.2492    0.1390 N.pl3     1 <0>        -0.5889
     31 H2         -2.0022   -0.1038   -0.2646 H         1 <0>         0.4228
     32 N3         12.1129   -0.2923    1.5500 N.am      1 <0>        -0.6786
     33 C27        11.7257   -1.4004    2.2123 C.2       1 <0>         0.4966
     34 O2         10.8977   -2.1403    1.7245 O.2       1 <0>        -0.5309
     35 H3          8.7321    2.2940   -6.2558 H         1 <0>         0.1409
     36 H4          6.5533    1.2316   -5.8333 H         1 <0>         0.1407
     37 H5          6.1571    0.0211   -3.7260 H         1 <0>         0.1296
     38 H6         10.5225    2.1528   -4.5785 H         1 <0>         0.1366
     39 H7         12.0923    1.7343   -2.5191 H         1 <0>         0.1411
     40 H8         13.1907    1.1098   -0.4135 H         1 <0>         0.1442
     41 H9          9.6381   -0.9084    0.8516 H         1 <0>         0.1518
     42 H10         6.7862    2.0824   -1.8202 H         1 <0>         0.1369
     43 H11         8.1518    2.1860   -0.6824 H         1 <0>         0.1375
     44 H12         6.1056    3.4560    0.0837 H         1 <0>         0.1370
     45 H13         6.6213    2.1885    1.2274 H         1 <0>         0.0941
     46 H14         5.1255   -0.1283    1.0635 H         1 <0>         0.0998
     47 H15         3.8346   -0.0617   -0.1651 H         1 <0>         0.1475
     48 H16         5.4919    0.0769   -1.9679 H         1 <0>         0.1363
     49 H17         5.8873   -1.3227   -0.9413 H         1 <0>         0.1442
     50 H18         1.5501    3.2578   -1.2848 H         1 <0>         0.1373
     51 H19        -0.6318    2.1757   -1.3200 H         1 <0>         0.1323
     52 H20         3.0726    0.2013    1.3116 H         1 <0>         0.1336
     53 H21         1.0006   -1.8901    1.9861 H         1 <0>         0.1529
     54 H22        -1.4906   -2.0855    1.2507 H         1 <0>         0.1781
     55 H23        12.8274    0.2597    1.9044 H         1 <0>         0.4229
     56 H24        12.1528   -1.6295    3.1775 H         1 <0>         0.1578
     57 N4          7.1675    0.3270   -0.6870 N.4       1 <0>        -0.3856
     58 H25         7.4234    0.0907    0.2788 H         1 <0>         0.4274
@<TRIPOS>BOND
     1    1    6 ar
     2    1    2 ar
     3    1   35 1
     4    2    3 ar
     5    2   36 1
     6    3    4 ar
     7    3   37 1
     8    4   13 1
     9    4    5 ar
    10    5    6 ar
    11    5    7 1
    12    6   38 1
    13    7   12 ar
    14    7    8 ar
    15    8    9 ar
    16    8   39 1
    17    9   10 ar
    18    9   40 1
    19   10   11 ar
    20   10   32 1
    21   11   12 ar
    22   11   41 1
    23   12   13 1
    24   13   14 1
    25   13   57 1
    26   15   16 1
    27   15   42 1
    28   15   43 1
    29   15   57 1
    30   16   17 1
    31   16   44 1
    32   16   45 1
    33   17   18 1
    34   17   20 am
    35   18   19 1
    36   18   46 1
    37   18   47 1
    38   19   48 1
    39   19   49 1
    40   19   57 1
    41   20   21 2
    42   20   22 1
    43   22   27 ar
    44   22   23 ar
    45   23   24 ar
    46   23   50 1
    47   24   25 ar
    48   24   51 1
    49   25   30 1
    50   25   26 ar
    51   26   27 ar
    52   26   28 1
    53   27   52 1
    54   28   29 2
    55   28   53 1
    56   29   30 1
    57   29   54 1
    58   30   31 1
    59   32   33 am
    60   32   55 1
    61   33   34 2
    62   33   56 1
    63   57   58 1
@<TRIPOS>MOLECULE
ZINC03591572
   62    67     0     0     0
SMALL
USER_CHARGES

@<TRIPOS>ATOM
      1 C1         -2.2303    4.6977    7.0097 C.3       1 <0>         0.0846
      2 N1         -3.2792    5.3553    6.2263 N.pl3     1 <0>        -0.6239
      3 C2         -4.0064    6.4963    6.7879 C.3       1 <0>         0.0823
      4 C3         -3.5855    4.8948    4.9450 C.ar      1 <0>         0.2387
      5 C4         -4.5805    5.5186    4.2006 C.ar      1 <0>        -0.1714
      6 C5         -4.8851    5.0669    2.9355 C.ar      1 <0>        -0.0311
      7 C6         -4.1943    3.9791    2.3956 C.ar      1 <0>        -0.1040
      8 C7         -3.1947    3.3622    3.1441 C.ar      1 <0>        -0.0986
      9 C8         -2.8957    3.8119    4.4112 C.ar      1 <0>        -0.1718
     10 C9         -2.6378    2.2314    2.3141 C.3       1 <0>         0.1408
     11 H1         -1.5756    2.3930    2.1304 H         1 <0>         0.1544
     12 C10        -3.3998    2.2556    1.0119 C.ar      1 <0>        -0.1582
     13 C11        -4.3176    3.3000    1.0822 C.ar      1 <0>        -0.0115
     14 C12        -5.1600    3.5455   -0.0042 C.ar      1 <0>        -0.0978
     15 C13        -5.0773    2.7559   -1.1319 C.ar      1 <0>        -0.0818
     16 C14        -4.1616    1.7206   -1.1925 C.ar      1 <0>        -0.1122
     17 C15        -3.3239    1.4716   -0.1199 C.ar      1 <0>        -0.0825
     18 C16        -2.0854   -0.1259    2.3376 C.3       1 <0>        -0.0234
     19 C17        -2.1791   -1.4036    3.1785 C.3       1 <0>         0.0915
     20 N2         -3.5991   -1.7019    3.4185 N.am      1 <0>        -0.6282
     21 C18        -4.4551   -0.6305    3.9503 C.3       1 <0>         0.0557
     22 C19        -4.2718    0.6166    3.0790 C.3       1 <0>        -0.0163
     23 C20        -4.1027   -2.9247    3.1583 C.2       1 <0>         0.5799
     24 O1         -3.3620   -3.8281    2.8216 O.2       1 <0>        -0.5092
     25 C21        -5.5539   -3.1673    3.2824 C.ar      1 <0>        -0.1791
     26 C22        -6.4639   -2.1496    2.9631 C.ar      1 <0>        -0.0949
     27 C23        -7.8068   -2.3601    3.0665 C.ar      1 <0>        -0.1228
     28 C24        -8.2926   -3.5907    3.5047 C.ar      1 <0>         0.1185
     29 C25        -7.3883   -4.6194    3.8341 C.ar      1 <0>        -0.1156
     30 C26        -6.0170   -4.4038    3.7216 C.ar      1 <0>         0.0082
     31 C27        -8.2079   -5.7610    4.2505 C.2       1 <0>        -0.1919
     32 C28        -9.4901   -5.3770    4.1539 C.2       1 <0>         0.0581
     33 N3         -9.5584   -4.0841    3.7101 N.pl3     1 <0>        -0.5874
     34 H2        -10.3793   -3.5891    3.5623 H         1 <0>         0.4217
     35 H3         -1.2718    5.1753    6.8068 H         1 <0>         0.0584
     36 H4         -2.4617    4.7840    8.0714 H         1 <0>         0.0775
     37 H5         -2.1771    3.6445    6.7339 H         1 <0>         0.0674
     38 H6         -4.8852    6.1386    7.3245 H         1 <0>         0.0595
     39 H7         -3.3569    7.0386    7.4751 H         1 <0>         0.0774
     40 H8         -4.3183    7.1607    5.9821 H         1 <0>         0.0746
     41 H9         -5.1158    6.3599    4.6154 H         1 <0>         0.1392
     42 H10        -5.6583    5.5543    2.3602 H         1 <0>         0.1350
     43 H11        -2.1227    3.3264    4.9883 H         1 <0>         0.1312
     44 H12        -5.8762    4.3527    0.0390 H         1 <0>         0.1343
     45 H13        -5.7297    2.9468   -1.9712 H         1 <0>         0.1385
     46 H14        -4.1009    1.1056   -2.0782 H         1 <0>         0.1388
     47 H15        -2.6098    0.6629   -0.1693 H         1 <0>         0.1286
     48 H16        -2.5026   -0.3107    1.3476 H         1 <0>         0.1369
     49 H17        -1.0411    0.1715    2.2429 H         1 <0>         0.1434
     50 H18        -1.6705   -1.2532    4.1308 H         1 <0>         0.0951
     51 H19        -1.7162   -2.2325    2.6431 H         1 <0>         0.1374
     52 H20        -4.1653   -0.4059    4.9768 H         1 <0>         0.0953
     53 H21        -5.4984   -0.9449    3.9249 H         1 <0>         0.1563
     54 H22        -4.8131    1.4526    3.5220 H         1 <0>         0.1407
     55 H23        -4.6585    0.4216    2.0787 H         1 <0>         0.1355
     56 H24        -6.0975   -1.1908    2.6274 H         1 <0>         0.1323
     57 H25        -8.4966   -1.5688    2.8130 H         1 <0>         0.1298
     58 H26        -5.3194   -5.1889    3.9732 H         1 <0>         0.1372
     59 H27        -7.8486   -6.7271    4.5730 H         1 <0>         0.1556
     60 H28       -10.3422   -5.9967    4.3909 H         1 <0>         0.1795
     61 N4         -2.8319    0.9504    3.0245 N.4       1 <0>        -0.3830
     62 H29        -2.4753    1.0434    3.9829 H         1 <0>         0.4264
@<TRIPOS>BOND
     1    1    2 1
     2    1   35 1
     3    1   36 1
     4    1   37 1
     5    2    3 1
     6    2    4 1
     7    3   38 1
     8    3   39 1
     9    3   40 1
    10    4    9 ar
    11    4    5 ar
    12    5    6 ar
    13    5   41 1
    14    6    7 ar
    15    6   42 1
    16    7   13 1
    17    7    8 ar
    18    8    9 ar
    19    8   10 1
    20    9   43 1
    21   10   11 1
    22   10   12 1
    23   10   61 1
    24   12   17 ar
    25   12   13 ar
    26   13   14 ar
    27   14   15 ar
    28   14   44 1
    29   15   16 ar
    30   15   45 1
    31   16   17 ar
    32   16   46 1
    33   17   47 1
    34   18   19 1
    35   18   48 1
    36   18   49 1
    37   18   61 1
    38   19   20 1
    39   19   50 1
    40   19   51 1
    41   20   21 1
    42   20   23 am
    43   21   22 1
    44   21   52 1
    45   21   53 1
    46   22   54 1
    47   22   55 1
    48   22   61 1
    49   23   24 2
    50   23   25 1
    51   25   30 ar
    52   25   26 ar
    53   26   27 ar
    54   26   56 1
    55   27   28 ar
    56   27   57 1
    57   28   33 1
    58   28   29 ar
    59   29   30 ar
    60   29   31 1
    61   30   58 1
    62   31   32 2
    63   31   59 1
    64   32   33 1
    65   32   60 1
    66   33   34 1
    67   61   62 1
@<TRIPOS>MOLECULE
ZINC03591576
   61    66     0     0     0
SMALL
USER_CHARGES

@<TRIPOS>ATOM
      1 C1         12.3216   -1.7201    3.5591 C.3       1 <0>        -0.1745
      2 C2         11.7257   -1.4004    2.2123 C.2       1 <0>         0.5172
      3 O1         10.8977   -2.1403    1.7245 O.2       1 <0>        -0.5250
      4 N1         12.1129   -0.2923    1.5500 N.am      1 <0>        -0.6727
      5 C3         11.4858    0.0605    0.3511 C.ar      1 <0>         0.1693
      6 C4         12.1748    0.8004   -0.6028 C.ar      1 <0>        -0.1187
      7 C5         11.5601    1.1498   -1.7851 C.ar      1 <0>        -0.0613
      8 C6         10.2404    0.7619   -2.0289 C.ar      1 <0>        -0.0543
      9 C7          9.5557    0.0206   -1.0689 C.ar      1 <0>        -0.1328
     10 C8         10.1728   -0.3279    0.1123 C.ar      1 <0>        -0.0978
     11 C9          8.1706   -0.2481   -1.6048 C.3       1 <0>         0.1424
     12 H1          8.0055   -1.3216   -1.6967 H         1 <0>         0.1571
     13 C10         8.1142    0.4045   -2.9643 C.ar      1 <0>        -0.1481
     14 C11         9.3536    0.9986   -3.1947 C.ar      1 <0>        -0.0281
     15 C12         9.5737    1.6794   -4.3939 C.ar      1 <0>        -0.0882
     16 C13         8.5688    1.7589   -5.3351 C.ar      1 <0>        -0.0843
     17 C14         7.3418    1.1660   -5.0966 C.ar      1 <0>        -0.1043
     18 C15         7.1168    0.4895   -3.9109 C.ar      1 <0>        -0.0836
     19 C16         7.1544    1.8088   -0.8309 C.3       1 <0>        -0.0123
     20 C17         6.2227    2.3963    0.2345 C.3       1 <0>         0.0920
     21 N2          4.9046    1.7565    0.1065 N.am      1 <0>        -0.6294
     22 C18         4.8438    0.2872    0.0804 C.3       1 <0>         0.0696
     23 C19         5.8303   -0.2171   -0.9848 C.3       1 <0>        -0.0239
     24 C20         3.7817    2.4969    0.0211 C.2       1 <0>         0.5787
     25 O2          3.8560    3.7088   -0.0425 O.2       1 <0>        -0.5089
     26 C21         2.4612    1.8364    0.0048 C.ar      1 <0>        -0.1712
     27 C22         1.4102    2.3899   -0.7400 C.ar      1 <0>        -0.0475
     28 C23         0.1853    1.7922   -0.7648 C.ar      1 <0>        -0.1238
     29 C24        -0.0373    0.6181   -0.0476 C.ar      1 <0>         0.1227
     30 C25         1.0108    0.0517    0.7043 C.ar      1 <0>        -0.1186
     31 C26         2.2611    0.6645    0.7280 C.ar      1 <0>        -0.0453
     32 C27         0.4583   -1.1572    1.3222 C.2       1 <0>        -0.2013
     33 C28        -0.8239   -1.2423    0.9355 C.2       1 <0>         0.0621
     34 N3         -1.1351   -0.1920    0.1150 N.pl3     1 <0>        -0.5889
     35 H2         -2.0028   -0.0416   -0.2918 H         1 <0>         0.4228
     36 H3         13.0408   -0.9474    3.8309 H         1 <0>         0.0837
     37 H4         11.5296   -1.7585    4.3070 H         1 <0>         0.1053
     38 H5         12.8254   -2.6856    3.5136 H         1 <0>         0.1060
     39 H6         12.8266    0.2604    1.9050 H         1 <0>         0.4212
     40 H7         13.1951    1.1019   -0.4167 H         1 <0>         0.1443
     41 H8         12.0987    1.7248   -2.5239 H         1 <0>         0.1416
     42 H9          9.6363   -0.9025    0.8529 H         1 <0>         0.1516
     43 H10        10.5303    2.1431   -4.5843 H         1 <0>         0.1366
     44 H11         8.7405    2.2858   -6.2621 H         1 <0>         0.1409
     45 H12         6.5585    1.2310   -5.8373 H         1 <0>         0.1407
     46 H13         6.1584    0.0267   -3.7271 H         1 <0>         0.1296
     47 H14         6.8007    2.0951   -1.8213 H         1 <0>         0.1370
     48 H15         8.1646    2.1899   -0.6808 H         1 <0>         0.1376
     49 H16         6.1244    3.4711    0.0825 H         1 <0>         0.1371
     50 H17         6.6304    2.1997    1.2261 H         1 <0>         0.0941
     51 H18         5.1215   -0.1082    1.0574 H         1 <0>         0.0997
     52 H19         3.8333   -0.0330   -0.1736 H         1 <0>         0.1475
     53 H20         5.4949    0.0974   -1.9731 H         1 <0>         0.1364
     54 H21         5.8802   -1.3053   -0.9469 H         1 <0>         0.1442
     55 H22         1.5726    3.2993   -1.2995 H         1 <0>         0.1372
     56 H23        -0.6154    2.2298   -1.3425 H         1 <0>         0.1322
     57 H24         3.0680    0.2344    1.3028 H         1 <0>         0.1335
     58 H25         0.9815   -1.8449    1.9700 H         1 <0>         0.1528
     59 H26        -1.5081   -2.0260    1.2256 H         1 <0>         0.1781
     60 N4          7.1695    0.3366   -0.6888 N.4       1 <0>        -0.3857
     61 H27         7.4221    0.0981    0.2774 H         1 <0>         0.4274
@<TRIPOS>BOND
     1    1    2 1
     2    1   36 1
     3    1   37 1
     4    1   38 1
     5    2    3 2
     6    2    4 am
     7    4    5 1
     8    4   39 1
     9    5   10 ar
    10    5    6 ar
    11    6    7 ar
    12    6   40 1
    13    7    8 ar
    14    7   41 1
    15    8   14 1
    16    8    9 ar
    17    9   10 ar
    18    9   11 1
    19   10   42 1
    20   11   12 1
    21   11   13 1
    22   11   60 1
    23   13   18 ar
    24   13   14 ar
    25   14   15 ar
    26   15   16 ar
    27   15   43 1
    28   16   17 ar
    29   16   44 1
    30   17   18 ar
    31   17   45 1
    32   18   46 1
    33   19   20 1
    34   19   47 1
    35   19   48 1
    36   19   60 1
    37   20   21 1
    38   20   49 1
    39   20   50 1
    40   21   22 1
    41   21   24 am
    42   22   23 1
    43   22   51 1
    44   22   52 1
    45   23   53 1
    46   23   54 1
    47   23   60 1
    48   24   25 2
    49   24   26 1
    50   26   31 ar
    51   26   27 ar
    52   27   28 ar
    53   27   55 1
    54   28   29 ar
    55   28   56 1
    56   29   34 1
    57   29   30 ar
    58   30   31 ar
    59   30   32 1
    60   31   57 1
    61   32   33 2
    62   32   58 1
    63   33   34 1
    64   33   59 1
    65   34   35 1
    66   60   61 1
@<TRIPOS>MOLECULE
ZINC03591580
   61    66     0     0     0
SMALL
USER_CHARGES

@<TRIPOS>ATOM
      1 C1          2.2993    6.7202   -6.0909 C.3       1 <0>        -0.1774
      2 C2          1.3646    6.0502   -5.1171 C.2       1 <0>         0.5188
      3 O1          0.4441    6.6741   -4.6328 O.2       1 <0>        -0.5159
      4 N1          1.5514    4.7575   -4.7844 N.am      1 <0>        -0.6768
      5 C3          0.6228    4.1044   -3.9653 C.ar      1 <0>         0.2022
      6 C4         -0.7207    4.4343   -4.0430 C.ar      1 <0>        -0.0872
      7 C5         -1.6455    3.7833   -3.2262 C.ar      1 <0>         0.0003
      8 C6         -1.2051    2.8049   -2.3381 C.ar      1 <0>        -0.1702
      9 C7          0.1333    2.4803   -2.2643 C.ar      1 <0>        -0.0487
     10 C8          1.0500    3.1259   -3.0748 C.ar      1 <0>        -0.0660
     11 Cl1         2.7340    2.7150   -2.9791 Cl        1 <0>        -0.0308
     12 C9         -2.4142    2.2848   -1.5994 C.3       1 <0>         0.1465
     13 H1         -2.5399    1.2188   -1.7890 H         1 <0>         0.1596
     14 C10        -3.5957    3.0516   -2.1409 C.ar      1 <0>        -0.1420
     15 C11        -3.1168    3.9347   -3.1044 C.ar      1 <0>        -0.0375
     16 C12        -4.0129    4.7735   -3.7699 C.ar      1 <0>        -0.0794
     17 C13        -5.3580    4.7216   -3.4693 C.ar      1 <0>        -0.0854
     18 C14        -5.8244    3.8401   -2.5105 C.ar      1 <0>        -0.0973
     19 C15        -4.9422    3.0061   -1.8471 C.ar      1 <0>        -0.0858
     20 C16        -3.3104    1.8238    0.6022 C.3       1 <0>        -0.0231
     21 C17        -3.0203    1.9545    2.1012 C.3       1 <0>         0.0908
     22 N2         -2.8726    3.3815    2.4258 N.am      1 <0>        -0.6295
     23 C18        -1.9472    4.1874    1.6150 C.3       1 <0>         0.0716
     24 C19        -2.2796    3.9688    0.1352 C.3       1 <0>        -0.0164
     25 C20        -3.5666    3.9357    3.4395 C.2       1 <0>         0.5806
     26 O2         -4.4032    3.2823    4.0322 O.2       1 <0>        -0.5106
     27 C21        -3.3107    5.3364    3.8304 C.ar      1 <0>        -0.1828
     28 C22        -2.0232    5.8760    3.7000 C.ar      1 <0>        -0.0899
     29 C23        -1.7725    7.1692    4.0507 C.ar      1 <0>        -0.1257
     30 C24        -2.7948    7.9699    4.5570 C.ar      1 <0>         0.1205
     31 C25        -4.0914    7.4377    4.6983 C.ar      1 <0>        -0.1182
     32 C26        -4.3463    6.1180    4.3334 C.ar      1 <0>         0.0081
     33 C27        -4.9152    8.5188    5.2469 C.2       1 <0>        -0.1925
     34 C28        -4.1124    9.5836    5.3970 C.2       1 <0>         0.0575
     35 N3         -2.8432    9.2729    4.9899 N.pl3     1 <0>        -0.5877
     36 H2         -2.0891    9.8828    5.0048 H         1 <0>         0.4218
     37 H3          2.2669    6.1952   -7.0456 H         1 <0>         0.0995
     38 H4          1.9922    7.7560   -6.2353 H         1 <0>         0.1046
     39 H5          3.3150    6.6940   -5.6962 H         1 <0>         0.0985
     40 H6          2.3292    4.2798   -5.1124 H         1 <0>         0.4222
     41 H7         -1.0515    5.1947   -4.7349 H         1 <0>         0.1564
     42 H8          0.4664    1.7206   -1.5726 H         1 <0>         0.1483
     43 H9         -3.6529    5.4631   -4.5191 H         1 <0>         0.1379
     44 H10        -6.0498    5.3710   -3.9850 H         1 <0>         0.1426
     45 H11        -6.8788    3.8033   -2.2792 H         1 <0>         0.1428
     46 H12        -5.3084    2.3187   -1.0989 H         1 <0>         0.1332
     47 H13        -4.2835    2.2622    0.3805 H         1 <0>         0.1374
     48 H14        -3.3136    0.7702    0.3228 H         1 <0>         0.1443
     49 H15        -2.0978    1.4267    2.3429 H         1 <0>         0.0962
     50 H16        -3.8451    1.5320    2.6749 H         1 <0>         0.1388
     51 H17        -0.9216    3.8742    1.8100 H         1 <0>         0.0973
     52 H18        -2.0614    5.2424    1.8639 H         1 <0>         0.1470
     53 H19        -1.5352    4.4708   -0.4829 H         1 <0>         0.1386
     54 H20        -3.2670    4.3773   -0.0800 H         1 <0>         0.1370
     55 H21        -1.2230    5.2622    3.3134 H         1 <0>         0.1339
     56 H22        -0.7770    7.5732    3.9407 H         1 <0>         0.1300
     57 H23        -5.3385    5.7050    4.4400 H         1 <0>         0.1364
     58 H24        -5.9676    8.4683    5.4843 H         1 <0>         0.1550
     59 H25        -4.4222   10.5440    5.7820 H         1 <0>         0.1792
     60 N4         -2.2430    2.5180   -0.1504 N.4       1 <0>        -0.3861
     61 H26        -1.3325    2.1441    0.1421 H         1 <0>         0.4271
@<TRIPOS>BOND
     1    1    2 1
     2    1   37 1
     3    1   38 1
     4    1   39 1
     5    2    3 2
     6    2    4 am
     7    4    5 1
     8    4   40 1
     9    5   10 ar
    10    5    6 ar
    11    6    7 ar
    12    6   41 1
    13    7   15 1
    14    7    8 ar
    15    8    9 ar
    16    8   12 1
    17    9   10 ar
    18    9   42 1
    19   10   11 1
    20   12   13 1
    21   12   14 1
    22   12   60 1
    23   14   19 ar
    24   14   15 ar
    25   15   16 ar
    26   16   17 ar
    27   16   43 1
    28   17   18 ar
    29   17   44 1
    30   18   19 ar
    31   18   45 1
    32   19   46 1
    33   20   21 1
    34   20   47 1
    35   20   48 1
    36   20   60 1
    37   21   22 1
    38   21   49 1
    39   21   50 1
    40   22   23 1
    41   22   25 am
    42   23   24 1
    43   23   51 1
    44   23   52 1
    45   24   53 1
    46   24   54 1
    47   24   60 1
    48   25   26 2
    49   25   27 1
    50   27   32 ar
    51   27   28 ar
    52   28   29 ar
    53   28   55 1
    54   29   30 ar
    55   29   56 1
    56   30   35 1
    57   30   31 ar
    58   31   32 ar
    59   31   33 1
    60   32   57 1
    61   33   34 2
    62   33   58 1
    63   34   35 1
    64   34   59 1
    65   35   36 1
    66   60   61 1
@<TRIPOS>MOLECULE
ZINC03591586
   60    65     0     0     0
SMALL
USER_CHARGES

@<TRIPOS>ATOM
      1 C1         -3.0768    4.2995    0.9827 C.3       1 <0>         0.0321
      2 O1         -3.0464    4.5872    2.4056 O.3       1 <0>        -0.3340
      3 C2         -2.4308    5.7230    2.7868 C.2       1 <0>         0.5235
      4 O2         -1.9329    6.4532    1.9535 O.2       1 <0>        -0.5359
      5 C3         -2.3610    6.0807    4.2186 C.ar      1 <0>        -0.1013
      6 C4         -2.9329    5.2426    5.1799 C.ar      1 <0>        -0.0430
      7 C5         -2.8648    5.5808    6.5161 C.ar      1 <0>        -0.0967
      8 C6         -2.2340    6.7436    6.9121 C.ar      1 <0>        -0.0491
      9 C7         -1.6578    7.5911    5.9624 C.ar      1 <0>        -0.0360
     10 C8         -1.7203    7.2513    4.6163 C.ar      1 <0>        -0.0927
     11 C9         -1.0163    8.3359    3.8388 C.3       1 <0>         0.1423
     12 H1         -1.7104    8.8123    3.1465 H         1 <0>         0.1594
     13 C10        -0.5343    9.3354    4.8615 C.ar      1 <0>        -0.1420
     14 C11        -0.9325    8.8773    6.1142 C.ar      1 <0>        -0.0393
     15 C12        -0.6101    9.6225    7.2498 C.ar      1 <0>        -0.0807
     16 C13         0.0841   10.8074    7.1218 C.ar      1 <0>        -0.0861
     17 C14         0.4631   11.2618    5.8713 C.ar      1 <0>        -0.0969
     18 C15         0.1638   10.5186    4.7432 C.ar      1 <0>        -0.0859
     19 C16         1.1001    7.1743    4.0239 C.3       1 <0>        -0.0167
     20 C17         2.1771    6.4425    3.2160 C.3       1 <0>         0.0931
     21 N1          2.7420    7.3800    2.2336 N.am      1 <0>        -0.6282
     22 C18         1.8142    8.1219    1.3663 C.3       1 <0>         0.0718
     23 C19         0.7515    8.7876    2.2471 C.3       1 <0>        -0.0237
     24 C20         4.0744    7.5544    2.1305 C.2       1 <0>         0.5798
     25 O3          4.8218    7.0068    2.9177 O.2       1 <0>        -0.5110
     26 C21         4.6265    8.4104    1.0615 C.ar      1 <0>        -0.1813
     27 C22         3.9843    8.4786   -0.1830 C.ar      1 <0>        -0.0897
     28 C23         4.4782    9.2690   -1.1778 C.ar      1 <0>        -0.1255
     29 C24         5.6392   10.0122   -0.9727 C.ar      1 <0>         0.1200
     30 C25         6.2969    9.9478    0.2715 C.ar      1 <0>        -0.1180
     31 C26         5.7868    9.1443    1.2882 C.ar      1 <0>         0.0075
     32 C27         7.4616   10.8306    0.1598 C.2       1 <0>        -0.1926
     33 C28         7.4414   11.3490   -1.0778 C.2       1 <0>         0.0575
     34 N2          6.3600   10.8708   -1.7670 N.pl3     1 <0>        -0.5878
     35 H2          6.1355   11.1038   -2.6815 H         1 <0>         0.4218
     36 H3         -3.6006    3.3587    0.8133 H         1 <0>         0.1160
     37 H4         -2.0570    4.2205    0.6061 H         1 <0>         0.0713
     38 H5         -3.5957    5.1034    0.4605 H         1 <0>         0.0740
     39 H6         -3.4273    4.3313    4.8773 H         1 <0>         0.1585
     40 H7         -3.3075    4.9316    7.2570 H         1 <0>         0.1545
     41 H8         -2.1855    6.9988    7.9604 H         1 <0>         0.1475
     42 H9         -0.9037    9.2713    8.2280 H         1 <0>         0.1388
     43 H10         0.3332   11.3827    8.0013 H         1 <0>         0.1431
     44 H11         1.0066   12.1903    5.7768 H         1 <0>         0.1431
     45 H12         0.4635   10.8733    3.7681 H         1 <0>         0.1341
     46 H13         1.5641    7.9586    4.6220 H         1 <0>         0.1360
     47 H14         0.5944    6.4665    4.6808 H         1 <0>         0.1327
     48 H15         1.7320    5.5931    2.6977 H         1 <0>         0.0910
     49 H16         2.9641    6.0951    3.8853 H         1 <0>         0.1381
     50 H17         1.3343    7.4340    0.6702 H         1 <0>         0.0977
     51 H18         2.3614    8.8850    0.8128 H         1 <0>         0.1480
     52 H19        -0.0069    9.2500    1.6154 H         1 <0>         0.1425
     53 H20         1.2204    9.5495    2.8699 H         1 <0>         0.1363
     54 H21         3.0868    7.9026   -0.3537 H         1 <0>         0.1341
     55 H22         3.9708    9.3155   -2.1301 H         1 <0>         0.1303
     56 H23         6.2873    9.0911    2.2437 H         1 <0>         0.1362
     57 H24         8.1957   11.0268    0.9273 H         1 <0>         0.1548
     58 H25         8.1705   12.0416   -1.4716 H         1 <0>         0.1790
     59 N3          0.1123    7.7505    3.0859 N.4       1 <0>        -0.3831
     60 H26        -0.2442    7.0038    2.4779 H         1 <0>         0.4305
@<TRIPOS>BOND
     1    1    2 1
     2    1   36 1
     3    1   37 1
     4    1   38 1
     5    2    3 1
     6    3    4 2
     7    3    5 1
     8    5   10 ar
     9    5    6 ar
    10    6    7 ar
    11    6   39 1
    12    7    8 ar
    13    7   40 1
    14    8    9 ar
    15    8   41 1
    16    9   14 1
    17    9   10 ar
    18   10   11 1
    19   11   12 1
    20   11   13 1
    21   11   59 1
    22   13   18 ar
    23   13   14 ar
    24   14   15 ar
    25   15   16 ar
    26   15   42 1
    27   16   17 ar
    28   16   43 1
    29   17   18 ar
    30   17   44 1
    31   18   45 1
    32   19   20 1
    33   19   46 1
    34   19   47 1
    35   19   59 1
    36   20   21 1
    37   20   48 1
    38   20   49 1
    39   21   22 1
    40   21   24 am
    41   22   23 1
    42   22   50 1
    43   22   51 1
    44   23   52 1
    45   23   53 1
    46   23   59 1
    47   24   25 2
    48   24   26 1
    49   26   31 ar
    50   26   27 ar
    51   27   28 ar
    52   27   54 1
    53   28   29 ar
    54   28   55 1
    55   29   34 1
    56   29   30 ar
    57   30   31 ar
    58   30   32 1
    59   31   56 1
    60   32   33 2
    61   32   57 1
    62   33   34 1
    63   33   58 1
    64   34   35 1
    65   59   60 1
@<TRIPOS>MOLECULE
ZINC03815670
   33    36     0     0     0
SMALL
USER_CHARGES

@<TRIPOS>ATOM
      1 C1          3.8860   -5.8214   -0.0660 C.ar      1 <0>        -0.1003
      2 C2          2.5652   -6.2462   -0.0563 C.ar      1 <0>        -0.1260
      3 C3          1.5421   -5.3409   -0.0424 C.ar      1 <0>        -0.0649
      4 C4          1.8236   -3.9712   -0.0370 C.ar      1 <0>         0.0519
      5 C5          3.1618   -3.5409   -0.0468 C.ar      1 <0>         0.0522
      6 C6          4.1875   -4.4755   -0.0614 C.ar      1 <0>        -0.1117
      7 N1          3.1230   -2.1591   -0.0448 N.pl3     1 <0>        -0.5988
      8 H1          3.9108   -1.5433   -0.0559 H         1 <0>         0.4294
      9 C7          1.8047   -1.7912   -0.0248 C.2       1 <0>         0.3688
     10 N2          1.0458   -2.8603   -0.0237 N.2       1 <0>        -0.4865
     11 C8          1.3109   -0.3981   -0.0126 C.2       1 <0>        -0.1704
     12 C9          2.1049    0.7699   -0.0139 C.2       1 <0>         0.0911
     13 N3          1.3070    1.8029   -0.0007 N.2       1 <0>        -0.2432
     14 N4         -0.0162    1.3460    0.0094 N.pl3     1 <0>        -0.3143
     15 C10         0.0021   -0.0041    0.0020 C.2       1 <0>         0.1509
     16 C11        -1.1575    2.1477    0.0194 C.ar      1 <0>         0.5711
     17 N5         -2.3498    1.5733    0.0221 N.ar      1 <0>        -0.5082
     18 C12        -3.4524    2.3036    0.0315 C.ar      1 <0>         0.2009
     19 C13        -3.3472    3.6861    0.0385 C.ar      1 <0>        -0.1938
     20 C14        -2.0827    4.2536    0.0354 C.ar      1 <0>         0.1207
     21 N6         -1.0215    3.4638    0.0313 N.ar      1 <0>        -0.4708
     22 C15        -1.9188    5.7516    0.0432 C.3       1 <0>         0.5276
     23 F1         -1.8614    6.2076    1.3645 F         1 <0>        -0.1610
     24 F2         -0.7359    6.0947   -0.6203 F         1 <0>        -0.1546
     25 F3         -3.0068    6.3432   -0.6074 F         1 <0>        -0.1613
     26 H2          4.6835   -6.5496   -0.0770 H         1 <0>         0.1313
     27 H3          2.3436   -7.3032   -0.0597 H         1 <0>         0.1307
     28 H4          0.5176   -5.6825   -0.0345 H         1 <0>         0.1304
     29 H5          5.2173   -4.1504   -0.0686 H         1 <0>         0.1242
     30 H6          3.1844    0.8027   -0.0237 H         1 <0>         0.2026
     31 H7         -0.8603   -0.6542    0.0064 H         1 <0>         0.2048
     32 H8         -4.4225    1.8290    0.0334 H         1 <0>         0.2015
     33 H9         -4.2309    4.3069    0.0466 H         1 <0>         0.1756
@<TRIPOS>BOND
     1    1    6 ar
     2    1    2 ar
     3    1   26 1
     4    2    3 ar
     5    2   27 1
     6    3    4 ar
     7    3   28 1
     8    4   10 1
     9    4    5 ar
    10    5    6 ar
    11    5    7 1
    12    6   29 1
    13    7    8 1
    14    7    9 1
    15    9   10 2
    16    9   11 1
    17   11   15 2
    18   11   12 1
    19   12   13 2
    20   12   30 1
    21   13   14 1
    22   14   15 1
    23   14   16 1
    24   15   31 1
    25   16   21 ar
    26   16   17 ar
    27   17   18 ar
    28   18   19 ar
    29   18   32 1
    30   19   20 ar
    31   19   33 1
    32   20   21 ar
    33   20   22 1
    34   22   23 1
    35   22   24 1
    36   22   25 1
@<TRIPOS>MOLECULE
ZINC03815670
   34    37     0     0     0
SMALL
USER_CHARGES

@<TRIPOS>ATOM
      1 C1          3.8860   -5.8214   -0.0660 C.ar      1 <0>        -0.0663
      2 C2          2.5652   -6.2462   -0.0563 C.ar      1 <0>        -0.0797
      3 C3          1.5421   -5.3409   -0.0424 C.ar      1 <0>        -0.0776
      4 C4          1.8236   -3.9712   -0.0370 C.ar      1 <0>         0.0521
      5 C5          3.1618   -3.5409   -0.0468 C.ar      1 <0>         0.0845
      6 C6          4.1875   -4.4755   -0.0614 C.ar      1 <0>        -0.0891
      7 N1          3.1230   -2.1591   -0.0448 N.pl3     1 <0>        -0.5397
      8 H1          3.9108   -1.5433   -0.0559 H         1 <0>         0.4697
      9 C7          1.8047   -1.7912   -0.0248 C.cat     1 <0>         0.5065
     10 C8          1.3109   -0.3981   -0.0126 C.2       1 <0>        -0.2454
     11 C9          2.1049    0.7699   -0.0139 C.2       1 <0>         0.1129
     12 N2          1.3070    1.8029   -0.0007 N.2       1 <0>        -0.2149
     13 N3         -0.0162    1.3460    0.0094 N.pl3     1 <0>        -0.2886
     14 C10         0.0021   -0.0041    0.0020 C.2       1 <0>         0.1769
     15 C11        -1.1575    2.1477    0.0194 C.ar      1 <0>         0.5461
     16 N4         -2.3498    1.5733    0.0221 N.ar      1 <0>        -0.5077
     17 C12        -3.4524    2.3036    0.0315 C.ar      1 <0>         0.2028
     18 C13        -3.3472    3.6861    0.0385 C.ar      1 <0>        -0.1715
     19 C14        -2.0827    4.2536    0.0354 C.ar      1 <0>         0.1243
     20 N5         -1.0215    3.4638    0.0313 N.ar      1 <0>        -0.4594
     21 C15        -1.9188    5.7516    0.0432 C.3       1 <0>         0.5270
     22 F1         -1.8614    6.2076    1.3645 F         1 <0>        -0.1571
     23 F2         -0.7359    6.0947   -0.6203 F         1 <0>        -0.1525
     24 F3         -3.0068    6.3432   -0.6074 F         1 <0>        -0.1568
     25 H2          4.6835   -6.5496   -0.0770 H         1 <0>         0.1568
     26 H3          2.3436   -7.3032   -0.0597 H         1 <0>         0.1562
     27 H4          0.5176   -5.6825   -0.0345 H         1 <0>         0.1524
     28 H5          5.2173   -4.1504   -0.0686 H         1 <0>         0.1536
     29 H6          3.1844    0.8027   -0.0237 H         1 <0>         0.2160
     30 H7         -0.8603   -0.6542    0.0064 H         1 <0>         0.2083
     31 H8         -4.4225    1.8290    0.0334 H         1 <0>         0.2085
     32 H9         -4.2309    4.3069    0.0466 H         1 <0>         0.1841
     33 N6          1.0448   -2.8603   -0.0237 N.pl3     1 <0>        -0.5066
     34 H10         0.0181   -2.8570   -0.0142 H         1 <0>         0.4743
@<TRIPOS>BOND
     1    1    6 ar
     2    1    2 ar
     3    1   25 1
     4    2    3 ar
     5    2   26 1
     6    3    4 ar
     7    3   27 1
     8    4    5 ar
     9    4   33 1
    10    5    6 ar
    11    5    7 1
    12    6   28 1
    13    7    8 1
    14    7    9 1
    15    9   10 1
    16    9   33 2
    17   10   14 2
    18   10   11 1
    19   11   12 2
    20   11   29 1
    21   12   13 1
    22   13   14 1
    23   13   15 1
    24   14   30 1
    25   15   20 ar
    26   15   16 ar
    27   16   17 ar
    28   17   18 ar
    29   17   31 1
    30   18   19 ar
    31   18   32 1
    32   19   20 ar
    33   19   21 1
    34   21   22 1
    35   21   23 1
    36   21   24 1
    37   33   34 1
@<TRIPOS>MOLECULE
ZINC03832022
   29    31     0     0     0
SMALL
USER_CHARGES

@<TRIPOS>ATOM
      1 C1          4.8331    1.9664   -0.0331 C.ar      1 <0>        -0.1629
      2 C2          3.5238    2.4167   -0.0186 C.ar      1 <0>        -0.0705
      3 C3          2.4973    1.4692   -0.0139 C.ar      1 <0>        -0.0529
      4 C4          2.8290    0.1162   -0.0185 C.ar      1 <0>         0.1030
      5 N1          4.0898   -0.2650   -0.0375 N.ar      1 <0>        -0.4779
      6 C5          5.0804    0.6061   -0.0423 C.ar      1 <0>         0.0928
      7 C6          1.0758    1.8973    0.0020 C.2       1 <0>        -0.1742
      8 C7          0.6067    3.2266    0.0136 C.2       1 <0>         0.0862
      9 N2         -0.6991    3.2001    0.0259 N.2       1 <0>        -0.2460
     10 N3         -1.1183    1.8642    0.0168 N.pl3     1 <0>        -0.3185
     11 C8         -0.0126    1.0758    0.0080 C.2       1 <0>         0.1001
     12 C9         -2.4405    1.4206    0.0199 C.ar      1 <0>         0.5731
     13 N4         -2.6850    0.1200    0.0083 N.ar      1 <0>        -0.5126
     14 C10        -3.9269   -0.3349    0.0164 C.ar      1 <0>         0.2002
     15 C11        -4.9777    0.5694    0.0257 C.ar      1 <0>        -0.1964
     16 C12        -4.6849    1.9242    0.0319 C.ar      1 <0>         0.1216
     17 N5         -3.4197    2.3104    0.0287 N.ar      1 <0>        -0.4724
     18 C13        -5.7940    2.9444    0.0415 C.3       1 <0>         0.5257
     19 F1         -5.2481    4.2277   -0.0691 F         1 <0>        -0.1524
     20 F2         -6.6537    2.7088   -1.0367 F         1 <0>        -0.1618
     21 F3         -6.5098    2.8438    1.2393 F         1 <0>        -0.1617
     22 H1          5.6523    2.6702   -0.0367 H         1 <0>         0.1391
     23 H2          3.3017    3.4736   -0.0115 H         1 <0>         0.1371
     24 H3          2.0454   -0.6270   -0.0108 H         1 <0>         0.1543
     25 H4          6.1003    0.2512   -0.0532 H         1 <0>         0.1575
     26 H5          1.2215    4.1146    0.0131 H         1 <0>         0.2021
     27 H6          0.0021   -0.0041    0.0020 H         1 <0>         0.1942
     28 H7         -4.1200   -1.3975    0.0117 H         1 <0>         0.2001
     29 H8         -6.0017    0.2260    0.0277 H         1 <0>         0.1731
@<TRIPOS>BOND
     1    1    6 ar
     2    1    2 ar
     3    1   22 1
     4    2    3 ar
     5    2   23 1
     6    3    4 ar
     7    3    7 1
     8    4    5 ar
     9    4   24 1
    10    5    6 ar
    11    6   25 1
    12    7   11 2
    13    7    8 1
    14    8    9 2
    15    8   26 1
    16    9   10 1
    17   10   11 1
    18   10   12 1
    19   11   27 1
    20   12   17 ar
    21   12   13 ar
    22   13   14 ar
    23   14   15 ar
    24   14   28 1
    25   15   16 ar
    26   15   29 1
    27   16   17 ar
    28   16   18 1
    29   18   19 1
    30   18   20 1
    31   18   21 1
@<TRIPOS>MOLECULE
ZINC03832023
   35    38     0     0     0
SMALL
USER_CHARGES

@<TRIPOS>ATOM
      1 C1          2.1628    5.3217    0.0092 C.ar      1 <0>        -0.1192
      2 C2          0.9186    5.9483    0.0246 C.ar      1 <0>        -0.0977
      3 C3         -0.2328    5.2226    0.0322 C.ar      1 <0>        -0.0964
      4 C4         -0.1723    3.8177    0.0244 C.ar      1 <0>         0.1387
      5 C5          1.0946    3.1827    0.0087 C.ar      1 <0>        -0.1103
      6 C6          2.2611    3.9633    0.0013 C.ar      1 <0>        -0.0934
      7 C7          1.1573    1.7748    0.0005 C.ar      1 <0>        -0.0494
      8 C8         -0.0126    1.0758    0.0080 C.ar      1 <0>        -0.1645
      9 C9         -1.2370    1.7629    0.0175 C.ar      1 <0>         0.2447
     10 N1         -1.2873    3.0815    0.0310 N.ar      1 <0>        -0.4788
     11 C10        -2.5014    0.9898    0.0187 C.2       1 <0>        -0.1893
     12 C11        -2.6214   -0.4132    0.1107 C.2       1 <0>         0.0960
     13 N2         -3.8913   -0.7152    0.0791 N.2       1 <0>        -0.2505
     14 N3         -4.6292    0.4693   -0.0333 N.pl3     1 <0>        -0.3184
     15 C12        -3.7629    1.5054   -0.0631 C.2       1 <0>         0.1377
     16 C13        -6.0192    0.5636   -0.0973 C.ar      1 <0>         0.5725
     17 N4         -6.5812    1.7576   -0.1980 N.ar      1 <0>        -0.5105
     18 C14        -7.8961    1.8827   -0.2656 C.ar      1 <0>         0.1999
     19 C15        -8.6866    0.7446   -0.2191 C.ar      1 <0>        -0.1958
     20 C16        -8.0645   -0.4890   -0.1080 C.ar      1 <0>         0.1207
     21 N5         -6.7440   -0.5424   -0.0502 N.ar      1 <0>        -0.4711
     22 C17        -8.8823   -1.7536   -0.0533 C.3       1 <0>         0.5259
     23 F1         -8.0377   -2.8457    0.1727 F         1 <0>        -0.1523
     24 F2         -9.8142   -1.6618    0.9861 F         1 <0>        -0.1619
     25 F3         -9.5542   -1.9274   -1.2681 F         1 <0>        -0.1619
     26 H1          3.0613    5.9210    0.0030 H         1 <0>         0.1282
     27 H2          0.8669    7.0271    0.0303 H         1 <0>         0.1306
     28 H3         -1.1893    5.7239    0.0445 H         1 <0>         0.1357
     29 H4          3.2314    3.4893   -0.0104 H         1 <0>         0.1307
     30 H5          2.1082    1.2629   -0.0117 H         1 <0>         0.1428
     31 H6          0.0021   -0.0041    0.0020 H         1 <0>         0.1402
     32 H7         -1.8048   -1.1151    0.1933 H         1 <0>         0.2050
     33 H8         -4.0212    2.5512   -0.1399 H         1 <0>         0.1992
     34 H9         -8.3486    2.8595   -0.3520 H         1 <0>         0.2000
     35 H10        -9.7630    0.8177   -0.2679 H         1 <0>         0.1731
@<TRIPOS>BOND
     1    1    6 ar
     2    1    2 ar
     3    1   26 1
     4    2    3 ar
     5    2   27 1
     6    3    4 ar
     7    3   28 1
     8    4   10 ar
     9    4    5 ar
    10    5    6 ar
    11    5    7 ar
    12    6   29 1
    13    7    8 ar
    14    7   30 1
    15    8    9 ar
    16    8   31 1
    17    9   10 ar
    18    9   11 1
    19   11   15 2
    20   11   12 1
    21   12   13 2
    22   12   32 1
    23   13   14 1
    24   14   15 1
    25   14   16 1
    26   15   33 1
    27   16   21 ar
    28   16   17 ar
    29   17   18 ar
    30   18   19 ar
    31   18   34 1
    32   19   20 ar
    33   19   35 1
    34   20   21 ar
    35   20   22 1
    36   22   23 1
    37   22   24 1
    38   22   25 1
@<TRIPOS>MOLECULE
ZINC03832025
   35    38     0     0     0
SMALL
USER_CHARGES

@<TRIPOS>ATOM
      1 C1          2.1394    5.3580    0.0084 C.ar      1 <0>        -0.1137
      2 C2          0.8868    5.9671    0.0229 C.ar      1 <0>        -0.0989
      3 C3         -0.2543    5.2251    0.0298 C.ar      1 <0>        -0.0933
      4 C4         -0.1740    3.8214    0.0233 C.ar      1 <0>         0.1320
      5 C5          1.1009    3.2063    0.0082 C.ar      1 <0>        -0.0902
      6 C6          2.2553    4.0003    0.0009 C.ar      1 <0>        -0.0977
      7 C7          1.1787    1.7906    0.0004 C.ar      1 <0>         0.0549
      8 C8         -0.0126    1.0758    0.0080 C.ar      1 <0>        -0.1679
      9 C9         -1.2222    1.7576    0.0174 C.ar      1 <0>         0.1359
     10 N1         -1.2792    3.0686    0.0293 N.ar      1 <0>        -0.4762
     11 C10         2.4866    1.0969   -0.0157 C.2       1 <0>        -0.1887
     12 C11         3.5564    1.3525   -0.9006 C.2       1 <0>         0.0897
     13 N2          4.5350    0.5423   -0.5995 N.2       1 <0>        -0.2462
     14 N3          4.1341   -0.2636    0.4727 N.pl3     1 <0>        -0.3152
     15 C12         2.8766    0.0882    0.8191 C.2       1 <0>         0.1110
     16 C13         4.9009   -1.2585    1.0788 C.ar      1 <0>         0.5718
     17 N4          4.3899   -1.9401    2.0917 N.ar      1 <0>        -0.5122
     18 C14         5.0876   -2.8938    2.6857 C.ar      1 <0>         0.2000
     19 C15         6.3723   -3.1675    2.2419 C.ar      1 <0>        -0.1951
     20 C16         6.8775   -2.4303    1.1825 C.ar      1 <0>         0.1215
     21 N5          6.1233   -1.4941    0.6306 N.ar      1 <0>        -0.4710
     22 C17         8.2689   -2.6918    0.6660 C.3       1 <0>         0.5257
     23 F1          8.5849   -1.7508   -0.3198 F         1 <0>        -0.1522
     24 F2          9.1842   -2.5891    1.7191 F         1 <0>        -0.1617
     25 F3          8.3294   -3.9781    0.1194 F         1 <0>        -0.1615
     26 H1          3.0297    5.9693    0.0027 H         1 <0>         0.1288
     27 H2          0.8200    7.0450    0.0283 H         1 <0>         0.1314
     28 H3         -1.2179    5.7128    0.0411 H         1 <0>         0.1371
     29 H4          3.2316    3.5387   -0.0110 H         1 <0>         0.1291
     30 H5          0.0021   -0.0041    0.0020 H         1 <0>         0.1392
     31 H6         -2.1427    1.1926    0.0186 H         1 <0>         0.1622
     32 H7          3.5649    2.0916   -1.6881 H         1 <0>         0.2031
     33 H8          2.2867   -0.3487    1.6113 H         1 <0>         0.1948
     34 H9          4.6636   -3.4493    3.5091 H         1 <0>         0.2002
     35 H10         6.9662   -3.9377    2.7115 H         1 <0>         0.1735
@<TRIPOS>BOND
     1    1    6 ar
     2    1    2 ar
     3    1   26 1
     4    2    3 ar
     5    2   27 1
     6    3    4 ar
     7    3   28 1
     8    4   10 ar
     9    4    5 ar
    10    5    6 ar
    11    5    7 ar
    12    6   29 1
    13    7    8 ar
    14    7   11 1
    15    8    9 ar
    16    8   30 1
    17    9   10 ar
    18    9   31 1
    19   11   15 2
    20   11   12 1
    21   12   13 2
    22   12   32 1
    23   13   14 1
    24   14   15 1
    25   14   16 1
    26   15   33 1
    27   16   21 ar
    28   16   17 ar
    29   17   18 ar
    30   18   19 ar
    31   18   34 1
    32   19   20 ar
    33   19   35 1
    34   20   21 ar
    35   20   22 1
    36   22   23 1
    37   22   24 1
    38   22   25 1
@<TRIPOS>MOLECULE
ZINC03832026
   51    54     0     0     0
SMALL
USER_CHARGES

@<TRIPOS>ATOM
      1 C1          6.5102    8.6451   -3.7718 C.ar      1 <0>        -0.1468
      2 C2          7.7918    9.0573   -3.4328 C.ar      1 <0>        -0.0987
      3 C3          8.1770    9.1407   -2.1129 C.ar      1 <0>        -0.1314
      4 C4          7.2745    8.8090   -1.1074 C.ar      1 <0>         0.0944
      5 C5          5.9771    8.3920   -1.4562 C.ar      1 <0>        -0.1017
      6 C6          5.6080    8.3143   -2.8006 C.ar      1 <0>        -0.0702
      7 C7          5.2857    8.1215   -0.1934 C.2       1 <0>        -0.1690
      8 C8          6.1566    8.3821    0.7944 C.2       1 <0>         0.0526
      9 N1          7.3519    8.7889    0.2671 N.pl3     1 <0>        -0.5961
     10 H1          8.1357    9.0310    0.7847 H         1 <0>         0.4159
     11 C9          3.8643    7.6471   -0.0333 C.3       1 <0>        -0.0430
     12 C10         3.8195    6.1222   -0.1497 C.3       1 <0>        -0.0986
     13 C11         2.3764    5.6405    0.0128 C.3       1 <0>        -0.1402
     14 C12         2.3323    4.1385   -0.1018 C.2       1 <0>         0.5112
     15 O1          3.3545    3.5147   -0.2945 O.2       1 <0>        -0.5164
     16 N2          1.1570    3.4884    0.0098 N.am      1 <0>        -0.6785
     17 C13         1.1290    2.0872    0.0155 C.ar      1 <0>         0.1435
     18 C14         2.1625    1.3746    0.6090 C.ar      1 <0>        -0.1089
     19 C15         2.1352   -0.0057    0.6147 C.ar      1 <0>        -0.1298
     20 C16         1.0738   -0.6816    0.0267 C.ar      1 <0>         0.0651
     21 C17         0.0401    0.0313   -0.5668 C.ar      1 <0>        -0.0745
     22 C18         0.0678    1.4116   -0.5723 C.ar      1 <0>        -0.1386
     23 N3          1.0461   -2.0802    0.0320 N.pl3     1 <0>        -0.4825
     24 C19         2.1974   -2.6382   -0.7226 C.3       1 <0>         0.0376
     25 C20         2.3065   -4.0865   -0.1830 C.3       1 <0>        -0.1242
     26 C21         1.9673   -3.9233    1.3164 C.3       1 <0>        -0.1326
     27 C22         1.1721   -2.6077    1.4080 C.3       1 <0>         0.0363
     28 H2          6.2243    8.5848   -4.8115 H         1 <0>         0.1220
     29 H3          8.4941    9.3148   -4.2119 H         1 <0>         0.1248
     30 H4          9.1765    9.4621   -1.8595 H         1 <0>         0.1190
     31 H5          4.6128    7.9942   -3.0717 H         1 <0>         0.1201
     32 H6          5.9456    8.2834    1.8490 H         1 <0>         0.1688
     33 H7          3.2437    8.0894   -0.8126 H         1 <0>         0.0709
     34 H8          3.4888    7.9480    0.9447 H         1 <0>         0.0702
     35 H9          4.4401    5.6799    0.6296 H         1 <0>         0.0700
     36 H10         4.1950    5.8212   -1.1277 H         1 <0>         0.0720
     37 H11         1.7558    6.0828   -0.7665 H         1 <0>         0.0977
     38 H12         2.0009    5.9414    0.9908 H         1 <0>         0.0983
     39 H13         0.3305    3.9903    0.0862 H         1 <0>         0.4116
     40 H14         2.9856    1.9003    1.0701 H         1 <0>         0.1318
     41 H15         2.9392   -0.5599    1.0760 H         1 <0>         0.1222
     42 H16        -0.7851   -0.4941   -1.0244 H         1 <0>         0.1338
     43 H17        -0.7359    1.9660   -1.0338 H         1 <0>         0.1295
     44 H18         1.9910   -2.6410   -1.7928 H         1 <0>         0.0852
     45 H19         3.1070   -2.0777   -0.5066 H         1 <0>         0.0505
     46 H20         3.3188   -4.4702   -0.3099 H         1 <0>         0.0740
     47 H21         1.5839   -4.7391   -0.6731 H         1 <0>         0.0770
     48 H22         2.8816   -3.8545    1.9058 H         1 <0>         0.0681
     49 H23         1.3571   -4.7588    1.6594 H         1 <0>         0.0749
     50 H24         1.7079   -1.8926    2.0322 H         1 <0>         0.0508
     51 H25         0.1830   -2.7965    1.8253 H         1 <0>         0.0820
@<TRIPOS>BOND
     1    1    6 ar
     2    1    2 ar
     3    1   28 1
     4    2    3 ar
     5    2   29 1
     6    3    4 ar
     7    3   30 1
     8    4    9 1
     9    4    5 ar
    10    5    6 ar
    11    5    7 1
    12    6   31 1
    13    7    8 2
    14    7   11 1
    15    8    9 1
    16    8   32 1
    17    9   10 1
    18   11   12 1
    19   11   33 1
    20   11   34 1
    21   12   13 1
    22   12   35 1
    23   12   36 1
    24   13   14 1
    25   13   37 1
    26   13   38 1
    27   14   15 2
    28   14   16 am
    29   16   17 1
    30   16   39 1
    31   17   22 ar
    32   17   18 ar
    33   18   19 ar
    34   18   40 1
    35   19   20 ar
    36   19   41 1
    37   20   21 ar
    38   20   23 1
    39   21   22 ar
    40   21   42 1
    41   22   43 1
    42   23   27 1
    43   23   24 1
    44   24   25 1
    45   24   44 1
    46   24   45 1
    47   25   26 1
    48   25   46 1
    49   25   47 1
    50   26   27 1
    51   26   48 1
    52   26   49 1
    53   27   50 1
    54   27   51 1
@<TRIPOS>MOLECULE
ZINC03832027
   42    45     0     0     0
SMALL
USER_CHARGES

@<TRIPOS>ATOM
      1 C1          5.4710    3.2842   -4.0563 C.ar      1 <0>        -0.1458
      2 C2          4.6628    4.0773   -3.2625 C.ar      1 <0>        -0.0943
      3 C3          3.7161    3.4973   -2.4412 C.ar      1 <0>        -0.1400
      4 C4          3.5762    2.1155   -2.4131 C.ar      1 <0>         0.1097
      5 C5          4.3933    1.3215   -3.2078 C.ar      1 <0>        -0.1715
      6 C6          5.3344    1.9083   -4.0307 C.ar      1 <0>        -0.0933
      7 N1          2.6200    1.5256   -1.5832 N.pl3     1 <0>        -0.4881
      8 C7          1.2807    2.0627   -1.8584 C.3       1 <0>         0.0443
      9 C8          0.2953    1.5290   -0.8133 C.3       1 <0>         0.1154
     10 N2          0.3847    0.0611   -0.7936 N.am      1 <0>        -0.6114
     11 C9          1.7141   -0.5534   -0.6590 C.3       1 <0>         0.1020
     12 C10         2.6437    0.0623   -1.7102 C.3       1 <0>         0.0354
     13 C11        -0.7224   -0.7008   -0.8958 C.2       1 <0>         0.5693
     14 O1         -1.8190   -0.1773   -0.9360 O.2       1 <0>        -0.5327
     15 C12        -0.6035   -2.1712   -0.9590 C.ar      1 <0>        -0.1602
     16 C13         0.1865   -2.8510   -0.0212 C.ar      1 <0>        -0.0743
     17 C14         0.3023   -4.2086   -0.0633 C.ar      1 <0>        -0.1298
     18 C15        -0.3575   -4.9390   -1.0500 C.ar      1 <0>         0.1127
     19 C16        -1.1499   -4.2671   -2.0014 C.ar      1 <0>        -0.1170
     20 C17        -1.2709   -2.8806   -1.9528 C.ar      1 <0>        -0.0100
     21 C18        -1.6940   -5.3057   -2.8810 C.2       1 <0>        -0.1951
     22 C19        -1.2244   -6.4809   -2.4346 C.2       1 <0>         0.0504
     23 N3         -0.4249   -6.2798   -1.3421 N.pl3     1 <0>        -0.5920
     24 H1          0.0274   -6.9807   -0.8470 H         1 <0>         0.4183
     25 H2          6.2103    3.7404   -4.6979 H         1 <0>         0.1214
     26 H3          4.7719    5.1515   -3.2851 H         1 <0>         0.1244
     27 H4          3.0854    4.1172   -1.8213 H         1 <0>         0.1251
     28 H5          4.2901    0.2467   -3.1849 H         1 <0>         0.1258
     29 H6          5.9672    1.2918   -4.6519 H         1 <0>         0.1223
     30 H7          0.9609    1.7507   -2.8526 H         1 <0>         0.0501
     31 H8          1.3084    3.1513   -1.8098 H         1 <0>         0.0965
     32 H9         -0.7181    1.8306   -1.0779 H         1 <0>         0.1019
     33 H10         0.5534    1.9247    0.1690 H         1 <0>         0.0795
     34 H11         2.1086   -0.3579    0.3382 H         1 <0>         0.0811
     35 H12         1.6382   -1.6291   -0.8182 H         1 <0>         0.1049
     36 H13         3.6598   -0.3000   -1.5540 H         1 <0>         0.0968
     37 H14         2.3049   -0.2219   -2.7064 H         1 <0>         0.0527
     38 H15         0.7053   -2.2938    0.7448 H         1 <0>         0.1325
     39 H16         0.9108   -4.7197    0.6681 H         1 <0>         0.1273
     40 H17        -1.8775   -2.3607   -2.6796 H         1 <0>         0.1307
     41 H18        -2.3480   -5.1542   -3.7270 H         1 <0>         0.1507
     42 H19        -1.4448   -7.4431   -2.8727 H         1 <0>         0.1743
@<TRIPOS>BOND
     1    1    6 ar
     2    1    2 ar
     3    1   25 1
     4    2    3 ar
     5    2   26 1
     6    3    4 ar
     7    3   27 1
     8    4    5 ar
     9    4    7 1
    10    5    6 ar
    11    5   28 1
    12    6   29 1
    13    7   12 1
    14    7    8 1
    15    8    9 1
    16    8   30 1
    17    8   31 1
    18    9   10 1
    19    9   32 1
    20    9   33 1
    21   10   11 1
    22   10   13 am
    23   11   12 1
    24   11   34 1
    25   11   35 1
    26   12   36 1
    27   12   37 1
    28   13   14 2
    29   13   15 1
    30   15   20 ar
    31   15   16 ar
    32   16   17 ar
    33   16   38 1
    34   17   18 ar
    35   17   39 1
    36   18   23 1
    37   18   19 ar
    38   19   20 ar
    39   19   21 1
    40   20   40 1
    41   21   22 2
    42   21   41 1
    43   22   23 1
    44   22   42 1
    45   23   24 1
@<TRIPOS>MOLECULE
ZINC03832028
   46    49     0     0     0
SMALL
USER_CHARGES

@<TRIPOS>ATOM
      1 C1         11.4288    6.3306   -0.2067 C.3       1 <0>         0.0250
      2 O1         10.1980    5.6204   -0.3577 O.3       1 <0>        -0.3051
      3 C2         10.1219    4.7275   -1.3809 C.ar      1 <0>         0.1196
      4 C3         11.2076    4.5391   -2.2200 C.ar      1 <0>        -0.1902
      5 C4         11.1291    3.6303   -3.2593 C.ar      1 <0>        -0.0997
      6 C5          9.9685    2.9075   -3.4644 C.ar      1 <0>        -0.1334
      7 C6          8.8822    3.0862   -2.6285 C.ar      1 <0>        -0.1322
      8 C7          8.9519    4.0000   -1.5871 C.ar      1 <0>         0.0749
      9 N1          7.8516    4.1863   -0.7423 N.pl3     1 <0>        -0.4788
     10 C8          7.2882    5.5336   -0.9011 C.3       1 <0>         0.0476
     11 C9          6.2080    5.7605    0.1619 C.3       1 <0>         0.1179
     12 N2          5.2314    4.6641    0.0770 N.am      1 <0>        -0.6121
     13 C10         5.7335    3.2818    0.0973 C.3       1 <0>         0.0992
     14 C11         6.8328    3.1526   -0.9690 C.3       1 <0>         0.0352
     15 C12         3.9109    4.9191   -0.0114 C.2       1 <0>         0.5680
     16 O2          3.5194    6.0643   -0.1273 O.2       1 <0>        -0.5367
     17 C13         2.9398    3.8078    0.0324 C.ar      1 <0>        -0.1655
     18 C14         3.2053    2.6760    0.8162 C.ar      1 <0>        -0.0768
     19 C15         2.3185    1.6420    0.8675 C.ar      1 <0>        -0.1336
     20 C16         1.1322    1.6981    0.1381 C.ar      1 <0>         0.1156
     21 C17         0.8537    2.8298   -0.6532 C.ar      1 <0>        -0.1206
     22 C18         1.7615    3.8848   -0.7038 C.ar      1 <0>        -0.0022
     23 C19        -0.4473    2.5760   -1.2789 C.2       1 <0>        -0.1934
     24 C20        -0.8547    1.3690   -0.8569 C.2       1 <0>         0.0488
     25 N3          0.0740    0.8336   -0.0060 N.pl3     1 <0>        -0.5920
     26 H1         -0.0017   -0.0305    0.4280 H         1 <0>         0.4182
     27 H2         11.3553    7.0081    0.6440 H         1 <0>         0.1006
     28 H3         12.2391    5.6215   -0.0374 H         1 <0>         0.0549
     29 H4         11.6309    6.9040   -1.1114 H         1 <0>         0.0537
     30 H5         12.1158    5.1018   -2.0624 H         1 <0>         0.1305
     31 H6         11.9768    3.4845   -3.9123 H         1 <0>         0.1249
     32 H7          9.9119    2.1986   -4.2772 H         1 <0>         0.1246
     33 H8          7.9783    2.5173   -2.7884 H         1 <0>         0.1319
     34 H9          6.8476    5.6290   -1.8935 H         1 <0>         0.0445
     35 H10         8.0783    6.2748   -0.7807 H         1 <0>         0.0997
     36 H11         5.7078    6.7114   -0.0215 H         1 <0>         0.1000
     37 H12         6.6618    5.7707    1.1529 H         1 <0>         0.0792
     38 H13         6.1451    3.0562    1.0811 H         1 <0>         0.0816
     39 H14         4.9194    2.5931   -0.1288 H         1 <0>         0.1079
     40 H15         6.3985    3.2811   -1.9605 H         1 <0>         0.0505
     41 H16         7.2926    2.1669   -0.8979 H         1 <0>         0.0944
     42 H17         4.1218    2.6229    1.3852 H         1 <0>         0.1377
     43 H18         2.5358    0.7764    1.4757 H         1 <0>         0.1271
     44 H19         1.5530    4.7545   -1.3091 H         1 <0>         0.1335
     45 H20        -0.9752    3.2331   -1.9541 H         1 <0>         0.1509
     46 H21        -1.7799    0.8917   -1.1443 H         1 <0>         0.1742
@<TRIPOS>BOND
     1    1    2 1
     2    1   27 1
     3    1   28 1
     4    1   29 1
     5    2    3 1
     6    3    8 ar
     7    3    4 ar
     8    4    5 ar
     9    4   30 1
    10    5    6 ar
    11    5   31 1
    12    6    7 ar
    13    6   32 1
    14    7    8 ar
    15    7   33 1
    16    8    9 1
    17    9   14 1
    18    9   10 1
    19   10   11 1
    20   10   34 1
    21   10   35 1
    22   11   12 1
    23   11   36 1
    24   11   37 1
    25   12   13 1
    26   12   15 am
    27   13   14 1
    28   13   38 1
    29   13   39 1
    30   14   40 1
    31   14   41 1
    32   15   16 2
    33   15   17 1
    34   17   22 ar
    35   17   18 ar
    36   18   19 ar
    37   18   42 1
    38   19   20 ar
    39   19   43 1
    40   20   25 1
    41   20   21 ar
    42   21   22 ar
    43   21   23 1
    44   22   44 1
    45   23   24 2
    46   23   45 1
    47   24   25 1
    48   24   46 1
    49   25   26 1
@<TRIPOS>MOLECULE
ZINC03832029
   42    45     0     0     0
SMALL
USER_CHARGES

@<TRIPOS>ATOM
      1 C1          4.3938    1.3218   -3.2082 C.ar      1 <0>        -0.1428
      2 C2          5.3354    1.9076   -4.0316 C.ar      1 <0>        -0.1251
      3 C3          5.4726    3.2852   -4.0577 C.ar      1 <0>         0.0720
      4 C4          4.6631    4.0788   -3.2627 C.ar      1 <0>        -0.1262
      5 C5          3.7166    3.4976   -2.4417 C.ar      1 <0>        -0.1108
      6 C6          3.5772    2.1161   -2.4139 C.ar      1 <0>         0.1012
      7 N1          2.6200    1.5256   -1.5832 N.pl3     1 <0>        -0.4858
      8 C7          1.2807    2.0627   -1.8584 C.3       1 <0>         0.0429
      9 C8          0.2953    1.5290   -0.8133 C.3       1 <0>         0.1154
     10 N2          0.3847    0.0611   -0.7936 N.am      1 <0>        -0.6120
     11 C9          1.7141   -0.5534   -0.6590 C.3       1 <0>         0.1022
     12 C10         2.6437    0.0623   -1.7102 C.3       1 <0>         0.0334
     13 C11        -0.7224   -0.7008   -0.8958 C.2       1 <0>         0.5696
     14 O1         -1.8190   -0.1773   -0.9360 O.2       1 <0>        -0.5320
     15 C12        -0.6035   -2.1712   -0.9590 C.ar      1 <0>        -0.1608
     16 C13         0.1865   -2.8510   -0.0212 C.ar      1 <0>        -0.0745
     17 C14         0.3023   -4.2086   -0.0633 C.ar      1 <0>        -0.1298
     18 C15        -0.3575   -4.9390   -1.0500 C.ar      1 <0>         0.1129
     19 C16        -1.1499   -4.2671   -2.0014 C.ar      1 <0>        -0.1170
     20 C17        -1.2709   -2.8806   -1.9528 C.ar      1 <0>        -0.0097
     21 C18        -1.6940   -5.3057   -2.8810 C.2       1 <0>        -0.1950
     22 C19        -1.2244   -6.4809   -2.4346 C.2       1 <0>         0.0506
     23 N3         -0.4249   -6.2798   -1.3421 N.pl3     1 <0>        -0.5919
     24 H1          0.0274   -6.9807   -0.8470 H         1 <0>         0.4184
     25 F1          6.3975    3.8558   -4.8603 F         1 <0>        -0.1410
     26 H2          4.2899    0.2471   -3.1851 H         1 <0>         0.1367
     27 H3          5.9676    1.2905   -4.6528 H         1 <0>         0.1363
     28 H4          4.7716    5.1531   -3.2848 H         1 <0>         0.1384
     29 H5          3.0852    4.1170   -1.8220 H         1 <0>         0.1366
     30 H6          0.9609    1.7507   -2.8526 H         1 <0>         0.0520
     31 H7          1.3084    3.1513   -1.8098 H         1 <0>         0.0974
     32 H8         -0.7181    1.8306   -1.0779 H         1 <0>         0.1026
     33 H9          0.5534    1.9247    0.1690 H         1 <0>         0.0801
     34 H10         2.1086   -0.3579    0.3382 H         1 <0>         0.0818
     35 H11         1.6382   -1.6291   -0.8182 H         1 <0>         0.1056
     36 H12         3.6598   -0.3000   -1.5540 H         1 <0>         0.0980
     37 H13         2.3049   -0.2219   -2.7064 H         1 <0>         0.0546
     38 H14         0.7053   -2.2938    0.7448 H         1 <0>         0.1325
     39 H15         0.9108   -4.7197    0.6681 H         1 <0>         0.1274
     40 H16        -1.8775   -2.3607   -2.6796 H         1 <0>         0.1307
     41 H17        -2.3480   -5.1542   -3.7270 H         1 <0>         0.1508
     42 H18        -1.4448   -7.4431   -2.8727 H         1 <0>         0.1744
@<TRIPOS>BOND
     1    1    6 ar
     2    1    2 ar
     3    1   26 1
     4    2    3 ar
     5    2   27 1
     6    3    4 ar
     7    3   25 1
     8    4    5 ar
     9    4   28 1
    10    5    6 ar
    11    5   29 1
    12    6    7 1
    13    7   12 1
    14    7    8 1
    15    8    9 1
    16    8   30 1
    17    8   31 1
    18    9   10 1
    19    9   32 1
    20    9   33 1
    21   10   11 1
    22   10   13 am
    23   11   12 1
    24   11   34 1
    25   11   35 1
    26   12   36 1
    27   12   37 1
    28   13   14 2
    29   13   15 1
    30   15   20 ar
    31   15   16 ar
    32   16   17 ar
    33   16   38 1
    34   17   18 ar
    35   17   39 1
    36   18   23 1
    37   18   19 ar
    38   19   20 ar
    39   19   21 1
    40   20   40 1
    41   21   22 2
    42   21   41 1
    43   22   23 1
    44   22   42 1
    45   23   24 1
@<TRIPOS>MOLECULE
ZINC03832030
   42    45     0     0     0
SMALL
USER_CHARGES

@<TRIPOS>ATOM
      1 C1          4.3934    1.3216   -3.2080 C.ar      1 <0>        -0.1598
      2 C2          5.3338    1.9080   -4.0322 C.ar      1 <0>        -0.0816
      3 C3          5.4711    3.2847   -4.0577 C.ar      1 <0>        -0.0608
      4 C4          4.6625    4.0781   -3.2629 C.ar      1 <0>        -0.0831
      5 C5          3.7163    3.4974   -2.4414 C.ar      1 <0>        -0.1280
      6 C6          3.5766    2.1158   -2.4135 C.ar      1 <0>         0.1167
      7 N1          2.6200    1.5256   -1.5832 N.pl3     1 <0>        -0.4866
      8 C7          1.2807    2.0627   -1.8584 C.3       1 <0>         0.0434
      9 C8          0.2953    1.5290   -0.8133 C.3       1 <0>         0.1153
     10 N2          0.3847    0.0611   -0.7936 N.am      1 <0>        -0.6120
     11 C9          1.7141   -0.5534   -0.6590 C.3       1 <0>         0.1021
     12 C10         2.6437    0.0623   -1.7102 C.3       1 <0>         0.0335
     13 C11        -0.7224   -0.7008   -0.8958 C.2       1 <0>         0.5697
     14 O1         -1.8190   -0.1773   -0.9360 O.2       1 <0>        -0.5318
     15 C12        -0.6035   -2.1712   -0.9590 C.ar      1 <0>        -0.1608
     16 C13         0.1865   -2.8510   -0.0212 C.ar      1 <0>        -0.0746
     17 C14         0.3023   -4.2086   -0.0633 C.ar      1 <0>        -0.1297
     18 C15        -0.3575   -4.9390   -1.0500 C.ar      1 <0>         0.1129
     19 C16        -1.1499   -4.2671   -2.0014 C.ar      1 <0>        -0.1170
     20 C17        -1.2709   -2.8806   -1.9528 C.ar      1 <0>        -0.0097
     21 C18        -1.6940   -5.3057   -2.8810 C.2       1 <0>        -0.1949
     22 C19        -1.2244   -6.4809   -2.4346 C.2       1 <0>         0.0506
     23 N3         -0.4249   -6.2798   -1.3421 N.pl3     1 <0>        -0.5919
     24 H1          0.0274   -6.9807   -0.8470 H         1 <0>         0.4184
     25 Cl1         6.6594    4.0180   -5.0892 Cl        1 <0>        -0.0716
     26 H2          4.2903    0.2468   -3.1847 H         1 <0>         0.1360
     27 H3          5.9657    1.2912   -4.6541 H         1 <0>         0.1341
     28 H4          4.7713    5.1524   -3.2853 H         1 <0>         0.1361
     29 H5          3.0853    4.1171   -1.8215 H         1 <0>         0.1356
     30 H6          0.9609    1.7507   -2.8526 H         1 <0>         0.0524
     31 H7          1.3084    3.1513   -1.8098 H         1 <0>         0.0978
     32 H8         -0.7181    1.8306   -1.0779 H         1 <0>         0.1028
     33 H9          0.5534    1.9247    0.1690 H         1 <0>         0.0801
     34 H10         2.1086   -0.3579    0.3382 H         1 <0>         0.0817
     35 H11         1.6382   -1.6291   -0.8182 H         1 <0>         0.1058
     36 H12         3.6598   -0.3000   -1.5540 H         1 <0>         0.0982
     37 H13         2.3049   -0.2219   -2.7064 H         1 <0>         0.0550
     38 H14         0.7053   -2.2938    0.7448 H         1 <0>         0.1324
     39 H15         0.9108   -4.7197    0.6681 H         1 <0>         0.1274
     40 H16        -1.8775   -2.3607   -2.6796 H         1 <0>         0.1307
     41 H17        -2.3480   -5.1542   -3.7270 H         1 <0>         0.1508
     42 H18        -1.4448   -7.4431   -2.8727 H         1 <0>         0.1744
@<TRIPOS>BOND
     1    1    6 ar
     2    1    2 ar
     3    1   26 1
     4    2    3 ar
     5    2   27 1
     6    3    4 ar
     7    3   25 1
     8    4    5 ar
     9    4   28 1
    10    5    6 ar
    11    5   29 1
    12    6    7 1
    13    7   12 1
    14    7    8 1
    15    8    9 1
    16    8   30 1
    17    8   31 1
    18    9   10 1
    19    9   32 1
    20    9   33 1
    21   10   11 1
    22   10   13 am
    23   11   12 1
    24   11   34 1
    25   11   35 1
    26   12   36 1
    27   12   37 1
    28   13   14 2
    29   13   15 1
    30   15   20 ar
    31   15   16 ar
    32   16   17 ar
    33   16   38 1
    34   17   18 ar
    35   17   39 1
    36   18   23 1
    37   18   19 ar
    38   19   20 ar
    39   19   21 1
    40   20   40 1
    41   21   22 2
    42   21   41 1
    43   22   23 1
    44   22   42 1
    45   23   24 1
@<TRIPOS>MOLECULE
ZINC03832031
   45    48     0     0     0
SMALL
USER_CHARGES

@<TRIPOS>ATOM
      1 C1         10.3542    3.5299    0.4398 C.3       1 <0>        -0.1077
      2 C2         10.1907    3.6790   -1.0509 C.ar      1 <0>        -0.0529
      3 C3         11.2740    3.4914   -1.8872 C.ar      1 <0>        -0.1042
      4 C4         11.1267    3.6329   -3.2545 C.ar      1 <0>        -0.1067
      5 C5          9.8925    3.9579   -3.7906 C.ar      1 <0>        -0.0318
      6 C6          8.8039    4.1421   -2.9595 C.ar      1 <0>        -0.1351
      7 C7          8.9496    4.0004   -1.5853 C.ar      1 <0>         0.0949
      8 N1          7.8516    4.1863   -0.7423 N.pl3     1 <0>        -0.4944
      9 C8          7.3078    5.5442   -0.8778 C.3       1 <0>         0.0437
     10 C9          6.2275    5.7668    0.1859 C.3       1 <0>         0.1184
     11 N2          5.2357    4.6860    0.0779 N.am      1 <0>        -0.6125
     12 C10         5.7182    3.2966    0.0741 C.3       1 <0>         0.1003
     13 C11         6.8190    3.1715   -0.9911 C.3       1 <0>         0.0434
     14 C12         3.9193    4.9614   -0.0098 C.2       1 <0>         0.5686
     15 O1          3.5448    6.1135   -0.1133 O.2       1 <0>        -0.5359
     16 C13         2.9319    3.8640    0.0198 C.ar      1 <0>        -0.1665
     17 C14         3.1830    2.7163    0.7851 C.ar      1 <0>        -0.0768
     18 C15         2.2811    1.6949    0.8230 C.ar      1 <0>        -0.1336
     19 C16         1.0936    1.7799    0.0983 C.ar      1 <0>         0.1159
     20 C17         0.8296    2.9278   -0.6744 C.ar      1 <0>        -0.1207
     21 C18         1.7528    3.9699   -0.7114 C.ar      1 <0>        -0.0018
     22 C19        -0.4768    2.7030   -1.2998 C.2       1 <0>        -0.1934
     23 C20        -0.9008    1.4958   -0.8954 C.2       1 <0>         0.0491
     24 N3          0.0223    0.9335   -0.0559 N.pl3     1 <0>        -0.5918
     25 H1         -0.0650    0.0639    0.3648 H         1 <0>         0.4183
     26 Cl1         9.7123    4.1346   -5.5081 Cl        1 <0>        -0.0695
     27 H2         10.1671    2.4944    0.7241 H         1 <0>         0.0710
     28 H3         11.3695    3.8068    0.7234 H         1 <0>         0.0629
     29 H4          9.6441    4.1808    0.9500 H         1 <0>         0.0807
     30 H5         12.2382    3.2378   -1.4721 H         1 <0>         0.1365
     31 H6         11.9762    3.4894   -3.9057 H         1 <0>         0.1348
     32 H7          7.8411    4.3963   -3.3778 H         1 <0>         0.1287
     33 H8          6.8719    5.6641   -1.8696 H         1 <0>         0.0459
     34 H9          8.1080    6.2717   -0.7414 H         1 <0>         0.0919
     35 H10         5.7414    6.7279    0.0186 H         1 <0>         0.1006
     36 H11         6.6807    5.7501    1.1771 H         1 <0>         0.0790
     37 H12         6.1234    3.0471    1.0548 H         1 <0>         0.0821
     38 H13         4.8952    2.6239   -0.1671 H         1 <0>         0.1073
     39 H14         6.3898    3.3245   -1.9814 H         1 <0>         0.0463
     40 H15         7.2646    2.1782   -0.9369 H         1 <0>         0.0915
     41 H16         4.1002    2.6408    1.3502 H         1 <0>         0.1376
     42 H17         2.4872    0.8168    1.4170 H         1 <0>         0.1271
     43 H18         1.5554    4.8519   -1.3025 H         1 <0>         0.1335
     44 H19        -0.9969    3.3783   -1.9631 H         1 <0>         0.1510
     45 H20        -1.8338    1.0368   -1.1873 H         1 <0>         0.1743
@<TRIPOS>BOND
     1    1    2 1
     2    1   27 1
     3    1   28 1
     4    1   29 1
     5    2    7 ar
     6    2    3 ar
     7    3    4 ar
     8    3   30 1
     9    4    5 ar
    10    4   31 1
    11    5    6 ar
    12    5   26 1
    13    6    7 ar
    14    6   32 1
    15    7    8 1
    16    8   13 1
    17    8    9 1
    18    9   10 1
    19    9   33 1
    20    9   34 1
    21   10   11 1
    22   10   35 1
    23   10   36 1
    24   11   12 1
    25   11   14 am
    26   12   13 1
    27   12   37 1
    28   12   38 1
    29   13   39 1
    30   13   40 1
    31   14   15 2
    32   14   16 1
    33   16   21 ar
    34   16   17 ar
    35   17   18 ar
    36   17   41 1
    37   18   19 ar
    38   18   42 1
    39   19   24 1
    40   19   20 ar
    41   20   21 ar
    42   20   22 1
    43   21   43 1
    44   22   23 2
    45   22   44 1
    46   23   24 1
    47   23   45 1
    48   24   25 1
@<TRIPOS>MOLECULE
ZINC03832033
   42    45     0     0     0
SMALL
USER_CHARGES

@<TRIPOS>ATOM
      1 C1         10.4680    4.8495   -3.2365 C.ar      1 <0>        -0.0780
      2 C2          9.3792    5.0347   -2.4069 C.ar      1 <0>        -0.1676
      3 C3          8.9496    4.0004   -1.5853 C.ar      1 <0>         0.1246
      4 C4          9.6106    2.7788   -1.6081 C.ar      1 <0>        -0.1335
      5 C5         10.6963    2.5982   -2.4438 C.ar      1 <0>        -0.0086
      6 C6         11.1244    3.6330   -3.2575 C.ar      1 <0>        -0.1370
      7 Cl1        11.5236    1.0723   -2.4735 Cl        1 <0>        -0.0659
      8 N1          7.8516    4.1863   -0.7423 N.pl3     1 <0>        -0.4866
      9 C7          7.3078    5.5442   -0.8778 C.3       1 <0>         0.0362
     10 C8          6.2275    5.7668    0.1859 C.3       1 <0>         0.1161
     11 N2          5.2357    4.6860    0.0779 N.am      1 <0>        -0.6137
     12 C9          5.7182    3.2966    0.0741 C.3       1 <0>         0.0977
     13 C10         6.8190    3.1715   -0.9911 C.3       1 <0>         0.0409
     14 C11         3.9193    4.9614   -0.0098 C.2       1 <0>         0.5695
     15 O1          3.5448    6.1135   -0.1133 O.2       1 <0>        -0.5348
     16 C12         2.9319    3.8640    0.0198 C.ar      1 <0>        -0.1673
     17 C13         3.1830    2.7163    0.7851 C.ar      1 <0>        -0.0776
     18 C14         2.2811    1.6949    0.8230 C.ar      1 <0>        -0.1330
     19 C15         1.0936    1.7799    0.0983 C.ar      1 <0>         0.1161
     20 C16         0.8296    2.9278   -0.6744 C.ar      1 <0>        -0.1206
     21 C17         1.7528    3.9699   -0.7114 C.ar      1 <0>        -0.0012
     22 C18        -0.4768    2.7030   -1.2998 C.2       1 <0>        -0.1933
     23 C19        -0.9008    1.4958   -0.8954 C.2       1 <0>         0.0495
     24 N3          0.0223    0.9335   -0.0559 N.pl3     1 <0>        -0.5916
     25 H1         -0.0650    0.0639    0.3648 H         1 <0>         0.4185
     26 H2         10.8045    5.6549   -3.8726 H         1 <0>         0.1339
     27 H3          8.8647    5.9841   -2.3943 H         1 <0>         0.1337
     28 H4          9.2767    1.9714   -0.9732 H         1 <0>         0.1362
     29 H5         11.9727    3.4896   -3.9104 H         1 <0>         0.1333
     30 H6          6.8719    5.6641   -1.8696 H         1 <0>         0.0549
     31 H7          8.1080    6.2717   -0.7414 H         1 <0>         0.0985
     32 H8          5.7414    6.7279    0.0186 H         1 <0>         0.1033
     33 H9          6.6782    5.7523    1.1783 H         1 <0>         0.0797
     34 H10         6.1234    3.0471    1.0548 H         1 <0>         0.0831
     35 H11         4.8952    2.6239   -0.1671 H         1 <0>         0.1103
     36 H12         6.3898    3.3245   -1.9814 H         1 <0>         0.0535
     37 H13         7.2646    2.1782   -0.9369 H         1 <0>         0.0966
     38 H14         4.1002    2.6408    1.3502 H         1 <0>         0.1375
     39 H15         2.4872    0.8168    1.4170 H         1 <0>         0.1274
     40 H16         1.5554    4.8519   -1.3025 H         1 <0>         0.1338
     41 H17        -0.9969    3.3783   -1.9631 H         1 <0>         0.1512
     42 H18        -1.8338    1.0368   -1.1873 H         1 <0>         0.1745
@<TRIPOS>BOND
     1    1    6 ar
     2    1    2 ar
     3    1   26 1
     4    2    3 ar
     5    2   27 1
     6    3    4 ar
     7    3    8 1
     8    4    5 ar
     9    4   28 1
    10    5    6 ar
    11    5    7 1
    12    6   29 1
    13    8   13 1
    14    8    9 1
    15    9   10 1
    16    9   30 1
    17    9   31 1
    18   10   11 1
    19   10   32 1
    20   10   33 1
    21   11   12 1
    22   11   14 am
    23   12   13 1
    24   12   34 1
    25   12   35 1
    26   13   36 1
    27   13   37 1
    28   14   15 2
    29   14   16 1
    30   16   21 ar
    31   16   17 ar
    32   17   18 ar
    33   17   38 1
    34   18   19 ar
    35   18   39 1
    36   19   24 1
    37   19   20 ar
    38   20   21 ar
    39   20   22 1
    40   21   40 1
    41   22   23 2
    42   22   41 1
    43   23   24 1
    44   23   42 1
    45   24   25 1
@<TRIPOS>MOLECULE
ZINC03832034
   45    48     0     0     0
SMALL
USER_CHARGES

@<TRIPOS>ATOM
      1 C1          5.0158    3.0528   -2.4531 C.ar      1 <0>        -0.0901
      2 C2          4.4633    1.9772   -3.1245 C.ar      1 <0>        -0.0993
      3 C3          3.0980    1.9164   -3.3341 C.ar      1 <0>        -0.1557
      4 C4          2.2798    2.9248   -2.8633 C.ar      1 <0>        -0.0918
      5 C5          2.8313    4.0063   -2.1887 C.ar      1 <0>         0.1126
      6 C6          4.2043    4.0671   -1.9848 C.ar      1 <0>        -0.1398
      7 N1          2.0076    5.0308   -1.7167 N.pl3     1 <0>        -0.4863
      8 C7          1.2001    5.6001   -2.8038 C.3       1 <0>         0.0408
      9 C8          0.1859    6.5886   -2.2186 C.3       1 <0>         0.1014
     10 N2          0.9112    7.5732   -1.4015 N.am      1 <0>        -0.6123
     11 C9          1.8460    7.0766   -0.3803 C.3       1 <0>         0.1162
     12 C10         2.7948    6.0688   -1.0379 C.3       1 <0>         0.0351
     13 C11         0.7238    8.8954   -1.5832 C.2       1 <0>         0.5702
     14 O1          1.2780    9.6940   -0.8529 O.2       1 <0>        -0.5316
     15 C12        -0.1544    9.3742   -2.6693 C.ar      1 <0>        -0.1614
     16 C13        -1.4350    8.8259   -2.8278 C.ar      1 <0>        -0.0750
     17 C14        -2.2599    9.2617   -3.8218 C.ar      1 <0>        -0.1294
     18 C15        -1.8333   10.2530   -4.7037 C.ar      1 <0>         0.1131
     19 C16        -0.5466   10.8078   -4.5585 C.ar      1 <0>        -0.1170
     20 C17         0.2917   10.3652   -3.5383 C.ar      1 <0>        -0.0095
     21 C18        -0.4129   11.8044   -5.6250 C.2       1 <0>        -0.1950
     22 C19        -1.5637   11.7946   -6.3151 C.2       1 <0>         0.0508
     23 N3         -2.4226   10.8741   -5.7783 N.pl3     1 <0>        -0.5918
     24 H1         -3.3156   10.6876   -6.1079 H         1 <0>         0.4185
     25 C20         2.5013    0.7457   -4.0721 C.3       1 <0>         0.5085
     26 F1          3.5189   -0.1402   -4.4419 F         1 <0>        -0.1756
     27 F2          1.5886    0.0869   -3.2413 F         1 <0>        -0.1749
     28 F3          1.8423    1.2037   -5.2180 F         1 <0>        -0.1762
     29 H2          6.0832    3.0996   -2.2953 H         1 <0>         0.1372
     30 H3          5.1003    1.1853   -3.4898 H         1 <0>         0.1389
     31 H4          1.2130    2.8745   -3.0235 H         1 <0>         0.1368
     32 H5          4.6363    4.9069   -1.4610 H         1 <0>         0.1374
     33 H6          1.8510    6.1201   -3.5066 H         1 <0>         0.0545
     34 H7          0.6710    4.7998   -3.3214 H         1 <0>         0.0967
     35 H8         -0.5305    6.0527   -1.5960 H         1 <0>         0.0828
     36 H9         -0.3400    7.0988   -3.0256 H         1 <0>         0.1069
     37 H10         1.2892    6.5875    0.4190 H         1 <0>         0.0803
     38 H11         2.4205    7.9090    0.0261 H         1 <0>         0.1033
     39 H12         3.4223    5.6085   -0.2747 H         1 <0>         0.0994
     40 H13         3.4236    6.5823   -1.7652 H         1 <0>         0.0553
     41 H14        -1.7733    8.0539   -2.1525 H         1 <0>         0.1325
     42 H15        -3.2456    8.8336   -3.9294 H         1 <0>         0.1275
     43 H16         1.2789   10.7875   -3.4225 H         1 <0>         0.1307
     44 H17         0.4476   12.4277   -5.8185 H         1 <0>         0.1509
     45 H18        -1.7802   12.4206   -7.1682 H         1 <0>         0.1744
@<TRIPOS>BOND
     1    1    6 ar
     2    1    2 ar
     3    1   29 1
     4    2    3 ar
     5    2   30 1
     6    3    4 ar
     7    3   25 1
     8    4    5 ar
     9    4   31 1
    10    5    6 ar
    11    5    7 1
    12    6   32 1
    13    7   12 1
    14    7    8 1
    15    8    9 1
    16    8   33 1
    17    8   34 1
    18    9   10 1
    19    9   35 1
    20    9   36 1
    21   10   11 1
    22   10   13 am
    23   11   12 1
    24   11   37 1
    25   11   38 1
    26   12   39 1
    27   12   40 1
    28   13   14 2
    29   13   15 1
    30   15   20 ar
    31   15   16 ar
    32   16   17 ar
    33   16   41 1
    34   17   18 ar
    35   17   42 1
    36   18   23 1
    37   18   19 ar
    38   19   20 ar
    39   19   21 1
    40   20   43 1
    41   21   22 2
    42   21   44 1
    43   22   23 1
    44   22   45 1
    45   23   24 1
    46   25   26 1
    47   25   27 1
    48   25   28 1
@<TRIPOS>MOLECULE
ZINC03833896
   35    36     0     0     0
SMALL
USER_CHARGES

@<TRIPOS>ATOM
      1 C1         -2.1756    1.1153   -7.8553 C.ar      1 <0>        -0.1287
      2 C2         -1.9052    2.3752   -8.3566 C.ar      1 <0>        -0.0889
      3 C3         -0.9661    3.1784   -7.7384 C.ar      1 <0>        -0.1531
      4 C4         -0.2955    2.7210   -6.6164 C.ar      1 <0>         0.1126
      5 C5         -0.5670    1.4593   -6.1155 C.ar      1 <0>        -0.1042
      6 C6         -1.5027    0.6554   -6.7389 C.ar      1 <0>        -0.0795
      7 C7          0.1619    0.9601   -4.8946 C.3       1 <0>        -0.1020
      8 C8         -0.5435    1.4461   -3.6547 C.2       1 <0>         0.5152
      9 O1         -1.5399    2.1304   -3.7528 O.2       1 <0>        -0.5262
     10 N1         -0.0670    1.1202   -2.4368 N.am      1 <0>        -0.7339
     11 C9         -0.7527    1.5927   -1.2315 C.3       1 <0>         0.1241
     12 C10        -0.0127    1.0858    0.0080 C.3       1 <0>        -0.0919
     13 C11        -0.7181    1.5718    1.2479 C.ar      1 <0>        -0.0800
     14 C12        -0.3597    2.7789    1.8184 C.ar      1 <0>        -0.1004
     15 C13        -1.0101    3.2279    2.9523 C.ar      1 <0>        -0.1078
     16 C14        -2.0123    2.4636    3.5229 C.ar      1 <0>        -0.0354
     17 C15        -2.3667    1.2529    2.9547 C.ar      1 <0>        -0.1080
     18 C16        -1.7194    0.8077    1.8175 C.ar      1 <0>        -0.1005
     19 Cl1        -2.8253    3.0237    4.9508 Cl        1 <0>        -0.0680
     20 F1          0.6233    3.5052   -6.0114 F         1 <0>        -0.1381
     21 H1         -2.9098    0.4882   -8.3392 H         1 <0>         0.1309
     22 H2         -2.4281    2.7316   -9.2318 H         1 <0>         0.1335
     23 H3         -0.7548    4.1624   -8.1302 H         1 <0>         0.1360
     24 H4         -1.7115   -0.3306   -6.3509 H         1 <0>         0.1311
     25 H5          1.1845    1.3373   -4.9023 H         1 <0>         0.1070
     26 H6          0.1767   -0.1298   -4.9006 H         1 <0>         0.1101
     27 H7          0.7300    0.5728   -2.3584 H         1 <0>         0.4020
     28 H8         -1.7753    1.2154   -1.2238 H         1 <0>         0.0709
     29 H9         -0.7675    2.6825   -1.2255 H         1 <0>         0.0706
     30 H10         0.0021   -0.0041    0.0020 H         1 <0>         0.0833
     31 H11         1.0099    1.4631    0.0003 H         1 <0>         0.0833
     32 H12         0.4257    3.3734    1.3755 H         1 <0>         0.1330
     33 H13        -0.7330    4.1730    3.3954 H         1 <0>         0.1351
     34 H14        -3.1492    0.6560    3.3994 H         1 <0>         0.1350
     35 H15        -1.9962   -0.1372    1.3737 H         1 <0>         0.1329
@<TRIPOS>BOND
     1    1    6 ar
     2    1    2 ar
     3    1   21 1
     4    2    3 ar
     5    2   22 1
     6    3    4 ar
     7    3   23 1
     8    4    5 ar
     9    4   20 1
    10    5    6 ar
    11    5    7 1
    12    6   24 1
    13    7    8 1
    14    7   25 1
    15    7   26 1
    16    8    9 2
    17    8   10 am
    18   10   11 1
    19   10   27 1
    20   11   12 1
    21   11   28 1
    22   11   29 1
    23   12   13 1
    24   12   30 1
    25   12   31 1
    26   13   18 ar
    27   13   14 ar
    28   14   15 ar
    29   14   32 1
    30   15   16 ar
    31   15   33 1
    32   16   17 ar
    33   16   19 1
    34   17   18 ar
    35   17   34 1
    36   18   35 1
@<TRIPOS>MOLECULE
ZINC03833897
   54    59     0     0     0
SMALL
USER_CHARGES

@<TRIPOS>ATOM
      1 C1         -0.4253    1.9516    3.8299 C.ar      1 <0>        -0.0843
      2 C2          0.0101    1.3827    4.9901 C.ar      1 <0>        -0.1253
      3 C3          0.8752    2.0790    5.8314 C.ar      1 <0>         0.1200
      4 C4          1.3029    3.3733    5.4745 C.ar      1 <0>        -0.1167
      5 C5          2.1886    3.8189    6.5541 C.2       1 <0>        -0.1931
      6 C6          2.2419    2.8229    7.4517 C.2       1 <0>         0.0583
      7 N1          1.4636    1.7767    7.0358 N.pl3     1 <0>        -0.5880
      8 H1          1.3451    0.9444    7.5197 H         1 <0>         0.4219
      9 C7          0.8612    3.9497    4.2866 C.ar      1 <0>         0.0046
     10 C8         -0.0029    3.2362    3.4610 C.ar      1 <0>        -0.1819
     11 C9         -0.4797    3.8354    2.1986 C.2       1 <0>         0.5805
     12 O1         -0.7659    5.0163    2.1561 O.2       1 <0>        -0.5073
     13 N2         -0.5977    3.0733    1.0932 N.am      1 <0>        -0.6302
     14 C10        -0.1392    1.6757    1.0879 C.3       1 <0>         0.0783
     15 C11         0.7737    1.4676   -0.1251 C.3       1 <0>        -0.0301
     16 C12        -0.2339    3.3325   -1.3034 C.3       1 <0>        -0.0163
     17 C13        -1.1887    3.6170   -0.1390 C.3       1 <0>         0.0924
     18 C14         0.8447    1.5547   -2.5438 C.3       1 <0>         0.1439
     19 H2          1.0086    0.4782   -2.5907 H         1 <0>         0.1623
     20 C15         2.1672    2.2817   -2.5347 C.ar      1 <0>        -0.1406
     21 C16         3.2324    2.2566   -1.6617 C.ar      1 <0>        -0.0543
     22 C17         4.3453    3.0440   -1.9023 C.ar      1 <0>        -0.0930
     23 C18         4.3900    3.8587   -3.0200 C.ar      1 <0>        -0.0522
     24 C19         3.3280    3.8906   -3.8995 C.ar      1 <0>        -0.0762
     25 C20         2.2025    3.0992   -3.6630 C.ar      1 <0>        -0.0193
     26 C21         0.9416    2.9399   -4.4289 C.ar      1 <0>        -0.0175
     27 C22         0.1177    2.0240   -3.7801 C.ar      1 <0>        -0.1499
     28 C23        -1.1175    1.7071   -4.3037 C.ar      1 <0>        -0.0487
     29 C24        -1.5447    2.3002   -5.4794 C.ar      1 <0>        -0.0939
     30 C25        -0.7329    3.2120   -6.1310 C.ar      1 <0>        -0.0509
     31 C26         0.5046    3.5343   -5.6141 C.ar      1 <0>        -0.0774
     32 I1         -3.4226    1.8174   -6.2726 I         1 <0>         0.0013
     33 I2          5.9641    3.0015   -0.5731 I         1 <0>         0.0012
     34 H3         -1.0991    1.4052    3.1866 H         1 <0>         0.1304
     35 H4         -0.3200    0.3903    5.2597 H         1 <0>         0.1301
     36 H5          2.7008    4.7678    6.6153 H         1 <0>         0.1546
     37 H6          2.8147    2.8435    8.3671 H         1 <0>         0.1789
     38 H7          1.1863    4.9413    4.0082 H         1 <0>         0.1344
     39 H8         -0.9987    1.0091    1.0180 H         1 <0>         0.0996
     40 H9          0.4151    1.4683    2.0033 H         1 <0>         0.1436
     41 H10         1.0339    0.4124   -0.2078 H         1 <0>         0.1459
     42 H11         1.6820    2.0576   -0.0023 H         1 <0>         0.1384
     43 H12         0.6882    3.8969   -1.1639 H         1 <0>         0.1350
     44 H13        -0.7040    3.6299   -2.2407 H         1 <0>         0.1397
     45 H14        -1.3282    4.6929   -0.0344 H         1 <0>         0.1377
     46 H15        -2.1490    3.1369   -0.3273 H         1 <0>         0.0964
     47 H16         3.1990    1.6216   -0.7887 H         1 <0>         0.1402
     48 H17         5.2599    4.4715   -3.2045 H         1 <0>         0.1489
     49 H18         3.3673    4.5274   -4.7710 H         1 <0>         0.1478
     50 H19        -1.7525    0.9960   -3.7963 H         1 <0>         0.1406
     51 H20        -1.0695    3.6728   -7.0480 H         1 <0>         0.1489
     52 H21         1.1352    4.2461   -6.1260 H         1 <0>         0.1476
     53 N3          0.0455    1.8806   -1.3445 N.4       1 <0>        -0.3859
     54 H22        -0.8450    1.3715   -1.3888 H         1 <0>         0.4293
@<TRIPOS>BOND
     1    1   10 ar
     2    1    2 ar
     3    1   34 1
     4    2    3 ar
     5    2   35 1
     6    3    7 1
     7    3    4 ar
     8    4    5 1
     9    4    9 ar
    10    5    6 2
    11    5   36 1
    12    6    7 1
    13    6   37 1
    14    7    8 1
    15    9   10 ar
    16    9   38 1
    17   10   11 1
    18   11   12 2
    19   11   13 am
    20   13   17 1
    21   13   14 1
    22   14   15 1
    23   14   39 1
    24   14   40 1
    25   15   41 1
    26   15   42 1
    27   15   53 1
    28   16   17 1
    29   16   43 1
    30   16   44 1
    31   16   53 1
    32   17   45 1
    33   17   46 1
    34   18   19 1
    35   18   27 1
    36   18   20 1
    37   18   53 1
    38   20   25 ar
    39   20   21 ar
    40   21   22 ar
    41   21   47 1
    42   22   23 ar
    43   22   33 1
    44   23   24 ar
    45   23   48 1
    46   24   25 ar
    47   24   49 1
    48   25   26 1
    49   26   31 ar
    50   26   27 ar
    51   27   28 ar
    52   28   29 ar
    53   28   50 1
    54   29   30 ar
    55   29   32 1
    56   30   31 ar
    57   30   51 1
    58   31   52 1
    59   53   54 1
@<TRIPOS>MOLECULE
ZINC03833898
   54    59     0     0     0
SMALL
USER_CHARGES

@<TRIPOS>ATOM
      1 C1         -2.5754    4.2998    6.6081 C.ar      1 <0>        -0.0536
      2 C2         -2.0209    3.7126    7.7067 C.ar      1 <0>        -0.1216
      3 C3         -0.7393    4.0691    8.1212 C.ar      1 <0>         0.1200
      4 C4         -0.0182    5.0405    7.3989 C.ar      1 <0>        -0.1156
      5 C5          1.2698    5.1809    8.0843 C.2       1 <0>        -0.2009
      6 C6          1.2534    4.3328    9.1240 C.2       1 <0>         0.0623
      7 N1          0.0614    3.6613    9.1607 N.pl3     1 <0>        -0.5892
      8 H1         -0.1823    2.9958    9.8230 H         1 <0>         0.4226
      9 C7         -0.5847    5.6348    6.2744 C.ar      1 <0>        -0.0411
     10 C8         -1.8683    5.2674    5.8811 C.ar      1 <0>        -0.1699
     11 C9         -2.4834    5.8932    4.6935 C.2       1 <0>         0.5805
     12 O1         -3.6069    6.3527    4.7617 O.2       1 <0>        -0.5034
     13 N2         -1.7993    5.9548    3.5339 N.am      1 <0>        -0.6295
     14 C10        -2.4228    6.4982    2.3176 C.3       1 <0>         0.0913
     15 C11        -2.2285    5.4908    1.1794 C.3       1 <0>        -0.0268
     16 C12        -0.2944    4.5137    2.2683 C.3       1 <0>        -0.0187
     17 C13        -0.4094    5.4810    3.4512 C.3       1 <0>         0.0771
     18 C14        -0.5510    4.3392   -0.1330 C.3       1 <0>         0.1460
     19 H2         -0.9690    4.8177   -1.0186 H         1 <0>         0.1680
     20 C15         0.9316    4.1209   -0.3112 C.ar      1 <0>        -0.1400
     21 C16         1.9777    4.9952   -0.5160 C.ar      1 <0>        -0.0737
     22 C17         3.2686    4.5122   -0.6493 C.ar      1 <0>        -0.0210
     23 C18         3.5107    3.1508   -0.5776 C.ar      1 <0>        -0.0745
     24 C19         2.4697    2.2700   -0.3725 C.ar      1 <0>        -0.0668
     25 C20         1.1656    2.7505   -0.2373 C.ar      1 <0>        -0.0319
     26 C21        -0.1185    2.0413   -0.0143 C.ar      1 <0>        -0.0235
     27 C22        -1.1551    2.9686    0.0512 C.ar      1 <0>        -0.1205
     28 C23        -2.4522    2.5489    0.2538 C.ar      1 <0>        -0.0756
     29 C24        -2.7316    1.1989    0.3883 C.ar      1 <0>        -0.0133
     30 C25        -1.7079    0.2695    0.3301 C.ar      1 <0>        -0.0716
     31 C26        -0.4058    0.6814    0.1275 C.ar      1 <0>         0.0026
     32 Cl1         0.8736   -0.4894    0.0493 Cl        1 <0>        -0.0216
     33 Cl2        -4.3672    0.6725    0.6363 Cl        1 <0>        -0.0168
     34 Cl3         4.5846    5.6146   -0.9071 Cl        1 <0>        -0.0288
     35 H3         -3.5692    4.0163    6.2948 H         1 <0>         0.1340
     36 H4         -2.5771    2.9687    8.2577 H         1 <0>         0.1318
     37 H5          2.0780    5.8408    7.8054 H         1 <0>         0.1529
     38 H6          2.0615    4.2000    9.8282 H         1 <0>         0.1781
     39 H7         -0.0347    6.3769    5.7148 H         1 <0>         0.1296
     40 H8         -1.9490    7.4439    2.0545 H         1 <0>         0.0986
     41 H9         -3.4876    6.6545    2.4905 H         1 <0>         0.1397
     42 H10        -2.5865    5.9238    0.2454 H         1 <0>         0.1476
     43 H11        -2.7896    4.5821    1.3976 H         1 <0>         0.1371
     44 H12        -0.8823    3.6187    2.4719 H         1 <0>         0.1357
     45 H13         0.7503    4.2381    2.1241 H         1 <0>         0.1408
     46 H14         0.2580    6.3290    3.2970 H         1 <0>         0.0999
     47 H15        -0.1430    4.9649    4.3736 H         1 <0>         0.1420
     48 H16         1.7903    6.0573   -0.5729 H         1 <0>         0.1474
     49 H17         4.5187    2.7774   -0.6826 H         1 <0>         0.1549
     50 H18         2.6630    1.2089   -0.3165 H         1 <0>         0.1488
     51 H19        -3.2521    3.2729    0.3033 H         1 <0>         0.1519
     52 H20        -1.9288   -0.7820    0.4392 H         1 <0>         0.1637
     53 N3         -0.7855    5.1932    1.0498 N.4       1 <0>        -0.3865
     54 H21        -0.2731    6.0750    0.9311 H         1 <0>         0.4316
@<TRIPOS>BOND
     1    1   10 ar
     2    1    2 ar
     3    1   35 1
     4    2    3 ar
     5    2   36 1
     6    3    7 1
     7    3    4 ar
     8    4    5 1
     9    4    9 ar
    10    5    6 2
    11    5   37 1
    12    6    7 1
    13    6   38 1
    14    7    8 1
    15    9   10 ar
    16    9   39 1
    17   10   11 1
    18   11   12 2
    19   11   13 am
    20   13   17 1
    21   13   14 1
    22   14   15 1
    23   14   40 1
    24   14   41 1
    25   15   42 1
    26   15   43 1
    27   15   53 1
    28   16   17 1
    29   16   44 1
    30   16   45 1
    31   16   53 1
    32   17   46 1
    33   17   47 1
    34   18   19 1
    35   18   27 1
    36   18   20 1
    37   18   53 1
    38   20   25 ar
    39   20   21 ar
    40   21   22 ar
    41   21   48 1
    42   22   23 ar
    43   22   34 1
    44   23   24 ar
    45   23   49 1
    46   24   25 ar
    47   24   50 1
    48   25   26 1
    49   26   31 ar
    50   26   27 ar
    51   27   28 ar
    52   28   29 ar
    53   28   51 1
    54   29   30 ar
    55   29   33 1
    56   30   31 ar
    57   30   52 1
    58   31   32 1
    59   53   54 1
@<TRIPOS>MOLECULE
ZINC03833899
   58    63     0     0     0
SMALL
USER_CHARGES

@<TRIPOS>ATOM
      1 C1         -4.0333    6.4579    6.6785 C.3       1 <0>         0.0211
      2 O1         -3.2848    5.3415    6.1934 O.3       1 <0>        -0.3073
      3 C2         -3.5836    4.8937    4.9458 C.ar      1 <0>         0.1517
      4 C3         -4.5776    5.5175    4.2036 C.ar      1 <0>        -0.1788
      5 C4         -4.8834    5.0669    2.9377 C.ar      1 <0>        -0.0421
      6 C5         -4.1933    3.9796    2.3968 C.ar      1 <0>        -0.0758
      7 C6         -3.1938    3.3626    3.1448 C.ar      1 <0>        -0.1138
      8 C7         -2.8948    3.8125    4.4124 C.ar      1 <0>        -0.1203
      9 C8         -2.6373    2.2317    2.3146 C.3       1 <0>         0.1420
     10 H1         -1.5752    2.3932    2.1306 H         1 <0>         0.1583
     11 C9         -3.3999    2.2560    1.0126 C.ar      1 <0>        -0.1517
     12 C10        -4.3174    3.3006    1.0834 C.ar      1 <0>        -0.0229
     13 C11        -5.1604    3.5459   -0.0025 C.ar      1 <0>        -0.0913
     14 C12        -5.0777    2.7569   -1.1306 C.ar      1 <0>        -0.0829
     15 C13        -4.1625    1.7212   -1.1914 C.ar      1 <0>        -0.1058
     16 C14        -3.3245    1.4720   -0.1192 C.ar      1 <0>        -0.0831
     17 C15        -2.0854   -0.1257    2.3379 C.3       1 <0>        -0.0232
     18 C16        -2.1789   -1.4033    3.1789 C.3       1 <0>         0.0912
     19 N1         -3.5989   -1.7014    3.4194 N.am      1 <0>        -0.6284
     20 C17        -4.4545   -0.6299    3.9515 C.3       1 <0>         0.0553
     21 C18        -4.2714    0.6173    3.0801 C.3       1 <0>        -0.0172
     22 C19        -4.1027   -2.9241    3.1594 C.2       1 <0>         0.5800
     23 O2         -3.3623   -3.8276    2.8224 O.2       1 <0>        -0.5087
     24 C20        -5.5539   -3.1664    3.2840 C.ar      1 <0>        -0.1792
     25 C21        -6.4640   -2.1487    2.9650 C.ar      1 <0>        -0.0952
     26 C22        -7.8068   -2.3590    3.0690 C.ar      1 <0>        -0.1229
     27 C23        -8.2926   -3.5895    3.5074 C.ar      1 <0>         0.1184
     28 C24        -7.3884   -4.6183    3.8364 C.ar      1 <0>        -0.1155
     29 C25        -6.0171   -4.4029    3.7234 C.ar      1 <0>         0.0085
     30 C26        -8.2080   -5.7598    4.2531 C.2       1 <0>        -0.1917
     31 C27        -9.4902   -5.3755    4.1569 C.2       1 <0>         0.0582
     32 N2         -9.5584   -4.0827    3.7132 N.pl3     1 <0>        -0.5873
     33 H2        -10.3794   -3.5875    3.5657 H         1 <0>         0.4217
     34 H3         -3.8828    7.3112    6.0173 H         1 <0>         0.0639
     35 H4         -5.0923    6.2013    6.7053 H         1 <0>         0.0633
     36 H5         -3.6957    6.7127    7.6831 H         1 <0>         0.1120
     37 H6         -5.1123    6.3586    4.6194 H         1 <0>         0.1461
     38 H7         -5.6570    5.5550    2.3634 H         1 <0>         0.1399
     39 H8         -2.1216    3.3270    4.9893 H         1 <0>         0.1417
     40 H9         -5.8761    4.3536    0.0408 H         1 <0>         0.1357
     41 H10        -5.7299    2.9484   -1.9699 H         1 <0>         0.1405
     42 H11        -4.1025    1.1060   -2.0771 H         1 <0>         0.1409
     43 H12        -2.6105    0.6632   -0.1689 H         1 <0>         0.1311
     44 H13        -2.5029   -0.3103    1.3481 H         1 <0>         0.1369
     45 H14        -1.0410    0.1716    2.2428 H         1 <0>         0.1446
     46 H15        -1.6700   -1.2530    4.1310 H         1 <0>         0.0963
     47 H16        -1.7163   -2.2323    2.6433 H         1 <0>         0.1380
     48 H17        -4.1643   -0.4053    4.9779 H         1 <0>         0.0968
     49 H18        -5.4979   -0.9441    3.9265 H         1 <0>         0.1567
     50 H19        -4.8124    1.4533    3.5233 H         1 <0>         0.1396
     51 H20        -4.6585    0.4222    2.0800 H         1 <0>         0.1358
     52 H21        -6.0975   -1.1899    2.6292 H         1 <0>         0.1318
     53 H22        -8.4966   -1.5675    2.8156 H         1 <0>         0.1296
     54 H23        -5.3196   -5.1882    3.9747 H         1 <0>         0.1374
     55 H24        -7.8487   -6.7259    4.5755 H         1 <0>         0.1557
     56 H25       -10.3423   -5.9951    4.3943 H         1 <0>         0.1796
     57 N3         -2.8314    0.9508    3.0251 N.4       1 <0>        -0.3843
     58 H26        -2.4745    1.0437    3.9834 H         1 <0>         0.4288
@<TRIPOS>BOND
     1    1    2 1
     2    1   34 1
     3    1   35 1
     4    1   36 1
     5    2    3 1
     6    3    8 ar
     7    3    4 ar
     8    4    5 ar
     9    4   37 1
    10    5    6 ar
    11    5   38 1
    12    6   12 1
    13    6    7 ar
    14    7    8 ar
    15    7    9 1
    16    8   39 1
    17    9   10 1
    18    9   11 1
    19    9   57 1
    20   11   16 ar
    21   11   12 ar
    22   12   13 ar
    23   13   14 ar
    24   13   40 1
    25   14   15 ar
    26   14   41 1
    27   15   16 ar
    28   15   42 1
    29   16   43 1
    30   17   18 1
    31   17   44 1
    32   17   45 1
    33   17   57 1
    34   18   19 1
    35   18   46 1
    36   18   47 1
    37   19   20 1
    38   19   22 am
    39   20   21 1
    40   20   48 1
    41   20   49 1
    42   21   50 1
    43   21   51 1
    44   21   57 1
    45   22   23 2
    46   22   24 1
    47   24   29 ar
    48   24   25 ar
    49   25   26 ar
    50   25   52 1
    51   26   27 ar
    52   26   53 1
    53   27   32 1
    54   27   28 ar
    55   28   29 ar
    56   28   30 1
    57   29   54 1
    58   30   31 2
    59   30   55 1
    60   31   32 1
    61   31   56 1
    62   32   33 1
    63   57   58 1
@<TRIPOS>MOLECULE
ZINC03833900
   34    36     0     0     0
SMALL
USER_CHARGES

@<TRIPOS>ATOM
      1 C1         -1.2062   -4.7988   -0.0139 C.3       1 <0>         0.0261
      2 O1          0.0581   -4.1328   -0.0213 O.3       1 <0>        -0.3170
      3 C2          0.0396   -2.7738   -0.0138 C.ar      1 <0>         0.1257
      4 C3          1.2328   -2.0649   -0.0203 C.ar      1 <0>        -0.1442
      5 C4          1.2171   -0.6855   -0.0127 C.ar      1 <0>        -0.0706
      6 C5          0.0021   -0.0041    0.0020 C.ar      1 <0>        -0.0427
      7 C6         -1.1940   -0.7183    0.0148 C.ar      1 <0>        -0.0742
      8 C7         -1.1724   -2.0976    0.0009 C.ar      1 <0>        -0.2016
      9 C8         -0.0181    1.4806    0.0102 C.2       1 <0>        -0.1643
     10 C9          1.1081    2.3284    0.0040 C.2       1 <0>         0.0836
     11 N1          0.6897    3.5657    0.0146 N.2       1 <0>        -0.2483
     12 N2         -0.7104    3.5631    0.0280 N.pl3     1 <0>        -0.3203
     13 C10        -1.1292    2.2707    0.0191 C.2       1 <0>         0.0877
     14 C11        -1.5316    4.6901    0.0419 C.ar      1 <0>         0.5755
     15 N3         -2.8455    4.5314    0.0541 N.ar      1 <0>        -0.5143
     16 C12        -3.6532    5.5786    0.0680 C.ar      1 <0>         0.1997
     17 C13        -3.1074    6.8531    0.0696 C.ar      1 <0>        -0.2002
     18 C14        -1.7275    6.9820    0.0566 C.ar      1 <0>         0.1221
     19 N4         -0.9780    5.8919    0.0481 N.ar      1 <0>        -0.4741
     20 C15        -1.0887    8.3469    0.0583 C.3       1 <0>         0.5271
     21 F1         -0.8779    8.7615    1.3777 F         1 <0>        -0.1615
     22 F2          0.1369    8.2891   -0.6138 F         1 <0>        -0.1547
     23 F3         -1.9322    9.2573   -0.5874 F         1 <0>        -0.1620
     24 H1         -1.7594   -4.5184    0.8825 H         1 <0>         0.0564
     25 H2         -1.7749   -4.5088   -0.8974 H         1 <0>         0.0564
     26 H3         -1.0488   -5.8774   -0.0211 H         1 <0>         0.1013
     27 H4          2.1745   -2.5936   -0.0318 H         1 <0>         0.1345
     28 H5          2.1459   -0.1343   -0.0178 H         1 <0>         0.1329
     29 H6         -2.1373   -0.1927    0.0311 H         1 <0>         0.1251
     30 H7         -2.0993   -2.6518    0.0060 H         1 <0>         0.1306
     31 H8          2.1399    2.0096   -0.0070 H         1 <0>         0.2019
     32 H9         -2.1544    1.9312    0.0215 H         1 <0>         0.1906
     33 H10        -4.7246    5.4426    0.0775 H         1 <0>         0.1989
     34 H11        -3.7433    7.7259    0.0811 H         1 <0>         0.1737
@<TRIPOS>BOND
     1    1    2 1
     2    1   24 1
     3    1   25 1
     4    1   26 1
     5    2    3 1
     6    3    8 ar
     7    3    4 ar
     8    4    5 ar
     9    4   27 1
    10    5    6 ar
    11    5   28 1
    12    6    7 ar
    13    6    9 1
    14    7    8 ar
    15    7   29 1
    16    8   30 1
    17    9   13 2
    18    9   10 1
    19   10   11 2
    20   10   31 1
    21   11   12 1
    22   12   13 1
    23   12   14 1
    24   13   32 1
    25   14   19 ar
    26   14   15 ar
    27   15   16 ar
    28   16   17 ar
    29   16   33 1
    30   17   18 ar
    31   17   34 1
    32   18   19 ar
    33   18   20 1
    34   20   21 1
    35   20   22 1
    36   20   23 1
@<TRIPOS>MOLECULE
ZINC03833901
   34    37     0     0     0
SMALL
USER_CHARGES

@<TRIPOS>ATOM
      1 C1          8.3180    1.8710    0.0219 C.ar      1 <0>        -0.1016
      2 C2          7.6253    3.0744    0.1407 C.ar      1 <0>        -0.0940
      3 C3          6.2647    3.0998    0.1591 C.ar      1 <0>        -0.0875
      4 C4          5.5435    1.8971    0.0569 C.ar      1 <0>         0.0933
      5 C5          6.2486    0.6729   -0.0643 C.ar      1 <0>         0.0673
      6 C6          7.6536    0.6873   -0.0795 C.ar      1 <0>        -0.0793
      7 N1          5.5706   -0.4774   -0.1635 N.ar      1 <0>        -0.4166
      8 C7          4.2595   -0.4661   -0.1480 C.ar      1 <0>         0.0907
      9 C8          3.5552    0.7467   -0.0283 C.ar      1 <0>         0.1915
     10 N2          4.2066    1.8934    0.0657 N.ar      1 <0>        -0.4328
     11 C9          2.0734    0.7388   -0.0138 C.2       1 <0>        -0.1894
     12 C10         1.2450   -0.4036   -0.0120 C.2       1 <0>         0.0975
     13 N3          0.0021   -0.0041    0.0020 N.2       1 <0>        -0.2471
     14 N4         -0.0169    1.3958    0.0097 N.pl3     1 <0>        -0.3168
     15 C11         1.2603    1.8357   -0.0001 C.2       1 <0>         0.1427
     16 C12        -1.1578    2.1979    0.0197 C.ar      1 <0>         0.5715
     17 N5         -1.0214    3.5143    0.0257 N.ar      1 <0>        -0.5104
     18 C13        -2.0821    4.3042    0.0348 C.ar      1 <0>         0.2001
     19 C14        -3.3472    3.7369    0.0380 C.ar      1 <0>        -0.1954
     20 C15        -3.4527    2.3550    0.0315 C.ar      1 <0>         0.1210
     21 N6         -2.3501    1.6241    0.0175 N.ar      1 <0>        -0.4706
     22 C16        -4.8066    1.6932    0.0342 C.3       1 <0>         0.5274
     23 F1         -5.2314    1.4950   -1.2840 F         1 <0>        -0.1611
     24 F2         -4.7211    0.4589    0.6871 F         1 <0>        -0.1543
     25 F3         -5.7242    2.5113    0.7018 F         1 <0>        -0.1616
     26 H1          9.3980    1.8776    0.0098 H         1 <0>         0.1371
     27 H2          8.1760    4.0001    0.2198 H         1 <0>         0.1372
     28 H3          5.7411    4.0399    0.2513 H         1 <0>         0.1404
     29 H4          8.2042   -0.2372   -0.1718 H         1 <0>         0.1408
     30 H5          3.7152   -1.3955   -0.2281 H         1 <0>         0.1763
     31 H6          1.5808   -1.4301   -0.0213 H         1 <0>         0.2080
     32 H7          1.5800    2.8673    0.0027 H         1 <0>         0.1999
     33 H8         -1.9642    5.3778    0.0400 H         1 <0>         0.2005
     34 H9         -4.2307    4.3580    0.0450 H         1 <0>         0.1751
@<TRIPOS>BOND
     1    1    6 ar
     2    1    2 ar
     3    1   26 1
     4    2    3 ar
     5    2   27 1
     6    3    4 ar
     7    3   28 1
     8    4   10 ar
     9    4    5 ar
    10    5    6 ar
    11    5    7 ar
    12    6   29 1
    13    7    8 ar
    14    8    9 ar
    15    8   30 1
    16    9   10 ar
    17    9   11 1
    18   11   15 2
    19   11   12 1
    20   12   13 2
    21   12   31 1
    22   13   14 1
    23   14   15 1
    24   14   16 1
    25   15   32 1
    26   16   21 ar
    27   16   17 ar
    28   17   18 ar
    29   18   19 ar
    30   18   33 1
    31   19   20 ar
    32   19   34 1
    33   20   21 ar
    34   20   22 1
    35   22   23 1
    36   22   24 1
    37   22   25 1
@<TRIPOS>MOLECULE
ZINC03833902
   28    30     0     0     0
SMALL
USER_CHARGES

@<TRIPOS>ATOM
      1 C1         -0.0327    3.7564    0.0225 C.ar      1 <0>        -0.2221
      2 C2          1.1593    3.0562    0.0074 C.ar      1 <0>         0.1558
      3 N1          1.1309    1.7318    0.0006 N.ar      1 <0>        -0.5292
      4 C3         -0.0126    1.0758    0.0080 C.ar      1 <0>         0.3063
      5 N2         -1.1720    1.6996    0.0170 N.ar      1 <0>        -0.5255
      6 C4         -1.2275    3.0306    0.0301 C.ar      1 <0>         0.2614
      7 C5         -2.5339    3.7301    0.0468 C.2       1 <0>        -0.1983
      8 C6         -2.7352    5.1238   -0.0430 C.2       1 <0>         0.0993
      9 N3         -4.0198    5.3526    0.0065 N.2       1 <0>        -0.2485
     10 N4         -4.6869    4.1278    0.1286 N.pl3     1 <0>        -0.3169
     11 C7         -3.7627    3.1432    0.1459 C.2       1 <0>         0.1471
     12 C8         -6.0683    3.9540    0.2119 C.ar      1 <0>         0.5704
     13 N5         -6.5595    2.7299    0.3200 N.ar      1 <0>        -0.5099
     14 C9         -7.8640    2.5296    0.4059 C.ar      1 <0>         0.2003
     15 C10        -8.7189    3.6206    0.3709 C.ar      1 <0>        -0.1935
     16 C11        -8.1701    4.8878    0.2517 C.ar      1 <0>         0.1207
     17 N6         -6.8558    5.0167    0.1755 N.ar      1 <0>        -0.4700
     18 C12        -9.0597    6.1035    0.2090 C.3       1 <0>         0.5260
     19 F1         -8.2822    7.2421   -0.0284 F         1 <0>        -0.1522
     20 F2         -9.9992    5.9580   -0.8174 F         1 <0>        -0.1616
     21 F3         -9.7234    6.2389    1.4330 F         1 <0>        -0.1615
     22 H1         -0.0406    4.8363    0.0281 H         1 <0>         0.1495
     23 H2          2.1023    3.5826    0.0009 H         1 <0>         0.1713
     24 H3          0.0021   -0.0041    0.0020 H         1 <0>         0.1987
     25 H4         -1.9614    5.8714   -0.1363 H         1 <0>         0.2063
     26 H5         -3.9596    2.0844    0.2265 H         1 <0>         0.2014
     27 H6         -8.2585    1.5286    0.4984 H         1 <0>         0.2009
     28 H7         -9.7886    3.4860    0.4347 H         1 <0>         0.1740
@<TRIPOS>BOND
     1    1    6 ar
     2    1    2 ar
     3    1   22 1
     4    2    3 ar
     5    2   23 1
     6    3    4 ar
     7    4    5 ar
     8    4   24 1
     9    5    6 ar
    10    6    7 1
    11    7   11 2
    12    7    8 1
    13    8    9 2
    14    8   25 1
    15    9   10 1
    16   10   11 1
    17   10   12 1
    18   11   26 1
    19   12   17 ar
    20   12   13 ar
    21   13   14 ar
    22   14   15 ar
    23   14   27 1
    24   15   16 ar
    25   15   28 1
    26   16   17 ar
    27   16   18 1
    28   18   19 1
    29   18   20 1
    30   18   21 1
@<TRIPOS>MOLECULE
ZINC03833904
   28    30     0     0     0
SMALL
USER_CHARGES

@<TRIPOS>ATOM
      1 C1         -1.9520    8.8512    0.3306 C.ar      1 <0>        -0.1945
      2 C2         -2.4974    7.5774    0.3789 C.ar      1 <0>         0.2001
      3 N1         -1.6958    6.5292    0.2909 N.ar      1 <0>        -0.5105
      4 C3         -0.3873    6.6861    0.1692 C.ar      1 <0>         0.5714
      5 N2          0.1656    7.8872    0.1199 N.ar      1 <0>        -0.4704
      6 C4         -0.5784    8.9782    0.1969 C.ar      1 <0>         0.1209
      7 C5          0.0597   10.3423    0.1394 C.3       1 <0>         0.5259
      8 F1          1.4294   10.2063   -0.1108 F         1 <0>        -0.1521
      9 F2         -0.5297   11.0900   -0.8856 F         1 <0>        -0.1617
     10 F3         -0.1283   10.9969    1.3615 F         1 <0>        -0.1617
     11 N3          0.4282    5.5578    0.0850 N.pl3     1 <0>        -0.3175
     12 C6          0.0093    4.2733    0.1144 C.2       1 <0>         0.1389
     13 C7          1.1131    3.4779    0.0096 C.2       1 <0>        -0.1876
     14 C8          2.2374    4.3232   -0.0963 C.2       1 <0>         0.0955
     15 N4          1.8217    5.5603   -0.0506 N.2       1 <0>        -0.2473
     16 C9          1.1274    1.9949    0.0020 C.ar      1 <0>         0.1652
     17 C10         2.3413    1.3065   -0.0129 C.ar      1 <0>         0.0600
     18 N5          2.3482   -0.0128   -0.0205 N.ar      1 <0>        -0.4301
     19 C11         1.2076   -0.6822   -0.0136 C.ar      1 <0>         0.0382
     20 C12         0.0021   -0.0041    0.0020 C.ar      1 <0>         0.0638
     21 N6         -0.0158    1.3168    0.0093 N.ar      1 <0>        -0.4432
     22 H1         -2.5835    9.7249    0.3954 H         1 <0>         0.1736
     23 H2         -3.5640    7.4429    0.4825 H         1 <0>         0.2005
     24 H3         -1.0130    3.9373    0.2069 H         1 <0>         0.1996
     25 H4          3.2638    4.0028   -0.1979 H         1 <0>         0.2067
     26 H5          3.2730    1.8526   -0.0181 H         1 <0>         0.1710
     27 H6          1.2174   -1.7621   -0.0198 H         1 <0>         0.1719
     28 H7         -0.9264   -0.5556    0.0079 H         1 <0>         0.1735
@<TRIPOS>BOND
     1    1    6 ar
     2    1    2 ar
     3    1   22 1
     4    2    3 ar
     5    2   23 1
     6    3    4 ar
     7    4    5 ar
     8    4   11 1
     9    5    6 ar
    10    6    7 1
    11    7    8 1
    12    7    9 1
    13    7   10 1
    14   11   15 1
    15   11   12 1
    16   12   13 2
    17   12   24 1
    18   13   14 1
    19   13   16 1
    20   14   15 2
    21   14   25 1
    22   16   21 ar
    23   16   17 ar
    24   17   18 ar
    25   17   26 1
    26   18   19 ar
    27   19   20 ar
    28   19   27 1
    29   20   21 ar
    30   20   28 1
@<TRIPOS>MOLECULE
ZINC03833905
   26    26     0     0     0
SMALL
USER_CHARGES

@<TRIPOS>ATOM
      1 C1          0.8249   -4.2926    1.1638 C.ar      1 <0>        -0.1291
      2 C2          0.5934   -4.9512   -0.0297 C.ar      1 <0>        -0.0894
      3 C3          0.5959   -4.2481   -1.2192 C.ar      1 <0>        -0.1532
      4 C4          0.8303   -2.8833   -1.2156 C.ar      1 <0>         0.1128
      5 C5          1.0620   -2.2249   -0.0200 C.ar      1 <0>        -0.1034
      6 C6          1.0647   -2.9313    1.1680 C.ar      1 <0>        -0.0797
      7 C7          1.3172   -0.7397   -0.0145 C.3       1 <0>        -0.1019
      8 C8          0.0021   -0.0041    0.0020 C.2       1 <0>         0.5148
      9 O1         -1.0399   -0.6247    0.0086 O.2       1 <0>        -0.5307
     10 N1         -0.0162    1.3436    0.0094 N.am      1 <0>        -0.7264
     11 C9         -1.2947    2.0587    0.0194 C.3       1 <0>         0.1187
     12 C10        -1.0356    3.5666    0.0263 C.3       1 <0>         0.0630
     13 O2         -0.3996    3.9463   -1.1957 O.3       1 <0>        -0.5720
     14 F1          0.8334   -2.1949   -2.3781 F         1 <0>        -0.1376
     15 H1          0.8228   -4.8430    2.0931 H         1 <0>         0.1308
     16 H2          0.4109   -6.0157   -0.0322 H         1 <0>         0.1333
     17 H3          0.4154   -4.7628   -2.1513 H         1 <0>         0.1360
     18 H4          1.2498   -2.4187    2.1004 H         1 <0>         0.1309
     19 H5          1.8766   -0.4639   -0.9084 H         1 <0>         0.1071
     20 H6          1.8936   -0.4734    0.8715 H         1 <0>         0.1095
     21 H7          0.8172    1.8399    0.0041 H         1 <0>         0.4041
     22 H8         -1.8669    1.7925   -0.8694 H         1 <0>         0.0756
     23 H9         -1.8585    1.7828    0.9106 H         1 <0>         0.0832
     24 H10        -1.9826    4.0976    0.1233 H         1 <0>         0.0652
     25 H11        -0.3891    3.8203    0.8665 H         1 <0>         0.0543
     26 H12        -0.2048    4.8912   -1.2607 H         1 <0>         0.3842
@<TRIPOS>BOND
     1    1    6 ar
     2    1    2 ar
     3    1   15 1
     4    2    3 ar
     5    2   16 1
     6    3    4 ar
     7    3   17 1
     8    4    5 ar
     9    4   14 1
    10    5    6 ar
    11    5    7 1
    12    6   18 1
    13    7    8 1
    14    7   19 1
    15    7   20 1
    16    8    9 2
    17    8   10 am
    18   10   11 1
    19   10   21 1
    20   11   12 1
    21   11   22 1
    22   11   23 1
    23   12   13 1
    24   12   24 1
    25   12   25 1
    26   13   26 1
@<TRIPOS>MOLECULE
ZINC03833906
   36    37     0     0     0
SMALL
USER_CHARGES

@<TRIPOS>ATOM
      1 C1          0.2431    6.1491   -8.5210 C.ar      1 <0>        -0.1287
      2 C2         -0.0047    7.5078   -8.4545 C.ar      1 <0>        -0.0892
      3 C3          0.0791    8.1674   -7.2433 C.ar      1 <0>        -0.1531
      4 C4          0.4114    7.4672   -6.0957 C.ar      1 <0>         0.1125
      5 C5          0.6592    6.1069   -6.1634 C.ar      1 <0>        -0.1032
      6 C6          0.5804    5.4502   -7.3771 C.ar      1 <0>        -0.0796
      7 C7          1.0209    5.3435   -4.9155 C.3       1 <0>        -0.1021
      8 C8         -0.2376    4.9318   -4.1960 C.2       1 <0>         0.5145
      9 O1         -1.3215    5.2289   -4.6518 O.2       1 <0>        -0.5289
     10 N1         -0.1586    4.2333   -3.0461 N.am      1 <0>        -0.7272
     11 C9         -1.3821    3.8330   -2.3467 C.3       1 <0>         0.1535
     12 C10        -1.0204    3.0696   -1.0987 C.2       1 <0>        -0.1474
     13 C11        -0.9522    3.7251    0.0154 C.2       1 <0>        -0.1231
     14 C12        -0.5951    3.1057    1.3349 C.3       1 <0>        -0.0944
     15 C13        -0.7392    1.5847    1.2635 C.3       1 <0>        -0.1227
     16 C14        -0.0127    1.0858    0.0080 C.3       1 <0>        -0.1204
     17 C15        -0.7612    1.5969   -1.2250 C.3       1 <0>        -0.0818
     18 F1          0.4940    8.1112   -4.9109 F         1 <0>        -0.1382
     19 H1          0.1773    5.6343   -9.4681 H         1 <0>         0.1309
     20 H2         -0.2635    8.0537   -9.3497 H         1 <0>         0.1334
     21 H3         -0.1142    9.2287   -7.1917 H         1 <0>         0.1359
     22 H4          0.7781    4.3898   -7.4310 H         1 <0>         0.1310
     23 H5          1.6216    5.9773   -4.2631 H         1 <0>         0.1063
     24 H6          1.5922    4.4554   -5.1856 H         1 <0>         0.1095
     25 H7          0.7083    3.9956   -2.6815 H         1 <0>         0.4017
     26 H8         -1.9827    3.1992   -2.9990 H         1 <0>         0.0726
     27 H9         -1.9533    4.7212   -2.0766 H         1 <0>         0.0711
     28 H10        -1.1660    4.7835   -0.0058 H         1 <0>         0.1062
     29 H11         0.4362    3.3559    1.5841 H         1 <0>         0.0768
     30 H12        -1.2580    3.4946    2.1078 H         1 <0>         0.0747
     31 H13        -1.7956    1.3229    1.2039 H         1 <0>         0.0650
     32 H14        -0.2951    1.1298    2.1489 H         1 <0>         0.0670
     33 H15         0.0021   -0.0041    0.0020 H         1 <0>         0.0669
     34 H16         1.0088    1.4661    0.0003 H         1 <0>         0.0642
     35 H17        -0.1604    1.4108   -2.1152 H         1 <0>         0.0714
     36 H18        -1.7118    1.0711   -1.3142 H         1 <0>         0.0751
@<TRIPOS>BOND
     1    1    6 ar
     2    1    2 ar
     3    1   19 1
     4    2    3 ar
     5    2   20 1
     6    3    4 ar
     7    3   21 1
     8    4    5 ar
     9    4   18 1
    10    5    6 ar
    11    5    7 1
    12    6   22 1
    13    7    8 1
    14    7   23 1
    15    7   24 1
    16    8    9 2
    17    8   10 am
    18   10   11 1
    19   10   25 1
    20   11   12 1
    21   11   26 1
    22   11   27 1
    23   12   17 1
    24   12   13 2
    25   13   14 1
    26   13   28 1
    27   14   15 1
    28   14   29 1
    29   14   30 1
    30   15   16 1
    31   15   31 1
    32   15   32 1
    33   16   17 1
    34   16   33 1
    35   16   34 1
    36   17   35 1
    37   17   36 1
@<TRIPOS>MOLECULE
ZINC03833907
   35    36     0     0     0
SMALL
USER_CHARGES

@<TRIPOS>ATOM
      1 C1         -0.0559    4.2672    0.0251 C.ar      1 <0>        -0.1204
      2 C2          1.1505    3.5924    0.0100 C.ar      1 <0>        -0.1181
      3 C3          1.1693    2.2102    0.0028 C.ar      1 <0>        -0.1140
      4 C4         -0.0184    1.5028    0.0103 C.ar      1 <0>        -0.0852
      5 C5         -1.2248    2.1776    0.0197 C.ar      1 <0>        -0.1139
      6 C6         -1.2435    3.5598    0.0322 C.ar      1 <0>        -0.1179
      7 C7          0.0021   -0.0041    0.0020 C.3       1 <0>        -0.0909
      8 C8          0.0228   -0.5218    1.4416 C.3       1 <0>         0.1247
      9 N1          0.0426   -1.9866    1.4336 N.am      1 <0>        -0.7335
     10 C9          0.0629   -2.6667    2.5970 C.2       1 <0>         0.5149
     11 O1          0.0647   -2.0660    3.6506 O.2       1 <0>        -0.5270
     12 C10         0.0833   -4.1735    2.5887 C.3       1 <0>        -0.1021
     13 C11         0.1037   -4.6834    4.0067 C.ar      1 <0>        -0.1039
     14 C12         1.3058   -5.0046    4.6087 C.ar      1 <0>        -0.0795
     15 C13         1.3252   -5.4669    5.9112 C.ar      1 <0>        -0.1288
     16 C14         0.1416   -5.6194    6.6095 C.ar      1 <0>        -0.0891
     17 C15        -1.0617   -5.3043    6.0078 C.ar      1 <0>        -0.1531
     18 C16        -1.0819   -4.8357    4.7049 C.ar      1 <0>         0.1126
     19 F1         -2.2579   -4.5277    4.1155 F         1 <0>        -0.1381
     20 H1         -0.0705    5.3471    0.0311 H         1 <0>         0.1225
     21 H2          2.0784    4.1450    0.0041 H         1 <0>         0.1232
     22 H3          2.1118    1.6830   -0.0091 H         1 <0>         0.1221
     23 H4         -2.1527    1.6249    0.0211 H         1 <0>         0.1222
     24 H5         -2.1860    4.0870    0.0437 H         1 <0>         0.1232
     25 H6         -0.8878   -0.3767   -0.5053 H         1 <0>         0.0803
     26 H7          0.8920   -0.3525   -0.5222 H         1 <0>         0.0803
     27 H8          0.9126   -0.1491    1.9490 H         1 <0>         0.0700
     28 H9         -0.8671   -0.1733    1.9659 H         1 <0>         0.0698
     29 H10         0.0412   -2.4670    0.5909 H         1 <0>         0.4017
     30 H11        -0.8065   -4.5462    2.0813 H         1 <0>         0.1068
     31 H12         0.9732   -4.5219    2.0645 H         1 <0>         0.1099
     32 H13         2.2305   -4.8902    4.0626 H         1 <0>         0.1310
     33 H14         2.2653   -5.7134    6.3822 H         1 <0>         0.1309
     34 H15         0.1577   -5.9852    7.6255 H         1 <0>         0.1334
     35 H16        -1.9860   -5.4238    6.5534 H         1 <0>         0.1360
@<TRIPOS>BOND
     1    1    6 ar
     2    1    2 ar
     3    1   20 1
     4    2    3 ar
     5    2   21 1
     6    3    4 ar
     7    3   22 1
     8    4    5 ar
     9    4    7 1
    10    5    6 ar
    11    5   23 1
    12    6   24 1
    13    7    8 1
    14    7   25 1
    15    7   26 1
    16    8    9 1
    17    8   27 1
    18    8   28 1
    19    9   10 am
    20    9   29 1
    21   10   11 2
    22   10   12 1
    23   12   13 1
    24   12   30 1
    25   12   31 1
    26   13   18 ar
    27   13   14 ar
    28   14   15 ar
    29   14   32 1
    30   15   16 ar
    31   15   33 1
    32   16   17 ar
    33   16   34 1
    34   17   18 ar
    35   17   35 1
    36   18   19 1
@<TRIPOS>MOLECULE
ZINC03833908
   35    36     0     0     0
SMALL
USER_CHARGES

@<TRIPOS>ATOM
      1 C1          0.9951   10.8367   -5.9081 C.ar      1 <0>        -0.1288
      2 C2         -0.2053   10.9569   -6.5838 C.ar      1 <0>        -0.0889
      3 C3         -1.3880   10.6108   -5.9589 C.ar      1 <0>        -0.1531
      4 C4         -1.3709   10.1434   -4.6555 C.ar      1 <0>         0.1127
      5 C5         -0.1685   10.0234   -3.9800 C.ar      1 <0>        -0.1042
      6 C6          1.0129   10.3757   -4.6052 C.ar      1 <0>        -0.0795
      7 C7         -0.1482    9.5149   -2.5615 C.3       1 <0>        -0.1020
      8 C8         -0.1288    8.0080   -2.5684 C.2       1 <0>         0.5153
      9 O1         -0.1312    7.4063   -3.6214 O.2       1 <0>        -0.5262
     10 N1         -0.1087    7.3291   -1.4043 N.am      1 <0>        -0.7337
     11 C9         -0.0899    5.8642   -1.4109 C.3       1 <0>         0.1240
     12 C10        -0.0692    5.3479    0.0292 C.3       1 <0>        -0.0912
     13 C11        -0.0498    3.8410    0.0223 C.ar      1 <0>        -0.0715
     14 C12         1.1564    3.1654    0.0076 C.ar      1 <0>        -0.1092
     15 C13         1.1750    1.7834    0.0004 C.ar      1 <0>        -0.1037
     16 C14        -0.0126    1.0758    0.0080 C.ar      1 <0>        -0.1112
     17 C15        -1.2197    1.7513    0.0174 C.ar      1 <0>        -0.0322
     18 C16        -1.2377    3.1348    0.0303 C.ar      1 <0>        -0.1051
     19 Cl1        -2.7115    0.8634    0.0189 Cl        1 <0>        -0.0671
     20 F1         -2.5268    9.8050   -4.0434 F         1 <0>        -0.1380
     21 H1          1.9191   11.1075   -6.3973 H         1 <0>         0.1309
     22 H2         -0.2184   11.3218   -7.6002 H         1 <0>         0.1335
     23 H3         -2.3256   10.7051   -6.4867 H         1 <0>         0.1360
     24 H4          1.9506   10.2864   -4.0769 H         1 <0>         0.1310
     25 H5         -1.0377    9.8644   -2.0375 H         1 <0>         0.1070
     26 H6          0.7420    9.8874   -2.0547 H         1 <0>         0.1101
     27 H7         -0.1068    7.8103   -0.5621 H         1 <0>         0.4021
     28 H8          0.7997    5.5147   -1.9350 H         1 <0>         0.0712
     29 H9         -0.9801    5.4917   -1.9178 H         1 <0>         0.0707
     30 H10        -0.9588    5.6974    0.5532 H         1 <0>         0.0836
     31 H11         0.8210    5.7204    0.5360 H         1 <0>         0.0847
     32 H12         2.0844    3.7178    0.0014 H         1 <0>         0.1300
     33 H13         2.1175    1.2561   -0.0114 H         1 <0>         0.1343
     34 H14         0.0021   -0.0041    0.0020 H         1 <0>         0.1344
     35 H15        -2.1798    3.6627    0.0422 H         1 <0>         0.1339
@<TRIPOS>BOND
     1    1    6 ar
     2    1    2 ar
     3    1   21 1
     4    2    3 ar
     5    2   22 1
     6    3    4 ar
     7    3   23 1
     8    4    5 ar
     9    4   20 1
    10    5    6 ar
    11    5    7 1
    12    6   24 1
    13    7    8 1
    14    7   25 1
    15    7   26 1
    16    8    9 2
    17    8   10 am
    18   10   11 1
    19   10   27 1
    20   11   12 1
    21   11   28 1
    22   11   29 1
    23   12   13 1
    24   12   30 1
    25   12   31 1
    26   13   18 ar
    27   13   14 ar
    28   14   15 ar
    29   14   32 1
    30   15   16 ar
    31   15   33 1
    32   16   17 ar
    33   16   34 1
    34   17   18 ar
    35   17   19 1
    36   18   35 1
@<TRIPOS>MOLECULE
ZINC03833909
   39    40     0     0     0
SMALL
USER_CHARGES

@<TRIPOS>ATOM
      1 C1         -2.2321    4.1612    5.1743 C.3       1 <0>         0.0263
      2 O1         -2.6493    2.9025    4.6418 O.3       1 <0>        -0.3177
      3 C2         -2.0129    2.4640    3.5240 C.ar      1 <0>         0.1274
      4 C3         -2.3676    1.2501    2.9535 C.ar      1 <0>        -0.1499
      5 C4         -1.7195    0.8068    1.8169 C.ar      1 <0>        -0.0724
      6 C5         -0.7181    1.5718    1.2479 C.ar      1 <0>        -0.1231
      7 C6         -0.3589    2.7793    1.8178 C.ar      1 <0>        -0.0719
      8 C7         -1.0078    3.2297    2.9511 C.ar      1 <0>        -0.2063
      9 C8         -0.0127    1.0858    0.0080 C.3       1 <0>        -0.0853
     10 C9         -0.7527    1.5927   -1.2315 C.3       1 <0>         0.1237
     11 N1         -0.0670    1.1202   -2.4368 N.am      1 <0>        -0.7336
     12 C10        -0.5435    1.4461   -3.6547 C.2       1 <0>         0.5148
     13 O2         -1.5399    2.1304   -3.7528 O.2       1 <0>        -0.5272
     14 C11         0.1619    0.9601   -4.8946 C.3       1 <0>        -0.1023
     15 C12        -0.5670    1.4593   -6.1155 C.ar      1 <0>        -0.1037
     16 C13        -1.5027    0.6554   -6.7389 C.ar      1 <0>        -0.0795
     17 C14        -2.1756    1.1153   -7.8553 C.ar      1 <0>        -0.1287
     18 C15        -1.9052    2.3752   -8.3566 C.ar      1 <0>        -0.0892
     19 C16        -0.9661    3.1784   -7.7384 C.ar      1 <0>        -0.1532
     20 C17        -0.2955    2.7210   -6.6164 C.ar      1 <0>         0.1124
     21 F1          0.6233    3.5052   -6.0114 F         1 <0>        -0.1382
     22 H1         -1.1759    4.1115    5.4391 H         1 <0>         0.0561
     23 H2         -2.3831    4.9400    4.4268 H         1 <0>         0.0564
     24 H3         -2.8190    4.3921    6.0633 H         1 <0>         0.1016
     25 H4         -3.1495    0.6521    3.3978 H         1 <0>         0.1321
     26 H5         -1.9954   -0.1379    1.3722 H         1 <0>         0.1301
     27 H6          0.4269    3.3727    1.3742 H         1 <0>         0.1254
     28 H7         -0.7300    4.1750    3.3933 H         1 <0>         0.1291
     29 H8          0.0021   -0.0041    0.0020 H         1 <0>         0.0797
     30 H9          1.0099    1.4631    0.0003 H         1 <0>         0.0788
     31 H10        -1.7753    1.2154   -1.2238 H         1 <0>         0.0701
     32 H11        -0.7675    2.6825   -1.2255 H         1 <0>         0.0690
     33 H12         0.7300    0.5728   -2.3584 H         1 <0>         0.4016
     34 H13         1.1845    1.3373   -4.9023 H         1 <0>         0.1066
     35 H14         0.1767   -0.1298   -4.9006 H         1 <0>         0.1099
     36 H15        -1.7115   -0.3306   -6.3509 H         1 <0>         0.1311
     37 H16        -2.9098    0.4882   -8.3392 H         1 <0>         0.1309
     38 H17        -2.4281    2.7316   -9.2318 H         1 <0>         0.1333
     39 H18        -0.7548    4.1624   -8.1302 H         1 <0>         0.1358
@<TRIPOS>BOND
     1    1    2 1
     2    1   22 1
     3    1   23 1
     4    1   24 1
     5    2    3 1
     6    3    8 ar
     7    3    4 ar
     8    4    5 ar
     9    4   25 1
    10    5    6 ar
    11    5   26 1
    12    6    7 ar
    13    6    9 1
    14    7    8 ar
    15    7   27 1
    16    8   28 1
    17    9   10 1
    18    9   29 1
    19    9   30 1
    20   10   11 1
    21   10   31 1
    22   10   32 1
    23   11   12 am
    24   11   33 1
    25   12   13 2
    26   12   14 1
    27   14   15 1
    28   14   34 1
    29   14   35 1
    30   15   20 ar
    31   15   16 ar
    32   16   17 ar
    33   16   36 1
    34   17   18 ar
    35   17   37 1
    36   18   19 ar
    37   18   38 1
    38   19   20 ar
    39   19   39 1
    40   20   21 1
@<TRIPOS>MOLECULE
ZINC03833910
   53    55     0     0     0
SMALL
USER_CHARGES

@<TRIPOS>ATOM
      1 C1          0.7810   -2.2687  -10.8118 C.3       1 <0>         0.0260
      2 O1          0.0715   -1.8683   -9.6378 O.3       1 <0>        -0.3129
      3 C2          0.4206   -0.6784   -9.0818 C.ar      1 <0>         0.1687
      4 C3         -0.2278   -0.2284   -7.9403 C.ar      1 <0>        -0.1825
      5 C4          0.1273    0.9809   -7.3740 C.ar      1 <0>        -0.0059
      6 C5          1.1241    1.7480   -7.9459 C.ar      1 <0>        -0.1824
      7 C6          1.7791    1.3000   -9.0844 C.ar      1 <0>         0.1688
      8 C7          1.4249    0.0868   -9.6542 C.ar      1 <0>        -0.2987
      9 O2          2.7635    2.0521   -9.6430 O.3       1 <0>        -0.3128
     10 C8          3.3910    1.5314  -10.8165 C.3       1 <0>         0.0260
     11 C9         -0.5781    1.4669   -6.1341 C.3       1 <0>        -0.0904
     12 C10         0.1619    0.9601   -4.8946 C.3       1 <0>         0.1234
     13 N1         -0.5238    1.4325   -3.6893 N.am      1 <0>        -0.7356
     14 C11        -0.0473    1.1067   -2.4714 C.2       1 <0>         0.5106
     15 O3          0.9491    0.4223   -2.3733 O.2       1 <0>        -0.5359
     16 C12        -0.7527    1.5927   -1.2315 C.3       1 <0>        -0.1411
     17 C13        -0.0127    1.0858    0.0080 C.3       1 <0>        -0.0981
     18 C14        -0.7288    1.5792    1.2668 C.3       1 <0>        -0.0434
     19 C15         0.0000    1.0800    2.4877 C.2       1 <0>        -0.1680
     20 C16        -0.2888   -0.0242    3.1942 C.2       1 <0>         0.0520
     21 N2          0.5910   -0.1564    4.2338 N.pl3     1 <0>        -0.5965
     22 H1          0.5835   -0.8781    4.8819 H         1 <0>         0.4157
     23 C17         1.4851    0.8907    4.2264 C.ar      1 <0>         0.0945
     24 C18         1.1542    1.7112    3.1323 C.ar      1 <0>        -0.1015
     25 C19         1.9006    2.8621    2.8738 C.ar      1 <0>        -0.0697
     26 C20         2.9506    3.1863    3.6862 C.ar      1 <0>        -0.1473
     27 C21         3.2809    2.3806    4.7669 C.ar      1 <0>        -0.0990
     28 C22         2.5576    1.2400    5.0401 C.ar      1 <0>        -0.1318
     29 H2          1.8435   -2.3527  -10.5833 H         1 <0>         0.0558
     30 H3          0.4052   -3.2337  -11.1520 H         1 <0>         0.1033
     31 H4          0.6355   -1.5253  -11.5956 H         1 <0>         0.0557
     32 H5         -1.0103   -0.8242   -7.4940 H         1 <0>         0.1334
     33 H6          1.3969    2.6949   -7.5039 H         1 <0>         0.1336
     34 H7          1.9309   -0.2618  -10.5424 H         1 <0>         0.1348
     35 H8          3.8513    0.5705  -10.5866 H         1 <0>         0.0559
     36 H9          2.6441    1.3985  -11.5993 H         1 <0>         0.0556
     37 H10         4.1561    2.2282  -11.1590 H         1 <0>         0.1034
     38 H11        -1.6007    1.0896   -6.1264 H         1 <0>         0.0855
     39 H12        -0.5929    2.5568   -6.1281 H         1 <0>         0.0856
     40 H13         1.1845    1.3373   -4.9023 H         1 <0>         0.0712
     41 H14         0.1767   -0.1298   -4.9006 H         1 <0>         0.0710
     42 H15        -1.3208    1.9799   -3.7677 H         1 <0>         0.4012
     43 H16        -1.7753    1.2154   -1.2238 H         1 <0>         0.0940
     44 H17        -0.7675    2.6825   -1.2255 H         1 <0>         0.0943
     45 H18         0.0021   -0.0041    0.0020 H         1 <0>         0.0691
     46 H19         1.0099    1.4631    0.0003 H         1 <0>         0.0707
     47 H20        -0.7436    2.6691    1.2728 H         1 <0>         0.0702
     48 H21        -1.7514    1.2020    1.2746 H         1 <0>         0.0696
     49 H22        -1.0951   -0.7081    2.9736 H         1 <0>         0.1688
     50 H23         1.6493    3.4939    2.0348 H         1 <0>         0.1203
     51 H24         3.5282    4.0766    3.4855 H         1 <0>         0.1218
     52 H25         4.1133    2.6501    5.4000 H         1 <0>         0.1245
     53 H26         2.8229    0.6192    5.8831 H         1 <0>         0.1187
@<TRIPOS>BOND
     1    1    2 1
     2    1   29 1
     3    1   30 1
     4    1   31 1
     5    2    3 1
     6    3    8 ar
     7    3    4 ar
     8    4    5 ar
     9    4   32 1
    10    5    6 ar
    11    5   11 1
    12    6    7 ar
    13    6   33 1
    14    7    8 ar
    15    7    9 1
    16    8   34 1
    17    9   10 1
    18   10   35 1
    19   10   36 1
    20   10   37 1
    21   11   12 1
    22   11   38 1
    23   11   39 1
    24   12   13 1
    25   12   40 1
    26   12   41 1
    27   13   14 am
    28   13   42 1
    29   14   15 2
    30   14   16 1
    31   16   17 1
    32   16   43 1
    33   16   44 1
    34   17   18 1
    35   17   45 1
    36   17   46 1
    37   18   19 1
    38   18   47 1
    39   18   48 1
    40   19   24 1
    41   19   20 2
    42   20   21 1
    43   20   49 1
    44   21   22 1
    45   21   23 1
    46   23   28 ar
    47   23   24 ar
    48   24   25 ar
    49   25   26 ar
    50   25   50 1
    51   26   27 ar
    52   26   51 1
    53   27   28 ar
    54   27   52 1
    55   28   53 1
@<TRIPOS>MOLECULE
ZINC03833911
   47    50     0     0     0
SMALL
USER_CHARGES

@<TRIPOS>ATOM
      1 C1          7.1910    3.5055    3.3584 C.ar      1 <0>        -0.1471
      2 C2          8.1928    4.3361    2.8748 C.ar      1 <0>        -0.0989
      3 C3          8.4454    4.4190    1.5232 C.ar      1 <0>        -0.1315
      4 C4          7.6904    3.6638    0.6316 C.ar      1 <0>         0.0944
      5 C5          6.6765    2.8237    1.1266 C.ar      1 <0>        -0.1017
      6 C6          6.4372    2.7554    2.5005 C.ar      1 <0>        -0.0699
      7 C7          6.0785    2.1777   -0.0443 C.2       1 <0>        -0.1683
      8 C8          6.7340    2.6356   -1.1226 C.2       1 <0>         0.0521
      9 N1          7.6970    3.5285   -0.7386 N.pl3     1 <0>        -0.5962
     10 H1          8.2976    3.9939   -1.3416 H         1 <0>         0.4157
     11 C9          4.9464    1.1830   -0.0388 C.3       1 <0>        -0.0434
     12 C10         3.6112    1.9298   -0.0221 C.3       1 <0>        -0.0979
     13 C11         2.4620    0.9199   -0.0165 C.3       1 <0>        -0.1411
     14 C12         1.1468    1.6555   -0.0000 C.2       1 <0>         0.5115
     15 O1          1.1304    2.8682    0.0067 O.2       1 <0>        -0.5357
     16 N2         -0.0111    0.9658    0.0074 N.am      1 <0>        -0.7318
     17 C13        -1.2896    1.6810    0.0173 C.3       1 <0>         0.1641
     18 C14        -2.4216    0.6862    0.0173 C.2       1 <0>        -0.1148
     19 C15        -2.9869    0.3061    1.1783 C.2       1 <0>        -0.1064
     20 C16        -4.1132   -0.6651    1.0596 C.3       1 <0>         0.0748
     21 H2         -3.7137   -1.6531    0.8310 H         1 <0>         0.0937
     22 C17        -5.0082   -0.1763   -0.1169 C.3       1 <0>         0.0690
     23 H3         -5.3135    0.8601    0.0269 H         1 <0>         0.0961
     24 C18        -4.1830   -0.3057   -1.3553 C.2       1 <0>        -0.1299
     25 C19        -2.9107    0.1205   -1.2557 C.2       1 <0>        -0.1137
     26 O2         -6.1257   -1.0479    0.0405 O.3       1 <0>        -0.3655
     27 C20        -6.3165   -1.0780    1.4794 C.3       1 <0>         0.2022
     28 O3         -5.0546   -0.7630    2.1156 O.3       1 <0>        -0.3710
     29 H4          7.0055    3.4524    4.4210 H         1 <0>         0.1218
     30 H5          8.7798    4.9235    3.5653 H         1 <0>         0.1246
     31 H6          9.2268    5.0684    1.1569 H         1 <0>         0.1188
     32 H7          5.6593    2.1117    2.8838 H         1 <0>         0.1202
     33 H8          6.5300    2.3438   -2.1422 H         1 <0>         0.1688
     34 H9          5.0212    0.5524    0.8471 H         1 <0>         0.0702
     35 H10         5.0042    0.5619   -0.9327 H         1 <0>         0.0696
     36 H11         3.5365    2.5604   -0.9080 H         1 <0>         0.0693
     37 H12         3.5535    2.5509    0.8719 H         1 <0>         0.0710
     38 H13         2.5367    0.2893    0.8694 H         1 <0>         0.0946
     39 H14         2.5197    0.2988   -0.9104 H         1 <0>         0.0943
     40 H15         0.0021   -0.0041    0.0020 H         1 <0>         0.4024
     41 H16        -1.3516    2.3020    0.9110 H         1 <0>         0.0784
     42 H17        -1.3601    2.3116   -0.8689 H         1 <0>         0.0801
     43 H18        -2.6493    0.6820    2.1329 H         1 <0>         0.1423
     44 H19        -4.5821   -0.7148   -2.2717 H         1 <0>         0.1424
     45 H20        -2.2484    0.0493   -2.1058 H         1 <0>         0.1348
     46 H21        -7.0664   -0.3407    1.7660 H         1 <0>         0.0862
     47 H22        -6.6442   -2.0714    1.7857 H         1 <0>         0.1013
@<TRIPOS>BOND
     1    1    6 ar
     2    1    2 ar
     3    1   29 1
     4    2    3 ar
     5    2   30 1
     6    3    4 ar
     7    3   31 1
     8    4    9 1
     9    4    5 ar
    10    5    6 ar
    11    5    7 1
    12    6   32 1
    13    7    8 2
    14    7   11 1
    15    8    9 1
    16    8   33 1
    17    9   10 1
    18   11   12 1
    19   11   34 1
    20   11   35 1
    21   12   13 1
    22   12   36 1
    23   12   37 1
    24   13   14 1
    25   13   38 1
    26   13   39 1
    27   14   15 2
    28   14   16 am
    29   16   17 1
    30   16   40 1
    31   17   18 1
    32   17   41 1
    33   17   42 1
    34   18   25 1
    35   18   19 2
    36   19   20 1
    37   19   43 1
    38   20   21 1
    39   20   28 1
    40   20   22 1
    41   22   23 1
    42   22   24 1
    43   22   26 1
    44   24   25 2
    45   24   44 1
    46   25   45 1
    47   26   27 1
    48   27   28 1
    49   27   46 1
    50   27   47 1
@<TRIPOS>MOLECULE
ZINC03833912
   52    53     0     0     0
SMALL
USER_CHARGES

@<TRIPOS>ATOM
      1 C1         -3.3568    4.4221    8.7379 C.3       1 <0>        -0.1219
      2 C2         -4.0905    5.6864    9.1044 C.2       1 <0>        -0.1314
      3 C3         -4.2281    6.6435    8.2206 C.2       1 <0>        -0.1686
      4 C4         -3.5409    6.5389    6.8834 C.3       1 <0>        -0.0874
      5 C5         -4.5837    6.6172    5.7666 C.3       1 <0>        -0.0820
      6 C6         -3.8965    6.5126    4.4295 C.2       1 <0>        -0.0953
      7 C7         -3.8004    5.3510    3.8315 C.2       1 <0>        -0.1920
      8 C8         -3.0061    5.2229    2.5573 C.3       1 <0>         0.1463
      9 N1         -2.0111    4.1581    2.7071 N.am      1 <0>        -0.7295
     10 C9         -1.1811    3.8630    1.6870 C.2       1 <0>         0.5107
     11 O1         -1.2579    4.4790    0.6451 O.2       1 <0>        -0.5397
     12 C10        -0.1576    2.7677    1.8411 C.3       1 <0>        -0.1335
     13 C11         0.6489    2.6377    0.5474 C.3       1 <0>        -0.0268
     14 C12         1.6724    1.5424    0.7015 C.2       1 <0>        -0.1713
     15 C13         2.9569    1.6945    1.0607 C.2       1 <0>         0.0549
     16 N2          3.5809    0.4771    1.0887 N.pl3     1 <0>        -0.5959
     17 H1          4.5120    0.3334    1.3198 H         1 <0>         0.4162
     18 C14         2.6906   -0.5134    0.7394 C.ar      1 <0>         0.0947
     19 C15         1.4561    0.1103    0.4815 C.ar      1 <0>        -0.1019
     20 C16         0.3537   -0.6572    0.1017 C.ar      1 <0>        -0.0711
     21 C17         0.4797   -2.0128   -0.0179 C.ar      1 <0>        -0.1462
     22 C18         1.6954   -2.6328    0.2349 C.ar      1 <0>        -0.0985
     23 C19         2.7961   -1.8944    0.6113 C.ar      1 <0>        -0.1313
     24 C20        -3.3199    7.7443    3.7803 C.3       1 <0>        -0.1271
     25 C21        -4.6658    5.8497   10.4876 C.3       1 <0>        -0.1191
     26 H2         -2.2861    4.5694    8.8792 H         1 <0>         0.0656
     27 H3         -3.6984    3.6061    9.3747 H         1 <0>         0.0614
     28 H4         -3.5552    4.1763    7.6946 H         1 <0>         0.0671
     29 H5         -4.8341    7.5075    8.4502 H         1 <0>         0.1085
     30 H6         -3.0116    5.5881    6.8203 H         1 <0>         0.0736
     31 H7         -2.8303    7.3582    6.7751 H         1 <0>         0.0722
     32 H8         -5.1130    7.5679    5.8297 H         1 <0>         0.0717
     33 H9         -5.2944    5.7978    5.8749 H         1 <0>         0.0699
     34 H10        -4.2905    4.4851    4.2517 H         1 <0>         0.1154
     35 H11        -2.5006    6.1657    2.3479 H         1 <0>         0.0759
     36 H12        -3.6773    4.9797    1.7336 H         1 <0>         0.0723
     37 H13        -1.9496    3.6655    3.5404 H         1 <0>         0.4009
     38 H14        -0.6630    1.8250    2.0505 H         1 <0>         0.0938
     39 H15         0.5136    3.0109    2.6648 H         1 <0>         0.0926
     40 H16         1.1544    3.5804    0.3380 H         1 <0>         0.0768
     41 H17        -0.0223    2.3945   -0.2763 H         1 <0>         0.0776
     42 H18         3.4281    2.6382    1.2924 H         1 <0>         0.1698
     43 H19        -0.5953   -0.1816   -0.0970 H         1 <0>         0.1207
     44 H20        -0.3736   -2.6063   -0.3113 H         1 <0>         0.1221
     45 H21         1.7794   -3.7050    0.1360 H         1 <0>         0.1248
     46 H22         3.7376   -2.3862    0.8065 H         1 <0>         0.1191
     47 H23        -3.8092    7.9122    2.8208 H         1 <0>         0.0712
     48 H24        -3.4832    8.6062    4.4271 H         1 <0>         0.0642
     49 H25        -2.2503    7.6053    3.6232 H         1 <0>         0.0699
     50 H26        -5.1557    6.8203   10.5651 H         1 <0>         0.0604
     51 H27        -5.3932    5.0596   10.6742 H         1 <0>         0.0642
     52 H28        -3.8647    5.7872   11.2241 H         1 <0>         0.0662
@<TRIPOS>BOND
     1    1    2 1
     2    1   26 1
     3    1   27 1
     4    1   28 1
     5    2    3 2
     6    2   25 1
     7    3    4 1
     8    3   29 1
     9    4    5 1
    10    4   30 1
    11    4   31 1
    12    5    6 1
    13    5   32 1
    14    5   33 1
    15    6    7 2
    16    6   24 1
    17    7    8 1
    18    7   34 1
    19    8    9 1
    20    8   35 1
    21    8   36 1
    22    9   10 am
    23    9   37 1
    24   10   11 2
    25   10   12 1
    26   12   13 1
    27   12   38 1
    28   12   39 1
    29   13   14 1
    30   13   40 1
    31   13   41 1
    32   14   19 1
    33   14   15 2
    34   15   16 1
    35   15   42 1
    36   16   17 1
    37   16   18 1
    38   18   23 ar
    39   18   19 ar
    40   19   20 ar
    41   20   21 ar
    42   20   43 1
    43   21   22 ar
    44   21   44 1
    45   22   23 ar
    46   22   45 1
    47   23   46 1
    48   24   47 1
    49   24   48 1
    50   24   49 1
    51   25   50 1
    52   25   51 1
    53   25   52 1
@<TRIPOS>MOLECULE
ZINC03833913
   52    55     0     0     0
SMALL
USER_CHARGES

@<TRIPOS>ATOM
      1 C1          6.7326   11.1133   -6.1533 C.3       1 <0>        -0.1477
      2 C2          5.8603   11.4395   -4.9394 C.3       1 <0>        -0.0791
      3 C3          4.7911   12.4584   -5.3386 C.3       1 <0>        -0.1464
      4 C4          5.1850   10.1613   -4.4384 C.3       1 <0>        -0.0972
      5 C5          6.1748    9.0623   -4.0077 C.3       1 <0>        -0.1071
      6 H1          7.1069    9.0230   -4.5715 H         1 <0>         0.0886
      7 C6          6.2324    9.8036   -2.6558 C.3       1 <0>        -0.1405
      8 C7          4.7755   10.2144   -2.9543 C.3       1 <0>        -0.1057
      9 H2          4.4792   11.1959   -2.5841 H         1 <0>         0.0840
     10 C8          3.8024    9.0746   -2.6046 C.3       1 <0>        -0.1127
     11 C9          4.5924    7.7580   -2.5969 C.3       1 <0>         0.1423
     12 C10         5.4671    7.7039   -3.8577 C.3       1 <0>        -0.1106
     13 N1          3.6622    6.6263   -2.5949 N.am      1 <0>        -0.7308
     14 C11         3.1661    6.1639   -1.4302 C.2       1 <0>         0.5127
     15 O1          3.4898    6.6846   -0.3838 O.2       1 <0>        -0.5378
     16 C12         2.2091    4.9997   -1.4281 C.3       1 <0>        -0.1343
     17 C13         1.8010    4.6776    0.0108 C.3       1 <0>        -0.0265
     18 C14         0.8440    3.5134    0.0129 C.2       1 <0>        -0.1714
     19 C15        -0.4965    3.5818    0.0261 C.2       1 <0>         0.0550
     20 N2         -1.0281    2.3210    0.0188 N.pl3     1 <0>        -0.5960
     21 H3         -1.9762    2.1159    0.0210 H         1 <0>         0.4162
     22 C16        -0.0168    1.3866    0.0097 C.ar      1 <0>         0.0946
     23 C17         1.2003    2.0926    0.0018 C.ar      1 <0>        -0.1019
     24 C18         2.4096    1.3955   -0.0140 C.ar      1 <0>        -0.0712
     25 C19         2.4050    0.0289   -0.0213 C.ar      1 <0>        -0.1461
     26 C20         1.2071   -0.6720   -0.0131 C.ar      1 <0>        -0.0985
     27 C21         0.0021   -0.0041    0.0020 C.ar      1 <0>        -0.1312
     28 H4          7.4944   10.3875   -5.8688 H         1 <0>         0.0562
     29 H5          6.1111   10.6962   -6.9457 H         1 <0>         0.0539
     30 H6          7.2137   12.0240   -6.5102 H         1 <0>         0.0542
     31 H7          6.4818   11.8566   -4.1470 H         1 <0>         0.0720
     32 H8          4.1697   12.6908   -4.4738 H         1 <0>         0.0544
     33 H9          5.2722   13.3690   -5.6956 H         1 <0>         0.0545
     34 H10         4.1696   12.0412   -6.1310 H         1 <0>         0.0536
     35 H11         4.3950    9.8074   -5.1007 H         1 <0>         0.0744
     36 H12         6.3366    9.1431   -1.7950 H         1 <0>         0.0712
     37 H13         6.9319   10.6394   -2.6409 H         1 <0>         0.0837
     38 H14         3.0106    9.0244   -3.3519 H         1 <0>         0.0678
     39 H15         3.3693    9.2496   -1.6197 H         1 <0>         0.0708
     40 H16         5.2251    7.7131   -1.7105 H         1 <0>         0.0936
     41 H17         6.2089    6.9116   -3.7573 H         1 <0>         0.0720
     42 H18         4.8428    7.5150   -4.7310 H         1 <0>         0.0716
     43 H19         3.4032    6.2098   -3.4318 H         1 <0>         0.3995
     44 H20         2.6939    4.1300   -1.8716 H         1 <0>         0.0935
     45 H21         1.3228    5.2569   -2.0082 H         1 <0>         0.0922
     46 H22         1.3161    5.5473    0.4543 H         1 <0>         0.0766
     47 H23         2.6872    4.4205    0.5909 H         1 <0>         0.0773
     48 H24        -1.0705    4.4966    0.0365 H         1 <0>         0.1697
     49 H25         3.3456    1.9343   -0.0207 H         1 <0>         0.1205
     50 H26         3.3409   -0.5099   -0.0331 H         1 <0>         0.1222
     51 H27         1.2197   -1.7519   -0.0190 H         1 <0>         0.1249
     52 H28        -0.9247   -0.5585    0.0076 H         1 <0>         0.1191
@<TRIPOS>BOND
     1    1    2 1
     2    1   28 1
     3    1   29 1
     4    1   30 1
     5    2    3 1
     6    2    4 1
     7    2   31 1
     8    3   32 1
     9    3   33 1
    10    3   34 1
    11    4    8 1
    12    4    5 1
    13    4   35 1
    14    5    6 1
    15    5   12 1
    16    5    7 1
    17    7    8 1
    18    7   36 1
    19    7   37 1
    20    8    9 1
    21    8   10 1
    22   10   11 1
    23   10   38 1
    24   10   39 1
    25   11   12 1
    26   11   13 1
    27   11   40 1
    28   12   41 1
    29   12   42 1
    30   13   14 am
    31   13   43 1
    32   14   15 2
    33   14   16 1
    34   16   17 1
    35   16   44 1
    36   16   45 1
    37   17   18 1
    38   17   46 1
    39   17   47 1
    40   18   23 1
    41   18   19 2
    42   19   20 1
    43   19   48 1
    44   20   21 1
    45   20   22 1
    46   22   27 ar
    47   22   23 ar
    48   23   24 ar
    49   24   25 ar
    50   24   49 1
    51   25   26 ar
    52   25   50 1
    53   26   27 ar
    54   26   51 1
    55   27   52 1
@<TRIPOS>MOLECULE
ZINC03833914
   42    44     0     0     0
SMALL
USER_CHARGES

@<TRIPOS>ATOM
      1 C1         -2.5095    5.6410   -0.0456 C.3       1 <0>         0.0569
      2 N1         -1.2484    6.3865   -0.0539 N.am      1 <0>        -0.6060
      3 C2         -1.2619    7.8474   -0.1622 C.3       1 <0>         0.1542
      4 C3         -1.2141    8.2440   -1.6153 C.ar      1 <0>        -0.1109
      5 C4          0.0040    8.4455   -2.2370 C.ar      1 <0>        -0.0965
      6 C5          0.0480    8.8041   -3.5714 C.ar      1 <0>        -0.1224
      7 C6         -1.1264    8.9717   -4.2810 C.ar      1 <0>        -0.1151
      8 C7         -2.3446    8.7757   -3.6578 C.ar      1 <0>        -0.1239
      9 C8         -2.3884    8.4116   -2.3250 C.ar      1 <0>        -0.1069
     10 C9         -0.0758    5.7284    0.0380 C.2       1 <0>         0.5613
     11 O1          0.9662    6.3503    0.1110 O.2       1 <0>        -0.5299
     12 C10        -0.0569    4.2513    0.0501 C.ar      1 <0>        -0.1339
     13 C11         1.0204    3.5615   -0.5116 C.ar      1 <0>        -0.0567
     14 C12         1.0368    2.1849   -0.5002 C.ar      1 <0>        -0.1187
     15 C13        -0.0217    1.4789    0.0719 C.ar      1 <0>        -0.0174
     16 C14        -1.1005    2.1667    0.6279 C.ar      1 <0>        -0.1210
     17 C15        -1.1163    3.5433    0.6227 C.ar      1 <0>        -0.0974
     18 C16        -0.0028   -0.0037    0.0836 C.ar      1 <0>        -0.0555
     19 C17         1.0682   -0.6943   -0.4814 C.ar      1 <0>        -0.1063
     20 C18         1.0826   -2.0741   -0.4632 C.ar      1 <0>        -0.1181
     21 C19         0.0321   -2.7720    0.1051 C.ar      1 <0>        -0.1139
     22 C20        -1.0359   -2.0921    0.6625 C.ar      1 <0>        -0.1185
     23 C21        -1.0589   -0.7123    0.6544 C.ar      1 <0>        -0.1064
     24 H1         -2.9033    5.6044    0.9701 H         1 <0>         0.0644
     25 H2         -3.2292    6.1371   -0.6967 H         1 <0>         0.0712
     26 H3         -2.3342    4.6266   -0.4041 H         1 <0>         0.0927
     27 H4         -2.1735    8.2370    0.2909 H         1 <0>         0.0886
     28 H5         -0.3948    8.2581    0.3552 H         1 <0>         0.0961
     29 H6          0.9214    8.3189   -1.6814 H         1 <0>         0.1272
     30 H7          0.9997    8.9569   -4.0584 H         1 <0>         0.1226
     31 H8         -1.0922    9.2555   -5.3225 H         1 <0>         0.1219
     32 H9         -3.2621    8.9067   -4.2123 H         1 <0>         0.1224
     33 H10        -3.3402    8.2584   -1.8381 H         1 <0>         0.1201
     34 H11         1.8401    4.1078   -0.9543 H         1 <0>         0.1348
     35 H12         1.8693    1.6514   -0.9347 H         1 <0>         0.1332
     36 H13        -1.9217    1.6191    1.0663 H         1 <0>         0.1328
     37 H14        -1.9496    4.0756    1.0573 H         1 <0>         0.1453
     38 H15         1.8868   -0.1505   -0.9293 H         1 <0>         0.1268
     39 H16         1.9137   -2.6102   -0.8973 H         1 <0>         0.1261
     40 H17         0.0457   -3.8519    0.1133 H         1 <0>         0.1245
     41 H18        -1.8535   -2.6422    1.1045 H         1 <0>         0.1260
     42 H19        -1.8935   -0.1826    1.0893 H         1 <0>         0.1265
@<TRIPOS>BOND
     1    1    2 1
     2    1   24 1
     3    1   25 1
     4    1   26 1
     5    2    3 1
     6    2   10 am
     7    3    4 1
     8    3   27 1
     9    3   28 1
    10    4    9 ar
    11    4    5 ar
    12    5    6 ar
    13    5   29 1
    14    6    7 ar
    15    6   30 1
    16    7    8 ar
    17    7   31 1
    18    8    9 ar
    19    8   32 1
    20    9   33 1
    21   10   11 2
    22   10   12 1
    23   12   17 ar
    24   12   13 ar
    25   13   14 ar
    26   13   34 1
    27   14   15 ar
    28   14   35 1
    29   15   16 ar
    30   15   18 1
    31   16   17 ar
    32   16   36 1
    33   17   37 1
    34   18   23 ar
    35   18   19 ar
    36   19   20 ar
    37   19   38 1
    38   20   21 ar
    39   20   39 1
    40   21   22 ar
    41   21   40 1
    42   22   23 ar
    43   22   41 1
    44   23   42 1
@<TRIPOS>MOLECULE
ZINC03833915
   39    41     0     0     0
SMALL
USER_CHARGES

@<TRIPOS>ATOM
      1 C1         -2.5095    5.6410   -0.0456 C.3       1 <0>         0.0562
      2 N1         -1.2484    6.3865   -0.0539 N.am      1 <0>        -0.6095
      3 C2         -1.2619    7.8474   -0.1621 C.3       1 <0>         0.1938
      4 C3         -1.2142    8.2441   -1.6151 C.2       1 <0>        -0.0355
      5 C4         -2.2796    8.4382   -2.4130 C.2       1 <0>        -0.1955
      6 C5         -1.7785    8.7955   -3.6858 C.2       1 <0>        -0.2186
      7 C6         -0.4368    8.7985   -3.5896 C.2       1 <0>        -0.0332
      8 O1         -0.1008    8.4694   -2.3316 O.3       1 <0>        -0.1651
      9 C7         -0.0758    5.7284    0.0379 C.2       1 <0>         0.5607
     10 O2          0.9662    6.3503    0.1104 O.2       1 <0>        -0.5220
     11 C8         -0.0569    4.2513    0.0504 C.ar      1 <0>        -0.1343
     12 C9          1.0203    3.5612   -0.5111 C.ar      1 <0>        -0.0562
     13 C10         1.0367    2.1847   -0.4992 C.ar      1 <0>        -0.1184
     14 C11        -0.0218    1.4789    0.0731 C.ar      1 <0>        -0.0166
     15 C12        -1.1006    2.1669    0.6289 C.ar      1 <0>        -0.1210
     16 C13        -1.1164    3.5435    0.6233 C.ar      1 <0>        -0.0968
     17 C14        -0.0030   -0.0037    0.0853 C.ar      1 <0>        -0.0559
     18 C15         1.0680   -0.6945   -0.4794 C.ar      1 <0>        -0.1062
     19 C16         1.0824   -2.0743   -0.4609 C.ar      1 <0>        -0.1181
     20 C17         0.0319   -2.7720    0.1076 C.ar      1 <0>        -0.1136
     21 C18        -1.0361   -2.0919    0.6648 C.ar      1 <0>        -0.1186
     22 C19        -1.0591   -0.7121    0.6564 C.ar      1 <0>        -0.1062
     23 H1         -2.9033    5.6044    0.9701 H         1 <0>         0.0671
     24 H2         -3.2292    6.1371   -0.6967 H         1 <0>         0.0729
     25 H3         -2.3342    4.6266   -0.4041 H         1 <0>         0.0941
     26 H4         -2.1735    8.2369    0.2911 H         1 <0>         0.1136
     27 H5         -0.3948    8.2581    0.3553 H         1 <0>         0.1049
     28 H6         -3.3185    8.3393   -2.1348 H         1 <0>         0.1477
     29 H7         -2.3611    9.0223   -4.5664 H         1 <0>         0.1491
     30 H8          0.2531    9.0302   -4.3876 H         1 <0>         0.2028
     31 H9          1.8400    4.1075   -0.9539 H         1 <0>         0.1351
     32 H10         1.8691    1.6511   -0.9335 H         1 <0>         0.1336
     33 H11        -1.9218    1.6194    1.0675 H         1 <0>         0.1334
     34 H12        -1.9496    4.0759    1.0577 H         1 <0>         0.1459
     35 H13         1.8866   -0.1508   -0.9275 H         1 <0>         0.1268
     36 H14         1.9134   -2.6105   -0.8948 H         1 <0>         0.1261
     37 H15         0.0454   -3.8519    0.1162 H         1 <0>         0.1245
     38 H16        -1.8537   -2.6418    1.1070 H         1 <0>         0.1261
     39 H17        -1.8937   -0.1822    1.0910 H         1 <0>         0.1267
@<TRIPOS>BOND
     1    1    2 1
     2    1   23 1
     3    1   24 1
     4    1   25 1
     5    2    3 1
     6    2    9 am
     7    3    4 1
     8    3   26 1
     9    3   27 1
    10    4    8 1
    11    4    5 2
    12    5    6 1
    13    5   28 1
    14    6    7 2
    15    6   29 1
    16    7    8 1
    17    7   30 1
    18    9   10 2
    19    9   11 1
    20   11   16 ar
    21   11   12 ar
    22   12   13 ar
    23   12   31 1
    24   13   14 ar
    25   13   32 1
    26   14   15 ar
    27   14   17 1
    28   15   16 ar
    29   15   33 1
    30   16   34 1
    31   17   22 ar
    32   17   18 ar
    33   18   19 ar
    34   18   35 1
    35   19   20 ar
    36   19   36 1
    37   20   21 ar
    38   20   37 1
    39   21   22 ar
    40   21   38 1
    41   22   39 1
@<TRIPOS>MOLECULE
ZINC03833916
   45    47     0     0     0
SMALL
USER_CHARGES

@<TRIPOS>ATOM
      1 C1          1.4978    1.4624    2.6656 C.3       1 <0>         0.0615
      2 N1          0.1954    0.9257    2.2631 N.am      1 <0>        -0.6134
      3 C2         -0.4725    1.4442    1.0667 C.3       1 <0>         0.1236
      4 C3         -0.0447    0.6240   -0.1520 C.3       1 <0>        -0.0952
      5 C4         -0.7318    1.1574   -1.3827 C.ar      1 <0>        -0.0828
      6 C5         -1.9580    0.6470   -1.7657 C.ar      1 <0>        -0.1128
      7 C6         -2.5905    1.1396   -2.8918 C.ar      1 <0>        -0.1176
      8 C7         -1.9920    2.1355   -3.6407 C.ar      1 <0>        -0.1229
      9 C8         -0.7631    2.6419   -3.2609 C.ar      1 <0>        -0.1192
     10 C9         -0.1331    2.1530   -2.1318 C.ar      1 <0>        -0.1173
     11 C10        -0.3883   -0.0450    2.9935 C.2       1 <0>         0.5590
     12 O1         -1.4049   -0.5785    2.5936 O.2       1 <0>        -0.5301
     13 C11         0.2072   -0.4607    4.2798 C.ar      1 <0>        -0.1380
     14 C12         1.0875    0.3919    4.9506 C.ar      1 <0>        -0.1045
     15 C13         1.6385    0.0053    6.1515 C.ar      1 <0>        -0.1225
     16 C14         1.3257   -1.2413    6.6938 C.ar      1 <0>        -0.0157
     17 C15         0.4508   -2.0957    6.0223 C.ar      1 <0>        -0.1208
     18 C16        -0.1051   -1.7091    4.8237 C.ar      1 <0>        -0.0546
     19 C17         1.9238   -1.6588    7.9848 C.ar      1 <0>        -0.0562
     20 C18         1.6092   -2.9016    8.5323 C.ar      1 <0>        -0.1061
     21 C19         2.1723   -3.2866    9.7319 C.ar      1 <0>        -0.1182
     22 C20         3.0399   -2.4379   10.3958 C.ar      1 <0>        -0.1137
     23 C21         3.3516   -1.2013    9.8599 C.ar      1 <0>        -0.1187
     24 C22         2.7983   -0.8076    8.6585 C.ar      1 <0>        -0.1062
     25 H1          1.3505    2.3493    3.2819 H         1 <0>         0.0655
     26 H2          2.0405    0.7091    3.2366 H         1 <0>         0.0898
     27 H3          2.0714    1.7282    1.7776 H         1 <0>         0.0728
     28 H4         -0.1940    2.4875    0.9185 H         1 <0>         0.0810
     29 H5         -1.5527    1.3709    1.1930 H         1 <0>         0.0866
     30 H6         -0.3232   -0.4193   -0.0038 H         1 <0>         0.0787
     31 H7          1.0355    0.6974   -0.2784 H         1 <0>         0.0732
     32 H8         -2.4237   -0.1340   -1.1829 H         1 <0>         0.1233
     33 H9         -3.5504    0.7437   -3.1887 H         1 <0>         0.1225
     34 H10        -2.4844    2.5178   -4.5226 H         1 <0>         0.1215
     35 H11        -0.2954    3.4198   -3.8462 H         1 <0>         0.1219
     36 H12         0.8271    2.5487   -1.8351 H         1 <0>         0.1206
     37 H13         1.3328    1.3555    4.5290 H         1 <0>         0.1526
     38 H14         2.3162    0.6657    6.6720 H         1 <0>         0.1324
     39 H15         0.2093   -3.0605    6.4431 H         1 <0>         0.1331
     40 H16        -0.7820   -2.3708    4.3038 H         1 <0>         0.1367
     41 H17         0.9291   -3.5635    8.0167 H         1 <0>         0.1269
     42 H18         1.9325   -4.2509   10.1550 H         1 <0>         0.1261
     43 H19         3.4752   -2.7418   11.3363 H         1 <0>         0.1245
     44 H20         4.0290   -0.5425   10.3829 H         1 <0>         0.1260
     45 H21         3.0422    0.1582    8.2412 H         1 <0>         0.1266
@<TRIPOS>BOND
     1    1    2 1
     2    1   25 1
     3    1   26 1
     4    1   27 1
     5    2    3 1
     6    2   11 am
     7    3    4 1
     8    3   28 1
     9    3   29 1
    10    4    5 1
    11    4   30 1
    12    4   31 1
    13    5   10 ar
    14    5    6 ar
    15    6    7 ar
    16    6   32 1
    17    7    8 ar
    18    7   33 1
    19    8    9 ar
    20    8   34 1
    21    9   10 ar
    22    9   35 1
    23   10   36 1
    24   11   12 2
    25   11   13 1
    26   13   18 ar
    27   13   14 ar
    28   14   15 ar
    29   14   37 1
    30   15   16 ar
    31   15   38 1
    32   16   17 ar
    33   16   19 1
    34   17   18 ar
    35   17   39 1
    36   18   40 1
    37   19   24 ar
    38   19   20 ar
    39   20   21 ar
    40   20   41 1
    41   21   22 ar
    42   21   42 1
    43   22   23 ar
    44   22   43 1
    45   23   24 ar
    46   23   44 1
    47   24   45 1
@<TRIPOS>MOLECULE
ZINC03833917
   54    57     0     0     0
SMALL
USER_CHARGES

@<TRIPOS>ATOM
      1 C1         10.3243    1.6350   -3.0294 C.3       1 <0>        -0.1544
      2 C2          9.6668    2.9299   -2.5478 C.3       1 <0>        -0.1167
      3 C3          9.1259    2.7308   -1.1305 C.3       1 <0>        -0.1728
      4 C4          8.4783    4.0062   -0.6562 C.2       1 <0>         0.3722
      5 O1          8.4520    4.9745   -1.3774 O.2       1 <0>        -0.4384
      6 C5          7.8635    4.0733    0.7180 C.3       1 <0>        -0.0624
      7 C6          7.2793    5.4691    0.9476 C.3       1 <0>        -0.1175
      8 C7          6.2295    5.7623   -0.1289 C.3       1 <0>         0.0818
      9 N1          5.2329    4.6828   -0.1240 N.am      1 <0>        -0.6070
     10 C8          5.6959    3.2934   -0.2416 C.3       1 <0>         0.1067
     11 C9          6.7513    3.0281    0.8305 C.3       1 <0>        -0.1159
     12 C10         3.9194    4.9614   -0.0082 C.2       1 <0>         0.5688
     13 O2          3.1135    4.0576    0.1007 O.2       1 <0>        -0.5376
     14 C11         3.4589    6.3643   -0.0137 C.ar      1 <0>        -0.1640
     15 C12         4.0903    7.3055   -0.8391 C.ar      1 <0>        -0.0728
     16 C13         3.6770    8.6044   -0.8552 C.ar      1 <0>        -0.1340
     17 C14         2.6164    9.0135   -0.0488 C.ar      1 <0>         0.1155
     18 C15         1.9738    8.0774    0.7850 C.ar      1 <0>        -0.1205
     19 C16         2.3985    6.7512    0.8001 C.ar      1 <0>        -0.0040
     20 C17         0.9220    8.8170    1.4886 C.2       1 <0>        -0.1937
     21 C18         0.9902   10.0891    1.0668 C.2       1 <0>         0.0486
     22 N2          1.9925   10.2223    0.1444 N.pl3     1 <0>        -0.5921
     23 H1          2.2301   11.0491   -0.3037 H         1 <0>         0.4180
     24 C19         8.9207    3.7947    1.7552 C.ar      1 <0>        -0.0747
     25 C20         9.2217    4.7489    2.7090 C.ar      1 <0>        -0.1126
     26 C21        10.1880    4.4914    3.6633 C.ar      1 <0>        -0.1154
     27 C22        10.8608    3.2839    3.6574 C.ar      1 <0>        -0.1177
     28 C23        10.5635    2.3317    2.7003 C.ar      1 <0>        -0.1154
     29 C24         9.5935    2.5871    1.7492 C.ar      1 <0>        -0.1220
     30 H2         10.7096    1.7768   -4.0391 H         1 <0>         0.0587
     31 H3         11.1446    1.3736   -2.3608 H         1 <0>         0.0551
     32 H4          9.5871    0.8321   -3.0312 H         1 <0>         0.0559
     33 H5          8.8465    3.1913   -3.2164 H         1 <0>         0.0678
     34 H6         10.4039    3.7328   -2.5460 H         1 <0>         0.0676
     35 H7          9.8784    2.4910   -0.5172 H         1 <0>         0.0967
     36 H8          8.3888    1.9279   -1.1324 H         1 <0>         0.0996
     37 H9          8.0760    6.2108    0.8905 H         1 <0>         0.0852
     38 H10         6.8128    5.5114    1.9318 H         1 <0>         0.0786
     39 H11         6.7112    5.8106   -1.1055 H         1 <0>         0.0959
     40 H12         5.7400    6.7126    0.0844 H         1 <0>         0.1013
     41 H13         4.8548    2.6147   -0.1002 H         1 <0>         0.1028
     42 H14         6.1332    3.1362   -1.2276 H         1 <0>         0.0656
     43 H15         7.1721    2.0325    0.6901 H         1 <0>         0.0863
     44 H16         6.2900    3.0924    1.8160 H         1 <0>         0.0847
     45 H17         4.9125    6.9984   -1.4684 H         1 <0>         0.1355
     46 H18         4.1722    9.3188   -1.4962 H         1 <0>         0.1266
     47 H19         1.9095    6.0296    1.4377 H         1 <0>         0.1329
     48 H20         0.2279    8.4159    2.2124 H         1 <0>         0.1507
     49 H21         0.3471   10.8889    1.4031 H         1 <0>         0.1739
     50 H22         8.6991    5.6941    2.7109 H         1 <0>         0.1280
     51 H23        10.4205    5.2355    4.4108 H         1 <0>         0.1242
     52 H24        11.6190    3.0845    4.4003 H         1 <0>         0.1232
     53 H25        11.0894    1.3884    2.6955 H         1 <0>         0.1248
     54 H26         9.3615    1.8434    1.0013 H         1 <0>         0.1287
@<TRIPOS>BOND
     1    1    2 1
     2    1   30 1
     3    1   31 1
     4    1   32 1
     5    2    3 1
     6    2   33 1
     7    2   34 1
     8    3    4 1
     9    3   35 1
    10    3   36 1
    11    4    5 2
    12    4    6 1
    13    6   11 1
    14    6    7 1
    15    6   24 1
    16    7    8 1
    17    7   37 1
    18    7   38 1
    19    8    9 1
    20    8   39 1
    21    8   40 1
    22    9   10 1
    23    9   12 am
    24   10   11 1
    25   10   41 1
    26   10   42 1
    27   11   43 1
    28   11   44 1
    29   12   13 2
    30   12   14 1
    31   14   19 ar
    32   14   15 ar
    33   15   16 ar
    34   15   45 1
    35   16   17 ar
    36   16   46 1
    37   17   22 1
    38   17   18 ar
    39   18   19 ar
    40   18   20 1
    41   19   47 1
    42   20   21 2
    43   20   48 1
    44   21   22 1
    45   21   49 1
    46   22   23 1
    47   24   29 ar
    48   24   25 ar
    49   25   26 ar
    50   25   50 1
    51   26   27 ar
    52   26   51 1
    53   27   28 ar
    54   27   52 1
    55   28   29 ar
    56   28   53 1
    57   29   54 1
@<TRIPOS>MOLECULE
ZINC03833918
   52    55     0     0     0
SMALL
USER_CHARGES

@<TRIPOS>ATOM
      1 C1         -8.0721    5.9250    1.7017 C.ar      1 <0>        -0.0832
      2 C2         -7.0627    5.6923    2.6170 C.ar      1 <0>        -0.1134
      3 C3         -5.9220    6.4731    2.6014 C.ar      1 <0>        -0.0972
      4 C4         -5.7909    7.4868    1.6708 C.ar      1 <0>        -0.1628
      5 C5         -6.8028    7.7232    0.7591 C.ar      1 <0>        -0.0934
      6 C6         -7.9412    6.9391    0.7714 C.ar      1 <0>        -0.1128
      7 C7         -4.5476    8.3382    1.6541 C.3       1 <0>         0.0484
      8 C8         -2.2458    8.3933    0.9049 C.3       1 <0>        -0.0135
      9 C9         -1.2848    7.8531   -0.1594 C.3       1 <0>         0.0878
     10 N1         -1.2484    6.3865   -0.0549 N.am      1 <0>        -0.6306
     11 C10        -2.5256    5.6570   -0.0539 C.3       1 <0>         0.0706
     12 C11        -3.4380    6.2841    1.0122 C.3       1 <0>        -0.0229
     13 C12        -0.0757    5.7280    0.0321 C.2       1 <0>         0.5743
     14 O1          0.9639    6.3493    0.1379 O.2       1 <0>        -0.5050
     15 C13        -0.0535    4.2513   -0.0011 C.ar      1 <0>        -0.1524
     16 C14         0.9083    3.5501    0.7304 C.ar      1 <0>        -0.0503
     17 C15         0.9283    2.1739    0.6984 C.ar      1 <0>        -0.1155
     18 C16        -0.0110    1.4797   -0.0644 C.ar      1 <0>         0.0021
     19 C17        -0.9682    2.1791   -0.7998 C.ar      1 <0>        -0.1192
     20 C18        -0.9940    3.5551   -0.7643 C.ar      1 <0>        -0.0964
     21 C19         0.0119   -0.0025   -0.0985 C.ar      1 <0>        -0.0704
     22 C20         0.9742   -0.7043    0.6260 C.ar      1 <0>        -0.1015
     23 C21         0.9873   -2.0839    0.5947 C.ar      1 <0>        -0.1170
     24 C22         0.0546   -2.7701   -0.1620 C.ar      1 <0>        -0.1047
     25 C23        -0.8991   -2.0789   -0.8876 C.ar      1 <0>        -0.1185
     26 C24        -0.9252   -0.6994   -0.8597 C.ar      1 <0>        -0.1028
     27 H1         -8.9631    5.3149    1.7137 H         1 <0>         0.1362
     28 H2         -7.1650    4.9003    3.3441 H         1 <0>         0.1365
     29 H3         -5.1334    6.2913    3.3166 H         1 <0>         0.1305
     30 H4         -6.7023    8.5180    0.0349 H         1 <0>         0.1314
     31 H5         -8.7300    7.1211    0.0565 H         1 <0>         0.1364
     32 H6         -4.1422    8.4091    2.6634 H         1 <0>         0.1370
     33 H7         -4.7952    9.3357    1.2911 H         1 <0>         0.1367
     34 H8         -1.8393    8.1945    1.8965 H         1 <0>         0.1359
     35 H9         -2.3701    9.4679    0.7710 H         1 <0>         0.1437
     36 H10        -0.2866    8.2571    0.0097 H         1 <0>         0.1378
     37 H11        -1.6331    8.1410   -1.1513 H         1 <0>         0.0966
     38 H12        -2.9942    5.7379   -1.0348 H         1 <0>         0.0982
     39 H13        -2.3482    4.6084    0.1849 H         1 <0>         0.1436
     40 H14        -3.0149    6.1147    2.0023 H         1 <0>         0.1348
     41 H15        -4.4269    5.8291    0.9565 H         1 <0>         0.1448
     42 H16         1.6360    4.0873    1.3204 H         1 <0>         0.1379
     43 H17         1.6717    1.6316    1.2638 H         1 <0>         0.1389
     44 H18        -1.6921    1.6407   -1.3935 H         1 <0>         0.1370
     45 H19        -1.7377    4.0962   -1.3304 H         1 <0>         0.1338
     46 H20         1.7054   -0.1694    1.2139 H         1 <0>         0.1275
     47 H21         1.7295   -2.6287    1.1592 H         1 <0>         0.1295
     48 H22         0.0712   -3.8497   -0.1868 H         1 <0>         0.1282
     49 H23        -1.6244   -2.6199   -1.4772 H         1 <0>         0.1287
     50 H24        -1.6700   -0.1608   -1.4268 H         1 <0>         0.1258
     51 N2         -3.5586    7.7326    0.7384 N.4       1 <0>        -0.3933
     52 H25        -3.8765    7.8631   -0.2292 H         1 <0>         0.4264
@<TRIPOS>BOND
     1    1    6 ar
     2    1    2 ar
     3    1   27 1
     4    2    3 ar
     5    2   28 1
     6    3    4 ar
     7    3   29 1
     8    4    5 ar
     9    4    7 1
    10    5    6 ar
    11    5   30 1
    12    6   31 1
    13    7   32 1
    14    7   33 1
    15    7   51 1
    16    8    9 1
    17    8   34 1
    18    8   35 1
    19    8   51 1
    20    9   10 1
    21    9   36 1
    22    9   37 1
    23   10   11 1
    24   10   13 am
    25   11   12 1
    26   11   38 1
    27   11   39 1
    28   12   40 1
    29   12   41 1
    30   12   51 1
    31   13   14 2
    32   13   15 1
    33   15   20 ar
    34   15   16 ar
    35   16   17 ar
    36   16   42 1
    37   17   18 ar
    38   17   43 1
    39   18   19 ar
    40   18   21 1
    41   19   20 ar
    42   19   44 1
    43   20   45 1
    44   21   26 ar
    45   21   22 ar
    46   22   23 ar
    47   22   46 1
    48   23   24 ar
    49   23   47 1
    50   24   25 ar
    51   24   48 1
    52   25   26 ar
    53   25   49 1
    54   26   50 1
    55   51   52 1
@<TRIPOS>MOLECULE
ZINC03833919
   45    48     0     0     0
SMALL
USER_CHARGES

@<TRIPOS>ATOM
      1 C1          1.2028   -0.2933    4.6498 C.3       1 <0>         0.0254
      2 O1          0.3235    0.8157    4.8472 O.3       1 <0>        -0.3057
      3 C2         -0.1253    1.4537    3.7332 C.ar      1 <0>         0.1062
      4 C3          0.2696    1.0240    2.4800 C.ar      1 <0>        -0.1743
      5 C4         -0.1853    1.6683    1.3347 C.ar      1 <0>        -0.0633
      6 C5         -1.0413    2.7403    1.4513 C.ar      1 <0>        -0.0950
      7 C6         -1.4376    3.1784    2.7078 C.ar      1 <0>        -0.1664
      8 C7         -0.9847    2.5421    3.8491 C.ar      1 <0>         0.1023
      9 O2         -1.3768    2.9769    5.0766 O.3       1 <0>        -0.3053
     10 C8         -2.2604    4.0994    5.1154 C.3       1 <0>         0.0252
     11 C9         -1.5824    3.4745    0.2499 C.3       1 <0>         0.1457
     12 N1         -0.8613    3.0498   -0.9547 N.am      1 <0>        -0.6101
     13 C10        -0.6208    1.6071   -1.1242 C.3       1 <0>         0.1129
     14 C11         0.2988    1.1486    0.0064 C.3       1 <0>        -0.0938
     15 C12        -0.4365    3.9437   -1.8695 C.2       1 <0>         0.5724
     16 O3          0.2520    3.5783   -2.8024 O.2       1 <0>        -0.5332
     17 C13        -0.8074    5.3669   -1.7385 C.ar      1 <0>        -0.1607
     18 C14         0.0876    6.3647   -2.1499 C.ar      1 <0>        -0.0453
     19 C15        -0.2402    7.6829   -2.0355 C.ar      1 <0>        -0.1332
     20 C16        -1.4741    8.0559   -1.5055 C.ar      1 <0>         0.1171
     21 C17        -2.3821    7.0629   -1.0886 C.ar      1 <0>        -0.1207
     22 C18        -2.0472    5.7167   -1.2122 C.ar      1 <0>        -0.0368
     23 C19        -3.5614    7.7764   -0.5901 C.2       1 <0>        -0.1972
     24 C20        -3.3114    9.0876   -0.7272 C.2       1 <0>         0.0511
     25 N2         -2.0696    9.2719   -1.2722 N.pl3     1 <0>        -0.5926
     26 H1         -1.6690   10.1340   -1.4656 H         1 <0>         0.4185
     27 H2          0.6975   -1.0569    4.0585 H         1 <0>         0.0556
     28 H3          2.0969    0.0411    4.1236 H         1 <0>         0.0553
     29 H4          1.4847   -0.7101    5.6167 H         1 <0>         0.1018
     30 H5          0.9367    0.1795    2.3897 H         1 <0>         0.1362
     31 H6         -2.1048    4.0232    2.7946 H         1 <0>         0.1377
     32 H7         -2.4939    4.3423    6.1521 H         1 <0>         0.1015
     33 H8         -1.7812    4.9556    4.6407 H         1 <0>         0.0554
     34 H9         -3.1800    3.8565    4.5832 H         1 <0>         0.0558
     35 H10        -1.4519    4.5474    0.3914 H         1 <0>         0.1055
     36 H11        -2.6431    3.2508    0.1355 H         1 <0>         0.0834
     37 H12        -0.1424    1.4235   -2.0862 H         1 <0>         0.1007
     38 H13        -1.5658    1.0663   -1.0733 H         1 <0>         0.0771
     39 H14         0.3180    0.0591    0.0332 H         1 <0>         0.0875
     40 H15         1.3066    1.5204   -0.1783 H         1 <0>         0.0825
     41 H16         1.0462    6.0861   -2.5620 H         1 <0>         0.1354
     42 H17         0.4589    8.4410   -2.3564 H         1 <0>         0.1275
     43 H18        -2.7415    4.9513   -0.8985 H         1 <0>         0.1338
     44 H19        -4.4601    7.3316   -0.1890 H         1 <0>         0.1504
     45 H20        -3.9899    9.8804   -0.4487 H         1 <0>         0.1737
@<TRIPOS>BOND
     1    1    2 1
     2    1   27 1
     3    1   28 1
     4    1   29 1
     5    2    3 1
     6    3    8 ar
     7    3    4 ar
     8    4    5 ar
     9    4   30 1
    10    5   14 1
    11    5    6 ar
    12    6    7 ar
    13    6   11 1
    14    7    8 ar
    15    7   31 1
    16    8    9 1
    17    9   10 1
    18   10   32 1
    19   10   33 1
    20   10   34 1
    21   11   12 1
    22   11   35 1
    23   11   36 1
    24   12   13 1
    25   12   15 am
    26   13   14 1
    27   13   37 1
    28   13   38 1
    29   14   39 1
    30   14   40 1
    31   15   16 2
    32   15   17 1
    33   17   22 ar
    34   17   18 ar
    35   18   19 ar
    36   18   41 1
    37   19   20 ar
    38   19   42 1
    39   20   25 1
    40   20   21 ar
    41   21   22 ar
    42   21   23 1
    43   22   43 1
    44   23   24 2
    45   23   44 1
    46   24   25 1
    47   24   45 1
    48   25   26 1
@<TRIPOS>MOLECULE
ZINC03833920
   37    40     0     0     0
SMALL
USER_CHARGES

@<TRIPOS>ATOM
      1 C1          8.7233    2.6982    3.0642 C.ar      1 <0>        -0.1166
      2 C2          8.1638    1.6244    2.3967 C.ar      1 <0>        -0.1201
      3 C3          7.1972    1.8438    1.4371 C.ar      1 <0>        -0.1119
      4 C4          6.7816    3.1342    1.1375 C.ar      1 <0>        -0.0978
      5 C5          7.3323    4.2040    1.8066 C.ar      1 <0>        -0.0692
      6 C6          8.3090    3.9802    2.7697 C.ar      1 <0>        -0.1195
      7 C7          6.9204    5.6294    1.5484 C.3       1 <0>        -0.0977
      8 C8          6.2376    5.7602    0.1824 C.3       1 <0>         0.1117
      9 N1          5.2357    4.6861    0.0801 N.am      1 <0>        -0.6092
     10 C9          5.7284    3.3045    0.0716 C.3       1 <0>         0.1399
     11 C10         3.9193    4.9615   -0.0080 C.2       1 <0>         0.5721
     12 O1          3.5423    6.1159   -0.0652 O.2       1 <0>        -0.5326
     13 C11         2.9351    3.8611   -0.0349 C.ar      1 <0>        -0.1567
     14 C12         1.7788    3.9361    0.7544 C.ar      1 <0>        -0.0491
     15 C13         0.8612    2.9281    0.7410 C.ar      1 <0>        -0.1306
     16 C14         1.0623    1.8066   -0.0615 C.ar      1 <0>         0.1148
     17 C15         2.2201    1.7192   -0.8592 C.ar      1 <0>        -0.1182
     18 C16         3.1562    2.7503   -0.8434 C.ar      1 <0>        -0.0372
     19 C17         2.1279    0.4395   -1.5678 C.2       1 <0>        -0.1975
     20 C18         0.9850   -0.1434   -1.1741 C.2       1 <0>         0.0515
     21 N2          0.3339    0.6621   -0.2795 N.pl3     1 <0>        -0.5927
     22 H1         -0.5147    0.4539    0.1417 H         1 <0>         0.4183
     23 H2          9.4829    2.5335    3.8140 H         1 <0>         0.1231
     24 H3          8.4820    0.6180    2.6258 H         1 <0>         0.1242
     25 H4          6.7604    1.0054    0.9151 H         1 <0>         0.1243
     26 H5          8.7471    4.8177    3.2923 H         1 <0>         0.1223
     27 H6          6.2301    5.9500    2.3287 H         1 <0>         0.0818
     28 H7          7.8042    6.2671    1.5676 H         1 <0>         0.0881
     29 H8          6.9754    5.6533   -0.6128 H         1 <0>         0.0766
     30 H9          5.7474    6.7305    0.1037 H         1 <0>         0.1012
     31 H10         4.9005    2.6230    0.2676 H         1 <0>         0.1069
     32 H11         6.1597    3.0792   -0.9037 H         1 <0>         0.0831
     33 H12         1.6135    4.8012    1.3795 H         1 <0>         0.1335
     34 H13        -0.0253    2.9993    1.3538 H         1 <0>         0.1275
     35 H14         4.0457    2.6881   -1.4527 H         1 <0>         0.1313
     36 H15         2.8454    0.0395   -2.2689 H         1 <0>         0.1505
     37 H16         0.6301   -1.1047   -1.5150 H         1 <0>         0.1738
@<TRIPOS>BOND
     1    1    6 ar
     2    1    2 ar
     3    1   23 1
     4    2    3 ar
     5    2   24 1
     6    3    4 ar
     7    3   25 1
     8    4   10 1
     9    4    5 ar
    10    5    6 ar
    11    5    7 1
    12    6   26 1
    13    7    8 1
    14    7   27 1
    15    7   28 1
    16    8    9 1
    17    8   29 1
    18    8   30 1
    19    9   10 1
    20    9   11 am
    21   10   31 1
    22   10   32 1
    23   11   12 2
    24   11   13 1
    25   13   18 ar
    26   13   14 ar
    27   14   15 ar
    28   14   33 1
    29   15   16 ar
    30   15   34 1
    31   16   21 1
    32   16   17 ar
    33   17   18 ar
    34   17   19 1
    35   18   35 1
    36   19   20 2
    37   19   36 1
    38   20   21 1
    39   20   37 1
    40   21   22 1
@<TRIPOS>MOLECULE
ZINC03833921
   46    49     0     0     0
SMALL
USER_CHARGES

@<TRIPOS>ATOM
      1 C1         10.0746   -0.1449   -1.6852 C.ar      1 <0>        -0.0837
      2 C2          9.1621    0.3458   -2.6003 C.ar      1 <0>        -0.1137
      3 C3          8.8162    1.6840   -2.5819 C.ar      1 <0>        -0.0969
      4 C4          9.3831    2.5317   -1.6487 C.ar      1 <0>        -0.1621
      5 C5         10.3000    2.0422   -0.7373 C.ar      1 <0>        -0.0934
      6 C6         10.6419    0.7029   -0.7523 C.ar      1 <0>        -0.1131
      7 C7          9.0064    3.9907   -1.6290 C.3       1 <0>         0.0483
      8 C8          7.3078    5.5442   -0.8778 C.3       1 <0>        -0.0135
      9 C9          6.2275    5.7668    0.1859 C.3       1 <0>         0.0880
     10 N1          5.2357    4.6860    0.0779 N.am      1 <0>        -0.6315
     11 C10         5.7182    3.2966    0.0741 C.3       1 <0>         0.0723
     12 C11         6.8190    3.1715   -0.9911 C.3       1 <0>        -0.0231
     13 C12         3.9193    4.9614   -0.0098 C.2       1 <0>         0.5795
     14 O1          3.5448    6.1135   -0.1133 O.2       1 <0>        -0.5100
     15 C13         2.9319    3.8640    0.0198 C.ar      1 <0>        -0.1831
     16 C14         3.1830    2.7163    0.7851 C.ar      1 <0>        -0.0890
     17 C15         2.2811    1.6949    0.8230 C.ar      1 <0>        -0.1255
     18 C16         1.0936    1.7799    0.0983 C.ar      1 <0>         0.1201
     19 C17         0.8296    2.9278   -0.6744 C.ar      1 <0>        -0.1181
     20 C18         1.7528    3.9699   -0.7114 C.ar      1 <0>         0.0076
     21 C19        -0.4768    2.7030   -1.2998 C.2       1 <0>        -0.1926
     22 C20        -0.9008    1.4958   -0.8954 C.2       1 <0>         0.0580
     23 N2          0.0223    0.9335   -0.0559 N.pl3     1 <0>        -0.5876
     24 H1         -0.0650    0.0639    0.3648 H         1 <0>         0.4220
     25 H2         10.3446   -1.1905   -1.6993 H         1 <0>         0.1359
     26 H3          8.7191   -0.3165   -3.3294 H         1 <0>         0.1362
     27 H4          8.1032    2.0674   -3.2969 H         1 <0>         0.1306
     28 H5         10.7462    2.7054   -0.0110 H         1 <0>         0.1313
     29 H6         11.3551    0.3197   -0.0375 H         1 <0>         0.1362
     30 H7          8.7486    4.3131   -2.6378 H         1 <0>         0.1368
     31 H8          9.8485    4.5785   -1.2637 H         1 <0>         0.1363
     32 H9          6.8719    5.6641   -1.8696 H         1 <0>         0.1357
     33 H10         8.1077    6.2720   -0.7417 H         1 <0>         0.1428
     34 H11         5.7414    6.7279    0.0186 H         1 <0>         0.1374
     35 H12         6.6782    5.7523    1.1783 H         1 <0>         0.0953
     36 H13         6.1234    3.0471    1.0548 H         1 <0>         0.0965
     37 H14         4.8952    2.6239   -0.1671 H         1 <0>         0.1450
     38 H15         6.3898    3.3245   -1.9814 H         1 <0>         0.1346
     39 H16         7.2647    2.1783   -0.9374 H         1 <0>         0.1436
     40 H17         4.1002    2.6408    1.3502 H         1 <0>         0.1330
     41 H18         2.4872    0.8168    1.4170 H         1 <0>         0.1302
     42 H19         1.5554    4.8519   -1.3025 H         1 <0>         0.1362
     43 H20        -0.9969    3.3783   -1.9631 H         1 <0>         0.1552
     44 H21        -1.8338    1.0368   -1.1873 H         1 <0>         0.1794
     45 N3          7.8622    4.1828   -0.7140 N.4       1 <0>        -0.3932
     46 H22         8.1865    4.0697    0.2537 H         1 <0>         0.4261
@<TRIPOS>BOND
     1    1    6 ar
     2    1    2 ar
     3    1   25 1
     4    2    3 ar
     5    2   26 1
     6    3    4 ar
     7    3   27 1
     8    4    5 ar
     9    4    7 1
    10    5    6 ar
    11    5   28 1
    12    6   29 1
    13    7   30 1
    14    7   31 1
    15    7   45 1
    16    8    9 1
    17    8   32 1
    18    8   33 1
    19    8   45 1
    20    9   10 1
    21    9   34 1
    22    9   35 1
    23   10   11 1
    24   10   13 am
    25   11   12 1
    26   11   36 1
    27   11   37 1
    28   12   38 1
    29   12   39 1
    30   12   45 1
    31   13   14 2
    32   13   15 1
    33   15   20 ar
    34   15   16 ar
    35   16   17 ar
    36   16   40 1
    37   17   18 ar
    38   17   41 1
    39   18   23 1
    40   18   19 ar
    41   19   20 ar
    42   19   21 1
    43   20   42 1
    44   21   22 2
    45   21   43 1
    46   22   23 1
    47   22   44 1
    48   23   24 1
    49   45   46 1
@<TRIPOS>MOLECULE
ZINC03833922
   56    60     0     0     0
SMALL
USER_CHARGES

@<TRIPOS>ATOM
      1 C1          1.9327    3.3732    0.2290 C.ar      1 <0>        -0.0921
      2 C2          2.9337    2.4266    0.3420 C.ar      1 <0>        -0.1032
      3 C3          2.6155    1.0814    0.3472 C.ar      1 <0>        -0.0865
      4 C4          1.2963    0.6828    0.2389 C.ar      1 <0>        -0.1323
      5 C5          0.2958    1.6292    0.1201 C.ar      1 <0>        -0.1224
      6 C6          0.6135    2.9746    0.1203 C.ar      1 <0>        -0.1020
      7 C7          0.9494   -0.7838    0.2441 C.3       1 <0>         0.1372
      8 C8          0.7195   -1.2506   -1.1702 C.ar      1 <0>        -0.1329
      9 C9         -0.4919   -1.0071   -1.7901 C.ar      1 <0>        -0.1223
     10 C10        -0.7011   -1.4310   -3.0891 C.ar      1 <0>        -0.1013
     11 C11         0.2974   -2.1073   -3.7647 C.ar      1 <0>        -0.0921
     12 C12         1.5067   -2.3558   -3.1428 C.ar      1 <0>        -0.1030
     13 C13         1.7178   -1.9273   -1.8456 C.ar      1 <0>        -0.0867
     14 C14        -0.1180   -0.4584    2.3929 C.3       1 <0>        -0.0193
     15 C15        -1.4632   -0.5344    3.1229 C.3       1 <0>         0.0753
     16 N1         -1.9550   -1.9188    3.0531 N.am      1 <0>        -0.6291
     17 C16        -2.0067   -2.5734    1.7370 C.3       1 <0>         0.0907
     18 C17        -0.6401   -2.4171    1.0616 C.3       1 <0>        -0.0166
     19 C18        -2.3483   -2.5701    4.1656 C.2       1 <0>         0.5798
     20 O1         -2.8173   -3.6886    4.0814 O.2       1 <0>        -0.5048
     21 C19        -2.2096   -1.9252    5.4866 C.ar      1 <0>        -0.1695
     22 C20        -1.6096   -2.6206    6.5459 C.ar      1 <0>        -0.0533
     23 C21        -1.4686   -2.0366    7.7696 C.ar      1 <0>        -0.1217
     24 C22        -1.9326   -0.7404    7.9864 C.ar      1 <0>         0.1197
     25 C23        -2.5425   -0.0333    6.9316 C.ar      1 <0>        -0.1162
     26 C24        -2.6796   -0.6300    5.6807 C.ar      1 <0>        -0.0407
     27 C25        -2.9103    1.2750    7.4807 C.2       1 <0>        -0.2010
     28 C26        -2.5225    1.2823    8.7653 C.2       1 <0>         0.0620
     29 N2         -1.9370    0.0868    9.0834 N.pl3     1 <0>        -0.5891
     30 H1         -1.5781   -0.1427    9.9549 H         1 <0>         0.4226
     31 H2          2.1813    4.4242    0.2253 H         1 <0>         0.1360
     32 H3          3.9644    2.7380    0.4265 H         1 <0>         0.1372
     33 H4          3.3976    0.3418    0.4354 H         1 <0>         0.1329
     34 H5         -0.7344    1.3177    0.0311 H         1 <0>         0.1147
     35 H6         -0.1685    3.7141    0.0316 H         1 <0>         0.1358
     36 H7          1.7703   -1.3497    0.6846 H         1 <0>         0.1497
     37 H8         -1.2735   -0.4823   -1.2608 H         1 <0>         0.1142
     38 H9         -1.6460   -1.2372   -3.5748 H         1 <0>         0.1358
     39 H10         0.1326   -2.4418   -4.7783 H         1 <0>         0.1362
     40 H11         2.2867   -2.8845   -3.6705 H         1 <0>         0.1373
     41 H12         2.6626   -2.1214   -1.3598 H         1 <0>         0.1329
     42 H13         0.6236   -1.0453    2.9348 H         1 <0>         0.1384
     43 H14         0.2083    0.5802    2.3389 H         1 <0>         0.1439
     44 H15        -2.1787    0.1330    2.6426 H         1 <0>         0.0963
     45 H16        -1.3342   -0.2438    4.1655 H         1 <0>         0.1425
     46 H17        -2.7744   -2.1020    1.1235 H         1 <0>         0.0943
     47 H18        -2.2338   -3.6320    1.8632 H         1 <0>         0.1384
     48 H19        -0.6925   -2.7990    0.0420 H         1 <0>         0.1431
     49 H20         0.1090   -2.9768    1.6216 H         1 <0>         0.1379
     50 H21        -1.2510   -3.6272    6.3895 H         1 <0>         0.1343
     51 H22        -1.0004   -2.5823    8.5755 H         1 <0>         0.1319
     52 H23        -3.1461   -0.0921    4.8686 H         1 <0>         0.1294
     53 H24        -3.4000    2.0795    6.9522 H         1 <0>         0.1528
     54 H25        -2.6531    2.1094    9.4474 H         1 <0>         0.1780
     55 N3         -0.2927   -0.9800    1.0199 N.4       1 <0>        -0.3927
     56 H26        -1.0556   -0.4663    0.5633 H         1 <0>         0.4195
@<TRIPOS>BOND
     1    1    6 ar
     2    1    2 ar
     3    1   31 1
     4    2    3 ar
     5    2   32 1
     6    3    4 ar
     7    3   33 1
     8    4    5 ar
     9    4    7 1
    10    5    6 ar
    11    5   34 1
    12    6   35 1
    13    7    8 1
    14    7   36 1
    15    7   55 1
    16    8   13 ar
    17    8    9 ar
    18    9   10 ar
    19    9   37 1
    20   10   11 ar
    21   10   38 1
    22   11   12 ar
    23   11   39 1
    24   12   13 ar
    25   12   40 1
    26   13   41 1
    27   14   15 1
    28   14   42 1
    29   14   43 1
    30   14   55 1
    31   15   16 1
    32   15   44 1
    33   15   45 1
    34   16   17 1
    35   16   19 am
    36   17   18 1
    37   17   46 1
    38   17   47 1
    39   18   48 1
    40   18   49 1
    41   18   55 1
    42   19   20 2
    43   19   21 1
    44   21   26 ar
    45   21   22 ar
    46   22   23 ar
    47   22   50 1
    48   23   24 ar
    49   23   51 1
    50   24   29 1
    51   24   25 ar
    52   25   26 ar
    53   25   27 1
    54   26   52 1
    55   27   28 2
    56   27   53 1
    57   28   29 1
    58   28   54 1
    59   29   30 1
    60   55   56 1
@<TRIPOS>MOLECULE
ZINC03833923
   42    45     0     0     0
SMALL
USER_CHARGES

@<TRIPOS>ATOM
      1 C1          3.0939    1.7421   -3.3272 C.ar      1 <0>         0.0365
      2 C2          4.4622    1.7881   -3.0934 C.ar      1 <0>        -0.1479
      3 C3          4.9966    2.8663   -2.4173 C.ar      1 <0>         0.1470
      4 C4          2.9153    3.8371   -2.1873 C.ar      1 <0>         0.3690
      5 C5          2.3094    2.7814   -2.8615 C.ar      1 <0>        -0.1517
      6 N1          2.1395    4.8906   -1.7180 N.pl3     1 <0>        -0.4749
      7 C6          1.3573    5.4936   -2.8055 C.3       1 <0>         0.0377
      8 C7          0.3859    6.5244   -2.2207 C.3       1 <0>         0.0985
      9 N2          1.1522    7.4774   -1.4033 N.am      1 <0>        -0.6220
     10 C8          2.0646    6.9415   -0.3818 C.3       1 <0>         0.1204
     11 C9          2.9699    5.8942   -1.0390 C.3       1 <0>         0.0043
     12 C10         1.0213    8.8064   -1.5853 C.2       1 <0>         0.5755
     13 O1          1.6087    9.5807   -0.8548 O.2       1 <0>        -0.5176
     14 C11         0.1647    9.3220   -2.6718 C.ar      1 <0>        -0.1720
     15 C12        -1.1381    8.8286   -2.8307 C.ar      1 <0>        -0.0810
     16 C13        -1.9433    9.2990   -3.8250 C.ar      1 <0>        -0.1247
     17 C14        -1.4746   10.2712   -4.7068 C.ar      1 <0>         0.1158
     18 C15        -0.1655   10.7708   -4.5612 C.ar      1 <0>        -0.1161
     19 C16         0.6529   10.2930   -3.5407 C.ar      1 <0>        -0.0060
     20 C17         0.0109   11.7607   -5.6277 C.2       1 <0>        -0.1960
     21 C18        -1.1391   11.7998   -6.3183 C.2       1 <0>         0.0572
     22 N3         -2.0365   10.9167   -5.7817 N.pl3     1 <0>        -0.5892
     23 H1         -2.9366   10.7684   -6.1116 H         1 <0>         0.4212
     24 H2          2.6520    0.9114   -3.8574 H         1 <0>         0.1792
     25 H3          5.1021    0.9906   -3.4409 H         1 <0>         0.1871
     26 H4          6.0606    2.9082   -2.2372 H         1 <0>         0.1972
     27 H5          1.2415    2.7760   -3.0228 H         1 <0>         0.1869
     28 H6          2.0301    5.9854   -3.5080 H         1 <0>         0.0763
     29 H7          0.7949    4.7166   -3.3231 H         1 <0>         0.1168
     30 H8         -0.3528    6.0195   -1.5983 H         1 <0>         0.0918
     31 H9         -0.1175    7.0565   -3.0279 H         1 <0>         0.1232
     32 H10         1.4872    6.4766    0.4173 H         1 <0>         0.0902
     33 H11         2.6741    7.7471    0.0277 H         1 <0>         0.1175
     34 H12         3.5770    5.4077   -0.2755 H         1 <0>         0.1057
     35 H13         3.6203    6.3804   -1.7661 H         1 <0>         0.0770
     36 H14        -1.5091    8.0718   -2.1554 H         1 <0>         0.1316
     37 H15        -2.9462    8.9132   -3.9330 H         1 <0>         0.1300
     38 H16         1.6571   10.6730   -3.4245 H         1 <0>         0.1310
     39 H17         0.8972   12.3468   -5.8209 H         1 <0>         0.1530
     40 H18        -1.3284   12.4343   -7.1715 H         1 <0>         0.1778
     41 N4          4.2571    3.9075   -1.9500 N.ar      1 <0>        -0.5251
     42 H19         4.6819    4.6972   -1.4499 H         1 <0>         0.4688
@<TRIPOS>BOND
     1    1    5 ar
     2    1    2 ar
     3    1   24 1
     4    2    3 ar
     5    2   25 1
     6    3   26 1
     7    3   41 ar
     8    4    5 ar
     9    4    6 1
    10    4   41 ar
    11    5   27 1
    12    6   11 1
    13    6    7 1
    14    7    8 1
    15    7   28 1
    16    7   29 1
    17    8    9 1
    18    8   30 1
    19    8   31 1
    20    9   10 1
    21    9   12 am
    22   10   11 1
    23   10   32 1
    24   10   33 1
    25   11   34 1
    26   11   35 1
    27   12   13 2
    28   12   14 1
    29   14   19 ar
    30   14   15 ar
    31   15   16 ar
    32   15   36 1
    33   16   17 ar
    34   16   37 1
    35   17   22 1
    36   17   18 ar
    37   18   19 ar
    38   18   20 1
    39   19   38 1
    40   20   21 2
    41   20   39 1
    42   21   22 1
    43   21   40 1
    44   22   23 1
    45   41   42 1
@<TRIPOS>MOLECULE
ZINC03833924
   27    29     0     0     0
SMALL
USER_CHARGES

@<TRIPOS>ATOM
      1 C1          1.1616   -0.3914    1.3207 C.ar      1 <0>        -0.1808
      2 C2         -0.0425    0.2524    1.0963 C.ar      1 <0>        -0.0418
      3 C3         -0.0429    1.3961    0.2878 C.ar      1 <0>        -0.2063
      4 C4          1.1652    1.8378   -0.2560 C.ar      1 <0>         0.1534
      5 N1          2.2852    1.1902   -0.0123 N.ar      1 <0>        -0.4873
      6 C5          2.3153    0.1102    0.7455 C.ar      1 <0>         0.1225
      7 C6         -1.2993    2.1265    0.0198 C.2       1 <0>         0.4485
      8 O1         -1.2838    3.3351   -0.1106 O.2       1 <0>        -0.4465
      9 C7         -2.5725    1.3889   -0.0895 C.ar      1 <0>        -0.1957
     10 C8         -2.5711   -0.0141   -0.1031 C.ar      1 <0>        -0.0667
     11 C9         -3.7393   -0.7093   -0.1986 C.ar      1 <0>        -0.1376
     12 C10        -4.9539   -0.0318   -0.2951 C.ar      1 <0>         0.1234
     13 C11        -4.9687    1.3772   -0.2880 C.ar      1 <0>        -0.1269
     14 C12        -3.7747    2.0857   -0.1849 C.ar      1 <0>         0.0059
     15 C13        -6.3770    1.7677   -0.4018 C.2       1 <0>        -0.1909
     16 C14        -7.0922    0.6342   -0.4675 C.2       1 <0>         0.0482
     17 N2         -6.2580   -0.4490   -0.4051 N.pl3     1 <0>        -0.5906
     18 H1         -6.5453   -1.3750   -0.4338 H         1 <0>         0.4190
     19 H2          1.2003   -1.2760    1.9392 H         1 <0>         0.1440
     20 H3         -0.9582   -0.1173    1.5336 H         1 <0>         0.1482
     21 H4          1.1808    2.7181   -0.8814 H         1 <0>         0.1650
     22 H5          3.2564   -0.3901    0.9198 H         1 <0>         0.1623
     23 H6         -1.6352   -0.5485   -0.0330 H         1 <0>         0.1380
     24 H7         -3.7238   -1.7892   -0.2034 H         1 <0>         0.1275
     25 H8         -3.7806    3.1657   -0.1786 H         1 <0>         0.1376
     26 H9         -6.7649    2.7753   -0.4275 H         1 <0>         0.1523
     27 H10        -8.1674    0.5841   -0.5564 H         1 <0>         0.1754
@<TRIPOS>BOND
     1    1    6 ar
     2    1    2 ar
     3    1   19 1
     4    2    3 ar
     5    2   20 1
     6    3    4 ar
     7    3    7 1
     8    4    5 ar
     9    4   21 1
    10    5    6 ar
    11    6   22 1
    12    7    8 2
    13    7    9 1
    14    9   14 ar
    15    9   10 ar
    16   10   11 ar
    17   10   23 1
    18   11   12 ar
    19   11   24 1
    20   12   17 1
    21   12   13 ar
    22   13   14 ar
    23   13   15 1
    24   14   25 1
    25   15   16 2
    26   15   26 1
    27   16   17 1
    28   16   27 1
    29   17   18 1
@<TRIPOS>MOLECULE
ZINC03833925
   45    48     0     0     0
SMALL
USER_CHARGES

@<TRIPOS>ATOM
      1 C1         -2.5327   -4.0542    0.9152 C.ar      1 <0>        -0.0480
      2 C2         -1.2300   -4.3894    1.2150 C.ar      1 <0>        -0.1219
      3 C3         -0.3072   -3.3994    1.5124 C.ar      1 <0>        -0.0055
      4 C4         -0.6862   -2.0666    1.5108 C.ar      1 <0>        -0.1228
      5 C5         -1.9856   -1.7166    1.2138 C.ar      1 <0>        -0.0606
      6 C6         -2.9214   -2.7103    0.9069 C.ar      1 <0>        -0.1669
      7 C7         -4.3085   -2.3442    0.5824 C.2       1 <0>         0.4005
      8 O1         -5.1184   -3.2082    0.3212 O.2       1 <0>        -0.4391
      9 C8         -4.7233   -0.8955    0.5745 C.3       1 <0>        -0.1223
     10 C9         -5.0959   -0.4641    1.9948 C.3       1 <0>        -0.1259
     11 C10        -5.4834    1.0180    1.9889 C.3       1 <0>         0.0997
     12 N1         -6.5476    1.2244    0.9971 N.am      1 <0>        -0.6092
     13 C11        -6.3284    0.7632   -0.3806 C.3       1 <0>         0.1124
     14 C12        -5.9311   -0.7159   -0.3481 C.3       1 <0>        -0.1240
     15 C13        -7.7027    1.8257    1.3444 C.2       1 <0>         0.5693
     16 O2         -8.5472    2.0535    0.5000 O.2       1 <0>        -0.5319
     17 C14        -7.9425    2.2078    2.7503 C.ar      1 <0>        -0.1594
     18 C15        -6.9800    2.9511    3.4481 C.ar      1 <0>        -0.0743
     19 C16        -7.1895    3.3168    4.7445 C.ar      1 <0>        -0.1302
     20 C17        -8.3625    2.9439    5.3982 C.ar      1 <0>         0.1120
     21 C18        -9.3348    2.1920    4.7098 C.ar      1 <0>        -0.1164
     22 C19        -9.1211    1.8251    3.3834 C.ar      1 <0>        -0.0105
     23 C20       -10.4252    1.9700    5.6638 C.2       1 <0>        -0.1948
     24 C21       -10.0681    2.5679    6.8109 C.2       1 <0>         0.0501
     25 N2         -8.8395    3.1541    6.6695 N.pl3     1 <0>        -0.5922
     26 H1         -8.3740    3.6455    7.3643 H         1 <0>         0.4181
     27 Cl1         1.3317   -3.8310    1.8884 Cl        1 <0>        -0.0576
     28 H2         -3.2507   -4.8268    0.6828 H         1 <0>         0.1440
     29 H3         -0.9276   -5.4262    1.2178 H         1 <0>         0.1418
     30 H4          0.0384   -1.3002    1.7433 H         1 <0>         0.1420
     31 H5         -2.2796   -0.6774    1.2129 H         1 <0>         0.1426
     32 H6         -3.9651   -0.3335    0.2438 H         1 <0>         0.0928
     33 H7         -5.9387   -1.0592    2.3465 H         1 <0>         0.0778
     34 H8         -4.2427   -0.6142    2.6563 H         1 <0>         0.0845
     35 H9         -4.6153    1.6218    1.7244 H         1 <0>         0.0753
     36 H10        -5.8438    1.3054    2.9767 H         1 <0>         0.1036
     37 H11        -5.5292    1.3462   -0.8383 H         1 <0>         0.0715
     38 H12        -7.2463    0.8825   -0.9562 H         1 <0>         0.0993
     39 H13        -5.6724   -1.0453   -1.3544 H         1 <0>         0.0814
     40 H14        -6.7659   -1.3087    0.0259 H         1 <0>         0.0804
     41 H15        -6.0656    3.2411    2.9520 H         1 <0>         0.1318
     42 H16        -6.4415    3.8933    5.2686 H         1 <0>         0.1268
     43 H17        -9.8634    1.2490    2.8510 H         1 <0>         0.1309
     44 H18       -11.3412    1.4286    5.4789 H         1 <0>         0.1508
     45 H19       -10.6625    2.5842    7.7125 H         1 <0>         0.1741
@<TRIPOS>BOND
     1    1    6 ar
     2    1    2 ar
     3    1   28 1
     4    2    3 ar
     5    2   29 1
     6    3    4 ar
     7    3   27 1
     8    4    5 ar
     9    4   30 1
    10    5    6 ar
    11    5   31 1
    12    6    7 1
    13    7    8 2
    14    7    9 1
    15    9   14 1
    16    9   10 1
    17    9   32 1
    18   10   11 1
    19   10   33 1
    20   10   34 1
    21   11   12 1
    22   11   35 1
    23   11   36 1
    24   12   13 1
    25   12   15 am
    26   13   14 1
    27   13   37 1
    28   13   38 1
    29   14   39 1
    30   14   40 1
    31   15   16 2
    32   15   17 1
    33   17   22 ar
    34   17   18 ar
    35   18   19 ar
    36   18   41 1
    37   19   20 ar
    38   19   42 1
    39   20   25 1
    40   20   21 ar
    41   21   22 ar
    42   21   23 1
    43   22   43 1
    44   23   24 2
    45   23   44 1
    46   24   25 1
    47   24   45 1
    48   25   26 1
@<TRIPOS>MOLECULE
ZINC03833926
   37    39     0     0     0
SMALL
USER_CHARGES

@<TRIPOS>ATOM
      1 C1          0.8857   -1.4230    0.2659 C.3       1 <0>        -0.1448
      2 C2         -0.5927   -1.0680    0.0945 C.3       1 <0>         0.0733
      3 H1         -1.1415   -1.9472   -0.2430 H         1 <0>         0.0635
      4 C3         -0.7332    0.0525   -0.9422 C.3       1 <0>         0.0634
      5 N1         -2.1344    0.5021   -0.9526 N.am      1 <0>        -0.6143
      6 C4         -2.7616    0.8410    0.3347 C.3       1 <0>         0.0827
      7 C5         -2.5222   -0.3179    1.3091 C.3       1 <0>         0.0752
      8 H2         -3.0780   -1.1944    0.9760 H         1 <0>         0.0635
      9 O1         -1.1251   -0.6235    1.3446 O.3       1 <0>        -0.3735
     10 C6         -2.9935    0.0848    2.7079 C.3       1 <0>        -0.1441
     11 C7         -2.8228    0.6009   -2.1071 C.2       1 <0>         0.5691
     12 O2         -4.0057    0.8809   -2.0875 O.2       1 <0>        -0.5348
     13 C8         -2.1402    0.3691   -3.3957 C.ar      1 <0>        -0.1673
     14 C9         -0.7889    0.7122   -3.5444 C.ar      1 <0>        -0.0785
     15 C10        -0.1432    0.4986   -4.7258 C.ar      1 <0>        -0.1334
     16 C11        -0.8250   -0.0542   -5.8083 C.ar      1 <0>         0.1163
     17 C12        -2.1845   -0.3979   -5.6734 C.ar      1 <0>        -0.1208
     18 C13        -2.8402   -0.1845   -4.4634 C.ar      1 <0>        -0.0007
     19 C14        -2.5944   -0.9445   -6.9702 C.2       1 <0>        -0.1930
     20 C15        -1.5177   -0.9018   -7.7699 C.2       1 <0>         0.0495
     21 N2         -0.4529   -0.3730   -7.0919 N.pl3     1 <0>        -0.5916
     22 H3          0.4339   -0.2426   -7.4629 H         1 <0>         0.4185
     23 H4          1.4338   -0.5434    0.6034 H         1 <0>         0.0673
     24 H5          0.9850   -2.2185    1.0045 H         1 <0>         0.0693
     25 H6          1.2914   -1.7600   -0.6879 H         1 <0>         0.0748
     26 H7         -0.0827    0.8848   -0.6736 H         1 <0>         0.0804
     27 H8         -0.4604   -0.3233   -1.9283 H         1 <0>         0.1115
     28 H9         -2.3153    1.7527    0.7318 H         1 <0>         0.0777
     29 H10        -3.8326    0.9871    0.1941 H         1 <0>         0.1035
     30 H11        -4.0572    0.3209    2.6790 H         1 <0>         0.0757
     31 H12        -2.8229   -0.7396    3.4002 H         1 <0>         0.0688
     32 H13        -2.4360    0.9602    3.0411 H         1 <0>         0.0669
     33 H14        -0.2530    1.1459   -2.7130 H         1 <0>         0.1377
     34 H15         0.8991    0.7636   -4.8248 H         1 <0>         0.1276
     35 H16        -3.8824   -0.4459   -4.3549 H         1 <0>         0.1344
     36 H17        -3.5756   -1.3121   -7.2320 H         1 <0>         0.1514
     37 H18        -1.4947   -1.2356   -8.7968 H         1 <0>         0.1747
@<TRIPOS>BOND
     1    1    2 1
     2    1   23 1
     3    1   24 1
     4    1   25 1
     5    2    3 1
     6    2    9 1
     7    2    4 1
     8    4    5 1
     9    4   26 1
    10    4   27 1
    11    5    6 1
    12    5   11 am
    13    6    7 1
    14    6   28 1
    15    6   29 1
    16    7    8 1
    17    7    9 1
    18    7   10 1
    19   10   30 1
    20   10   31 1
    21   10   32 1
    22   11   12 2
    23   11   13 1
    24   13   18 ar
    25   13   14 ar
    26   14   15 ar
    27   14   33 1
    28   15   16 ar
    29   15   34 1
    30   16   21 1
    31   16   17 ar
    32   17   18 ar
    33   17   19 1
    34   18   35 1
    35   19   20 2
    36   19   36 1
    37   20   21 1
    38   20   37 1
    39   21   22 1
@<TRIPOS>MOLECULE
ZINC03833927
   49    53     0     0     0
SMALL
USER_CHARGES

@<TRIPOS>ATOM
      1 C1          3.4128   -2.3300    3.1909 C.ar      1 <0>        -0.0816
      2 C2          2.0469   -2.3383    2.9752 C.ar      1 <0>        -0.1002
      3 C3          1.3934   -1.1686    2.6246 C.ar      1 <0>         0.0733
      4 C4          2.1157    0.0151    2.4903 C.ar      1 <0>         0.0408
      5 C5          3.4835    0.0160    2.7080 C.ar      1 <0>        -0.0798
      6 C6          4.1293   -1.1557    3.0577 C.ar      1 <0>        -0.1584
      7 C7          5.6176   -1.1521    3.2944 C.3       1 <0>         0.0550
      8 C8          6.0312   -2.7972    1.5667 C.3       1 <0>        -0.0218
      9 C9          6.6246   -2.9894    0.1671 C.3       1 <0>         0.0742
     10 N1          8.0505   -2.6312    0.2109 N.am      1 <0>        -0.6299
     11 C10         8.4242   -1.3329    0.7923 C.3       1 <0>         0.0878
     12 C11         7.7599   -1.2060    2.1674 C.3       1 <0>        -0.0143
     13 C12         8.9896   -3.4701   -0.2693 C.2       1 <0>         0.5797
     14 O1         10.1564   -3.1293   -0.2890 O.2       1 <0>        -0.5050
     15 C13         8.6013   -4.8033   -0.7715 C.ar      1 <0>        -0.1701
     16 C14         9.2908   -5.9439   -0.3362 C.ar      1 <0>        -0.0536
     17 C15         8.9410   -7.1820   -0.7868 C.ar      1 <0>        -0.1217
     18 C16         7.8965   -7.3281   -1.6978 C.ar      1 <0>         0.1197
     19 C17         7.1994   -6.1893   -2.1470 C.ar      1 <0>        -0.1161
     20 C18         7.5552   -4.9261   -1.6808 C.ar      1 <0>        -0.0405
     21 C19         6.1809   -6.6799   -3.0799 C.2       1 <0>        -0.2012
     22 C20         6.3142   -8.0139   -3.1373 C.2       1 <0>         0.0622
     23 N2          7.3338   -8.4173   -2.3183 N.pl3     1 <0>        -0.5891
     24 H1          7.6174   -9.3365   -2.1941 H         1 <0>         0.4226
     25 O2          1.2538    1.0148    2.1425 O.3       1 <0>        -0.3008
     26 C21        -0.0594    0.5194    2.4639 C.3       1 <0>         0.2111
     27 O3          0.0794   -0.9100    2.3607 O.3       1 <0>        -0.2982
     28 H2          3.9208   -3.2432    3.4638 H         1 <0>         0.1474
     29 H3          1.4895   -3.2573    3.0804 H         1 <0>         0.1501
     30 H4          4.0459    0.9322    2.6050 H         1 <0>         0.1448
     31 H5          5.9236   -0.1751    3.6688 H         1 <0>         0.1399
     32 H6          5.8707   -1.9177    4.0278 H         1 <0>         0.1423
     33 H7          6.4782   -3.5163    2.2532 H         1 <0>         0.1377
     34 H8          4.9528   -2.9518    1.5290 H         1 <0>         0.1418
     35 H9          6.1065   -2.3438   -0.5421 H         1 <0>         0.0970
     36 H10         6.5178   -4.0299   -0.1394 H         1 <0>         0.1407
     37 H11         8.0791   -0.5281    0.1432 H         1 <0>         0.0955
     38 H12         9.5073   -1.2792    0.9025 H         1 <0>         0.1372
     39 H13         7.9353   -0.2064    2.5652 H         1 <0>         0.1436
     40 H14         8.1828   -1.9469    2.8458 H         1 <0>         0.1370
     41 H15        10.1047   -5.8409    0.3662 H         1 <0>         0.1343
     42 H16         9.4781   -8.0524   -0.4399 H         1 <0>         0.1319
     43 H17         7.0238   -4.0498   -2.0217 H         1 <0>         0.1294
     44 H18         5.4606   -6.0819   -3.6183 H         1 <0>         0.1528
     45 H19         5.7067   -8.6721   -3.7408 H         1 <0>         0.1781
     46 H20        -0.7932    0.8858    1.7460 H         1 <0>         0.1448
     47 H21        -0.3388    0.8049    3.4781 H         1 <0>         0.0976
     48 N3          6.3037   -1.4134    2.0121 N.4       1 <0>        -0.3954
     49 H22         5.9481   -0.7599    1.3045 H         1 <0>         0.4275
@<TRIPOS>BOND
     1    1    6 ar
     2    1    2 ar
     3    1   28 1
     4    2    3 ar
     5    2   29 1
     6    3   27 1
     7    3    4 ar
     8    4    5 ar
     9    4   25 1
    10    5    6 ar
    11    5   30 1
    12    6    7 1
    13    7   31 1
    14    7   32 1
    15    7   48 1
    16    8    9 1
    17    8   33 1
    18    8   34 1
    19    8   48 1
    20    9   10 1
    21    9   35 1
    22    9   36 1
    23   10   11 1
    24   10   13 am
    25   11   12 1
    26   11   37 1
    27   11   38 1
    28   12   39 1
    29   12   40 1
    30   12   48 1
    31   13   14 2
    32   13   15 1
    33   15   20 ar
    34   15   16 ar
    35   16   17 ar
    36   16   41 1
    37   17   18 ar
    38   17   42 1
    39   18   23 1
    40   18   19 ar
    41   19   20 ar
    42   19   21 1
    43   20   43 1
    44   21   22 2
    45   21   44 1
    46   22   23 1
    47   22   45 1
    48   23   24 1
    49   25   26 1
    50   26   27 1
    51   26   46 1
    52   26   47 1
    53   48   49 1
@<TRIPOS>MOLECULE
ZINC03833928
   33    36     0     0     0
SMALL
USER_CHARGES

@<TRIPOS>ATOM
      1 C1          0.2442    1.3230   -1.8283 C.ar      1 <0>        -0.1042
      2 C2         -0.9873    1.9768   -1.8487 C.ar      1 <0>        -0.1001
      3 C3         -1.0953    3.2824   -1.4840 C.ar      1 <0>        -0.0868
      4 C4          0.0536    3.9943   -1.0875 C.ar      1 <0>         0.1193
      5 C5          1.3067    3.3272   -1.0730 C.ar      1 <0>        -0.0841
      6 C6          1.3773    1.9770   -1.4517 C.ar      1 <0>        -0.1013
      7 C7          2.4564    4.0361   -0.6773 C.ar      1 <0>        -0.0576
      8 C8          2.3169    5.3464   -0.3211 C.ar      1 <0>        -0.1313
      9 C9          1.0497    5.9479   -0.3568 C.ar      1 <0>         0.0959
     10 N1         -0.0228    5.2752   -0.7293 N.ar      1 <0>        -0.4280
     11 C10         0.9127    7.3712    0.0320 C.2       1 <0>         0.4569
     12 O1          1.8812    7.9884    0.4298 O.2       1 <0>        -0.4441
     13 C11        -0.3985    8.0387   -0.0636 C.ar      1 <0>        -0.2037
     14 C12        -0.5673    9.3314    0.4566 C.ar      1 <0>        -0.0406
     15 C13        -1.7714    9.9632    0.3702 C.ar      1 <0>        -0.1509
     16 C14        -2.8581    9.3258   -0.2276 C.ar      1 <0>         0.1257
     17 C15        -2.7036    8.0256   -0.7487 C.ar      1 <0>        -0.1368
     18 C16        -1.4713    7.3836   -0.6653 C.ar      1 <0>        -0.0054
     19 C17        -4.0106    7.6518   -1.2974 C.2       1 <0>        -0.1879
     20 C18        -4.8335    8.6907   -1.0875 C.2       1 <0>         0.0410
     21 N2         -4.1612    9.6981   -0.4500 N.pl3     1 <0>        -0.5922
     22 H1         -4.5481   10.5496   -0.1930 H         1 <0>         0.4170
     23 H2          0.3007    0.2845   -2.1196 H         1 <0>         0.1315
     24 H3         -1.8704    1.4363   -2.1558 H         1 <0>         0.1342
     25 H4         -2.0575    3.7724   -1.5016 H         1 <0>         0.1403
     26 H5          2.3254    1.4599   -1.4439 H         1 <0>         0.1342
     27 H6          3.4236    3.5560   -0.6565 H         1 <0>         0.1476
     28 H7          3.1794    5.9184   -0.0122 H         1 <0>         0.1504
     29 H8          0.2666    9.8319    0.9260 H         1 <0>         0.1345
     30 H9         -1.8859   10.9596    0.7707 H         1 <0>         0.1245
     31 H10        -1.3477    6.3874   -1.0634 H         1 <0>         0.1800
     32 H11        -4.2629    6.7184   -1.7787 H         1 <0>         0.1496
     33 H12        -5.8729    8.7266   -1.3786 H         1 <0>         0.1724
@<TRIPOS>BOND
     1    1    6 ar
     2    1    2 ar
     3    1   23 1
     4    2    3 ar
     5    2   24 1
     6    3    4 ar
     7    3   25 1
     8    4   10 ar
     9    4    5 ar
    10    5    6 ar
    11    5    7 ar
    12    6   26 1
    13    7    8 ar
    14    7   27 1
    15    8    9 ar
    16    8   28 1
    17    9   10 ar
    18    9   11 1
    19   11   12 2
    20   11   13 1
    21   13   18 ar
    22   13   14 ar
    23   14   15 ar
    24   14   29 1
    25   15   16 ar
    26   15   30 1
    27   16   21 1
    28   16   17 ar
    29   17   18 ar
    30   17   19 1
    31   18   31 1
    32   19   20 2
    33   19   32 1
    34   20   21 1
    35   20   33 1
    36   21   22 1
@<TRIPOS>MOLECULE
ZINC03833929
   45    48     0     0     0
SMALL
USER_CHARGES

@<TRIPOS>ATOM
      1 C1         -2.5316   -4.0548    0.9127 C.ar      1 <0>        -0.0308
      2 C2         -1.2295   -4.3901    1.2119 C.ar      1 <0>        -0.1656
      3 C3         -0.3060   -3.3991    1.5108 C.ar      1 <0>         0.1329
      4 C4         -0.6864   -2.0651    1.5104 C.ar      1 <0>        -0.1662
      5 C5         -1.9853   -1.7161    1.2129 C.ar      1 <0>        -0.0434
      6 C6         -2.9205   -2.7105    0.9049 C.ar      1 <0>        -0.1831
      7 C7         -4.3070   -2.3450    0.5804 C.2       1 <0>         0.4019
      8 O1         -5.1166   -3.2092    0.3188 O.2       1 <0>        -0.4410
      9 C8         -4.7223   -0.8964    0.5730 C.3       1 <0>        -0.1225
     10 C9         -5.0953   -0.4656    1.9934 C.3       1 <0>        -0.1260
     11 C10        -5.4833    1.0164    1.9879 C.3       1 <0>         0.0996
     12 N1         -6.5474    1.2227    0.9960 N.am      1 <0>        -0.6092
     13 C11        -6.3278    0.7621   -0.3818 C.3       1 <0>         0.1123
     14 C12        -5.9300   -0.7169   -0.3497 C.3       1 <0>        -0.1239
     15 C13        -7.7028    1.8235    1.3432 C.2       1 <0>         0.5693
     16 O2         -8.5472    2.0513    0.4988 O.2       1 <0>        -0.5319
     17 C14        -7.9430    2.2050    2.7493 C.ar      1 <0>        -0.1594
     18 C15        -6.9809    2.9484    3.4475 C.ar      1 <0>        -0.0743
     19 C16        -7.1907    3.3136    4.7440 C.ar      1 <0>        -0.1303
     20 C17        -8.3637    2.9400    5.3973 C.ar      1 <0>         0.1121
     21 C18        -9.3356    2.1881    4.7085 C.ar      1 <0>        -0.1165
     22 C19        -9.1215    1.8217    3.3820 C.ar      1 <0>        -0.0104
     23 C20       -10.4260    1.9654    5.6623 C.2       1 <0>        -0.1947
     24 C21       -10.0694    2.5630    6.8096 C.2       1 <0>         0.0500
     25 N2         -8.8409    3.1496    6.6686 N.pl3     1 <0>        -0.5922
     26 H1         -8.3758    3.6409    7.3637 H         1 <0>         0.4180
     27 F1          0.9696   -3.7346    1.8030 F         1 <0>        -0.1315
     28 H2         -3.2496   -4.8273    0.6802 H         1 <0>         0.1449
     29 H3         -0.9268   -5.4268    1.2136 H         1 <0>         0.1440
     30 H4          0.0374   -1.2984    1.7443 H         1 <0>         0.1442
     31 H5         -2.2801   -0.6772    1.2127 H         1 <0>         0.1434
     32 H6         -3.9643   -0.3340    0.2426 H         1 <0>         0.0926
     33 H7         -5.9379   -1.0612    2.3447 H         1 <0>         0.0779
     34 H8         -4.2421   -0.6157    2.6549 H         1 <0>         0.0845
     35 H9         -4.6154    1.6205    1.7238 H         1 <0>         0.0752
     36 H10        -5.8439    1.3033    2.9757 H         1 <0>         0.1035
     37 H11        -5.5287    1.3455   -0.8392 H         1 <0>         0.0714
     38 H12        -7.2456    0.8812   -0.9576 H         1 <0>         0.0991
     39 H13        -5.6710   -1.0459   -1.3561 H         1 <0>         0.0814
     40 H14        -6.7646   -1.3101    0.0239 H         1 <0>         0.0803
     41 H15        -6.0664    3.2389    2.9517 H         1 <0>         0.1318
     42 H16        -6.4429    3.8901    5.2684 H         1 <0>         0.1267
     43 H17        -9.8635    1.2455    2.8493 H         1 <0>         0.1309
     44 H18       -11.3418    1.4237    5.4770 H         1 <0>         0.1508
     45 H19       -10.6640    2.5788    7.7111 H         1 <0>         0.1741
@<TRIPOS>BOND
     1    1    6 ar
     2    1    2 ar
     3    1   28 1
     4    2    3 ar
     5    2   29 1
     6    3    4 ar
     7    3   27 1
     8    4    5 ar
     9    4   30 1
    10    5    6 ar
    11    5   31 1
    12    6    7 1
    13    7    8 2
    14    7    9 1
    15    9   14 1
    16    9   10 1
    17    9   32 1
    18   10   11 1
    19   10   33 1
    20   10   34 1
    21   11   12 1
    22   11   35 1
    23   11   36 1
    24   12   13 1
    25   12   15 am
    26   13   14 1
    27   13   37 1
    28   13   38 1
    29   14   39 1
    30   14   40 1
    31   15   16 2
    32   15   17 1
    33   17   22 ar
    34   17   18 ar
    35   18   19 ar
    36   18   41 1
    37   19   20 ar
    38   19   42 1
    39   20   25 1
    40   20   21 ar
    41   21   22 ar
    42   21   23 1
    43   22   43 1
    44   23   24 2
    45   23   44 1
    46   24   25 1
    47   24   45 1
    48   25   26 1
@<TRIPOS>MOLECULE
ZINC03833930
   60    63     0     0     0
SMALL
USER_CHARGES

@<TRIPOS>ATOM
      1 C1         12.8921   -0.1080   -1.2972 C.3       1 <0>        -0.1241
      2 C2         11.8570    0.9750   -1.4606 C.ar      1 <0>        -0.0646
      3 C3         10.6304    0.6749   -2.0271 C.ar      1 <0>        -0.0886
      4 C4          9.6780    1.6602   -2.1801 C.ar      1 <0>        -0.0509
      5 C5          9.9542    2.9656   -1.7611 C.ar      1 <0>        -0.1539
      6 C6         11.1980    3.2619   -1.1945 C.ar      1 <0>        -0.0529
      7 C7         12.1381    2.2645   -1.0439 C.ar      1 <0>        -0.0886
      8 C8         13.4769    2.5803   -0.4283 C.3       1 <0>        -0.1191
      9 C9         11.5082    4.6666   -0.7453 C.3       1 <0>        -0.1229
     10 C10         8.9435    4.0233   -1.9212 C.2       1 <0>         0.4157
     11 O1          8.8342    4.6020   -2.9810 O.2       1 <0>        -0.4347
     12 C11         8.0443    4.3870   -0.7678 C.3       1 <0>        -0.1211
     13 C12         7.6343    5.8568   -0.8848 C.3       1 <0>        -0.1250
     14 C13         6.7485    6.2321    0.3073 C.3       1 <0>         0.1134
     15 N1          5.6195    5.2940    0.3714 N.am      1 <0>        -0.6094
     16 C14         5.8999    3.8521    0.4016 C.3       1 <0>         0.0920
     17 C15         6.7951    3.5033   -0.7972 C.3       1 <0>        -0.1278
     18 C16         4.3509    5.7477    0.4075 C.2       1 <0>         0.5676
     19 O2          4.1276    6.9379    0.2984 O.2       1 <0>        -0.5347
     20 C17         3.2323    4.7994    0.5794 C.ar      1 <0>        -0.1598
     21 C18         2.0035    5.0442   -0.0499 C.ar      1 <0>        -0.0458
     22 C19         0.9612    4.1784    0.0995 C.ar      1 <0>        -0.1330
     23 C20         1.1055    3.0348    0.8829 C.ar      1 <0>         0.1167
     24 C21         2.3351    2.7776    1.5204 C.ar      1 <0>        -0.1207
     25 C22         3.3983    3.6637    1.3661 C.ar      1 <0>        -0.0392
     26 C23         2.1564    1.5203    2.2523 C.2       1 <0>        -0.1971
     27 C24         0.8961    1.1156    2.0314 C.2       1 <0>         0.0511
     28 N2          0.2566    2.0055    1.2114 N.pl3     1 <0>        -0.5927
     29 H1         -0.6617    1.9238    0.9101 H         1 <0>         0.4184
     30 C25         8.3432    1.3315   -2.7976 C.3       1 <0>        -0.1310
     31 C26        10.3351   -0.7323   -2.4784 C.3       1 <0>        -0.1204
     32 H2         13.5180   -0.1499   -2.1886 H         1 <0>         0.0737
     33 H3         13.5123    0.1104   -0.4278 H         1 <0>         0.0722
     34 H4         12.3949   -1.0677   -1.1569 H         1 <0>         0.0722
     35 H5         14.1760    2.8753   -1.2108 H         1 <0>         0.0718
     36 H6         13.3651    3.3964    0.2856 H         1 <0>         0.0689
     37 H7         13.8578    1.6977    0.0855 H         1 <0>         0.0724
     38 H8         11.2961    4.7627    0.3196 H         1 <0>         0.0775
     39 H9         12.5611    4.8819   -0.9269 H         1 <0>         0.0765
     40 H10        10.8917    5.3711   -1.3036 H         1 <0>         0.0627
     41 H11         8.5326    4.2450    0.0932 H         1 <0>         0.0914
     42 H12         7.0803    6.0074   -1.8114 H         1 <0>         0.0805
     43 H13         8.5258    6.4841   -0.8873 H         1 <0>         0.0798
     44 H14         6.3731    7.2473    0.1784 H         1 <0>         0.0999
     45 H15         7.3287    6.1690    1.2279 H         1 <0>         0.0714
     46 H16         6.4124    3.5989    1.3297 H         1 <0>         0.0768
     47 H17         4.9646    3.2964    0.3348 H         1 <0>         0.1100
     48 H18         6.2490    3.6760   -1.7246 H         1 <0>         0.0775
     49 H19         7.0893    2.4555   -0.7374 H         1 <0>         0.0874
     50 H20         1.8815    5.9276   -0.6591 H         1 <0>         0.1354
     51 H21         0.0202    4.3794   -0.3910 H         1 <0>         0.1273
     52 H22         4.3430    3.4714    1.8529 H         1 <0>         0.1369
     53 H23         2.8964    1.0177    2.8574 H         1 <0>         0.1505
     54 H24         0.4529    0.2187    2.4380 H         1 <0>         0.1736
     55 H25         8.4185    1.3990   -3.8829 H         1 <0>         0.0765
     56 H26         8.0519    0.3196   -2.5159 H         1 <0>         0.0782
     57 H27         7.5938    2.0380   -2.4407 H         1 <0>         0.0679
     58 H28        10.6404   -0.8521   -3.5179 H         1 <0>         0.0720
     59 H29        10.8851   -1.4369   -1.8546 H         1 <0>         0.0718
     60 H30         9.2661   -0.9257   -2.3891 H         1 <0>         0.0704
@<TRIPOS>BOND
     1    1    2 1
     2    1   32 1
     3    1   33 1
     4    1   34 1
     5    2    7 ar
     6    2    3 ar
     7    3    4 ar
     8    3   31 1
     9    4    5 ar
    10    4   30 1
    11    5    6 ar
    12    5   10 1
    13    6    7 ar
    14    6    9 1
    15    7    8 1
    16    8   35 1
    17    8   36 1
    18    8   37 1
    19    9   38 1
    20    9   39 1
    21    9   40 1
    22   10   11 2
    23   10   12 1
    24   12   17 1
    25   12   13 1
    26   12   41 1
    27   13   14 1
    28   13   42 1
    29   13   43 1
    30   14   15 1
    31   14   44 1
    32   14   45 1
    33   15   16 1
    34   15   18 am
    35   16   17 1
    36   16   46 1
    37   16   47 1
    38   17   48 1
    39   17   49 1
    40   18   19 2
    41   18   20 1
    42   20   25 ar
    43   20   21 ar
    44   21   22 ar
    45   21   50 1
    46   22   23 ar
    47   22   51 1
    48   23   28 1
    49   23   24 ar
    50   24   25 ar
    51   24   26 1
    52   25   52 1
    53   26   27 2
    54   26   53 1
    55   27   28 1
    56   27   54 1
    57   28   29 1
    58   30   55 1
    59   30   56 1
    60   30   57 1
    61   31   58 1
    62   31   59 1
    63   31   60 1
@<TRIPOS>MOLECULE
ZINC03833931
   34    36     0     0     0
SMALL
USER_CHARGES

@<TRIPOS>ATOM
      1 C1          0.2823    2.2864   -4.7012 C.ar      1 <0>        -0.0436
      2 C2          0.0173    2.4730   -3.3609 C.ar      1 <0>        -0.0666
      3 C3         -0.5169    1.4252   -2.6049 C.ar      1 <0>        -0.0216
      4 C4         -0.7731    0.1918   -3.2151 C.ar      1 <0>        -0.0134
      5 C5         -0.5067    0.0229   -4.5588 C.ar      1 <0>        -0.0411
      6 C6          0.0215    1.0658   -5.2992 C.ar      1 <0>        -0.0019
      7 N1          0.3097    0.8747   -6.7384 N.pl3     1 <0>         0.0136
      8 O1          0.7750    1.7903   -7.3932 O.2       1 <0>        -0.1282
      9 O2          0.0815   -0.1982   -7.2680 O.3       1 <0>        -0.1307
     10 Cl1        -1.4290   -1.1198   -2.2859 Cl        1 <0>        -0.0183
     11 C7         -0.8026    1.6162   -1.1737 C.2       1 <0>        -0.0005
     12 C8         -1.8249    2.3026   -0.6215 C.2       1 <0>        -0.0409
     13 N2         -1.7616    2.2600    0.7276 N.4       1 <0>        -0.1391
     14 N3         -0.7573    1.5881    1.1748 N.2       1 <0>        -0.0305
     15 C9         -0.0127    1.0858    0.0080 C.3       1 <0>        -0.0460
     16 C10        -2.6844    2.8786    1.5494 C.ar      1 <0>         0.4370
     17 N4         -3.6874    3.5510    1.0039 N.ar      1 <0>        -0.4797
     18 C11        -4.5876    4.1539    1.7606 C.ar      1 <0>         0.1880
     19 C12        -4.4723    4.0760    3.1412 C.ar      1 <0>        -0.1108
     20 C13        -3.4099    3.3638    3.6781 C.ar      1 <0>         0.1216
     21 N5         -2.5478    2.7804    2.8635 N.ar      1 <0>        -0.4484
     22 C14        -3.2435    3.2523    5.1718 C.3       1 <0>         0.3281
     23 F1         -1.8844    3.1351    5.4821 F         1 <0>        -0.1692
     24 F2         -3.7652    4.3960    5.7858 F         1 <0>        -0.1726
     25 H1          0.6949    3.0952   -5.2861 H         1 <0>         0.1770
     26 H2          0.2222    3.4261   -2.8961 H         1 <0>         0.1685
     27 H3         -0.7068   -0.9269   -5.0325 H         1 <0>         0.1792
     28 H4         -2.5912    2.8167   -1.1826 H         1 <0>         0.2279
     29 H5          0.0021   -0.0041    0.0020 H         1 <0>         0.2275
     30 H6          1.0025    1.4825    0.0004 H         1 <0>         0.2364
     31 H7         -5.4027    4.7008    1.3100 H         1 <0>         0.2221
     32 H8         -5.1939    4.5588    3.7835 H         1 <0>         0.2001
     33 H9         -3.7756    2.3718    5.5319 H         1 <0>         0.1577
     34 H10        -2.4376    2.7011    1.3179 H         1 <0>         0.2184
@<TRIPOS>BOND
     1    1    6 ar
     2    1    2 ar
     3    1   25 1
     4    2    3 ar
     5    2   26 1
     6    3    4 ar
     7    3   11 1
     8    4    5 ar
     9    4   10 1
    10    5    6 ar
    11    5   27 1
    12    6    7 1
    13    7    8 2
    14    7    9 1
    15   11   15 1
    16   11   12 2
    17   12   13 1
    18   12   28 1
    19   13   14 2
    20   13   16 1
    21   14   15 1
    22   15   29 1
    23   15   30 1
    24   16   21 ar
    25   16   17 ar
    26   17   18 ar
    27   18   19 ar
    28   18   31 1
    29   19   20 ar
    30   19   32 1
    31   20   21 ar
    32   20   22 1
    33   22   23 1
    34   22   24 1
    35   22   33 1
    36   13   34 1
@<TRIPOS>MOLECULE
ZINC03833932
   43    44     0     0     0
SMALL
USER_CHARGES

@<TRIPOS>ATOM
      1 C1         -2.3279    3.6194    8.1239 C.3       1 <0>        -0.1572
      2 C2         -3.1271    3.8955    6.8488 C.3       1 <0>         0.0607
      3 O1         -2.4839    3.2415    5.7233 O.3       1 <0>        -0.3306
      4 C3         -3.0660    3.3869    4.5170 C.2       1 <0>         0.4906
      5 O2         -4.0831    4.0421    4.4084 O.2       1 <0>        -0.4608
      6 C4         -2.4674    2.7494    3.3262 C.2       1 <0>         0.0594
      7 C5         -3.1088    2.8089    2.1280 C.2       1 <0>        -0.0110
      8 N1         -2.6184    2.1209    1.0570 N.4       1 <0>        -0.1150
      9 N2         -1.5011    1.4796    1.0809 N.2       1 <0>        -0.1045
     10 C6         -1.3166    0.8725   -0.2477 C.3       1 <0>        -0.0408
     11 C7         -2.5516    1.3074   -1.0137 C.2       1 <0>         0.0017
     12 C8         -3.2568    2.0479   -0.1351 C.2       1 <0>        -0.0658
     13 C9         -2.9025    0.9908   -2.4081 C.ar      1 <0>        -0.0223
     14 C10        -2.7737    1.9642   -3.4037 C.ar      1 <0>        -0.0690
     15 C11        -3.1043    1.6603   -4.7071 C.ar      1 <0>        -0.0440
     16 C12        -3.5625    0.3951   -5.0325 C.ar      1 <0>        -0.0032
     17 C13        -3.6926   -0.5744   -4.0543 C.ar      1 <0>        -0.0413
     18 C14        -3.3612   -0.2874   -2.7451 C.ar      1 <0>        -0.0143
     19 Cl1        -3.5182   -1.5072   -1.5198 Cl        1 <0>        -0.0184
     20 N3         -3.9145    0.0777   -6.4348 N.pl3     1 <0>         0.0138
     21 O3         -3.8008    0.9287   -7.2987 O.2       1 <0>        -0.1285
     22 O4         -4.3180   -1.0344   -6.7247 O.3       1 <0>        -0.1312
     23 C15        -1.1762    2.0496    3.4363 C.2       1 <0>        -0.2120
     24 C16        -0.0732    2.7317    3.7317 C.2       1 <0>        -0.0361
     25 C17        -0.1190    4.2351    3.8243 C.3       1 <0>        -0.1617
     26 H1         -2.2882    2.5449    8.3023 H         1 <0>         0.0718
     27 H2         -1.3154    4.0064    8.0090 H         1 <0>         0.0714
     28 H3         -2.8108    4.1104    8.9688 H         1 <0>         0.0918
     29 H4         -3.1669    4.9701    6.6704 H         1 <0>         0.0824
     30 H5         -4.1396    3.5086    6.9637 H         1 <0>         0.0824
     31 H6         -4.0062    3.4008    2.0247 H         1 <0>         0.2173
     32 H7         -1.2753   -0.2140   -0.1708 H         1 <0>         0.2069
     33 H8         -0.4145    1.2570   -0.7235 H         1 <0>         0.2234
     34 H9         -4.2038    2.5194   -0.3527 H         1 <0>         0.2220
     35 H10        -2.4158    2.9517   -3.1522 H         1 <0>         0.1680
     36 H11        -3.0051    2.4114   -5.4768 H         1 <0>         0.1763
     37 H12        -4.0504   -1.5592   -4.3160 H         1 <0>         0.1786
     38 H13        -1.1250    0.9826    3.2772 H         1 <0>         0.1652
     39 H14         0.8553    2.2080    3.9053 H         1 <0>         0.1463
     40 H15        -0.4702    4.6469    2.8781 H         1 <0>         0.0737
     41 H16        -0.7994    4.5294    4.6234 H         1 <0>         0.0824
     42 H17         0.8794    4.6166    4.0383 H         1 <0>         0.0873
     43 H18        -2.9919    2.6080    1.8464 H         1 <0>         0.1942
@<TRIPOS>BOND
     1    1    2 1
     2    1   26 1
     3    1   27 1
     4    1   28 1
     5    2    3 1
     6    2   29 1
     7    2   30 1
     8    3    4 1
     9    4    5 2
    10    4    6 1
    11    6    7 2
    12    6   23 1
    13    7    8 1
    14    7   31 1
    15    8   12 1
    16    8    9 2
    17    9   10 1
    18   10   11 1
    19   10   32 1
    20   10   33 1
    21   11   12 2
    22   11   13 1
    23   12   34 1
    24   13   18 ar
    25   13   14 ar
    26   14   15 ar
    27   14   35 1
    28   15   16 ar
    29   15   36 1
    30   16   17 ar
    31   16   20 1
    32   17   18 ar
    33   17   37 1
    34   18   19 1
    35   20   21 2
    36   20   22 1
    37   23   24 2
    38   23   38 1
    39   24   25 1
    40   24   39 1
    41   25   40 1
    42   25   41 1
    43   25   42 1
    44    8   43 1
@<TRIPOS>MOLECULE
ZINC03833933
   42    44     0     0     0
SMALL
USER_CHARGES

@<TRIPOS>ATOM
      1 C1          2.5431   -2.6781   -0.0366 C.3       1 <0>        -0.1591
      2 C2          1.1215   -2.1127   -0.0200 C.3       1 <0>         0.0652
      3 O1          1.1779   -0.6618   -0.0127 O.3       1 <0>        -0.3326
      4 C3          0.0021   -0.0041    0.0020 C.2       1 <0>         0.5126
      5 O2         -1.0416   -0.6257    0.0086 O.2       1 <0>        -0.5096
      6 C4         -0.0179    1.4718    0.0101 C.ar      1 <0>        -0.1109
      7 C5          1.1778    2.1895    0.0026 C.ar      1 <0>        -0.0269
      8 C6          1.1541    3.5693    0.0103 C.ar      1 <0>        -0.0438
      9 C7         -0.0533    4.2496    0.0255 C.ar      1 <0>        -0.0039
     10 C8         -1.2484    3.5536    0.0332 C.ar      1 <0>        -0.0679
     11 C9         -1.2434    2.1627    0.0197 C.ar      1 <0>         0.0612
     12 N1         -2.4319    1.4655    0.0211 N.4       1 <0>        -0.1166
     13 N2         -2.9877    1.0224    1.0914 N.2       1 <0>        -0.0563
     14 C10        -4.2292    0.3377    0.6939 C.3       1 <0>        -0.0373
     15 C11        -4.2489    0.4913   -0.8152 C.2       1 <0>        -0.0009
     16 C12        -3.1291    1.1863   -1.1031 C.2       1 <0>        -0.0456
     17 C13        -5.2673   -0.0031   -1.7562 C.ar      1 <0>        -0.0178
     18 C14        -5.0035   -1.1209   -2.5541 C.ar      1 <0>        -0.0674
     19 C15        -5.9624   -1.5782   -3.4326 C.ar      1 <0>        -0.0443
     20 C16        -7.1846   -0.9347   -3.5265 C.ar      1 <0>        -0.0041
     21 C17        -7.4545    0.1714   -2.7409 C.ar      1 <0>        -0.0416
     22 C18        -6.5065    0.6394   -1.8529 C.ar      1 <0>        -0.0149
     23 Cl1        -6.8490    2.0241   -0.8633 Cl        1 <0>        -0.0188
     24 N3         -8.2083   -1.4333   -4.4723 N.pl3     1 <0>         0.0145
     25 O3         -7.9743   -2.4072   -5.1653 O.2       1 <0>        -0.1300
     26 O4         -9.2846   -0.8696   -4.5576 O.3       1 <0>        -0.1314
     27 Cl2        -0.0657    5.9855    0.0356 Cl        1 <0>         0.0063
     28 H1          2.5008   -3.7673   -0.0421 H         1 <0>         0.0923
     29 H2          3.0621   -2.3302   -0.9297 H         1 <0>         0.0731
     30 H3          3.0791   -2.3398    0.8501 H         1 <0>         0.0732
     31 H4          0.6025   -2.4606    0.8731 H         1 <0>         0.0802
     32 H5          0.5855   -2.4510   -0.9067 H         1 <0>         0.0798
     33 H6          2.1222    1.6656   -0.0097 H         1 <0>         0.1829
     34 H7          2.0818    4.1222    0.0047 H         1 <0>         0.1787
     35 H8         -2.1856    4.0901    0.0450 H         1 <0>         0.1788
     36 H9         -4.1929   -0.7155    0.9723 H         1 <0>         0.2226
     37 H10        -5.0959    0.8227    1.1430 H         1 <0>         0.2212
     38 H11        -2.8281    1.4777   -2.0986 H         1 <0>         0.2167
     39 H12        -4.0511   -1.6248   -2.4819 H         1 <0>         0.1672
     40 H13        -5.7597   -2.4414   -4.0492 H         1 <0>         0.1756
     41 H14        -8.4106    0.6676   -2.8194 H         1 <0>         0.1785
     42 H15        -1.5482    1.9335    0.0160 H         1 <0>         0.2012
@<TRIPOS>BOND
     1    1    2 1
     2    1   28 1
     3    1   29 1
     4    1   30 1
     5    2    3 1
     6    2   31 1
     7    2   32 1
     8    3    4 1
     9    4    5 2
    10    4    6 1
    11    6   11 ar
    12    6    7 ar
    13    7    8 ar
    14    7   33 1
    15    8    9 ar
    16    8   34 1
    17    9   10 ar
    18    9   27 1
    19   10   11 ar
    20   10   35 1
    21   11   12 1
    22   12   16 1
    23   12   13 2
    24   13   14 1
    25   14   15 1
    26   14   36 1
    27   14   37 1
    28   15   16 2
    29   15   17 1
    30   16   38 1
    31   17   22 ar
    32   17   18 ar
    33   18   19 ar
    34   18   39 1
    35   19   20 ar
    36   19   40 1
    37   20   21 ar
    38   20   24 1
    39   21   22 ar
    40   21   41 1
    41   22   23 1
    42   24   25 2
    43   24   26 1
    44   12   42 1
@<TRIPOS>MOLECULE
ZINC03833934
   65    71     0     0     0
SMALL
USER_CHARGES

@<TRIPOS>ATOM
      1 C1         -0.4340   -9.9017    3.5433 C.ar      1 <0>        -0.0845
      2 C2         -1.7478  -10.1462    3.1854 C.ar      1 <0>        -0.1044
      3 C3         -2.4450   -9.2201    2.4302 C.ar      1 <0>        -0.0857
      4 C4         -1.8314   -8.0510    2.0326 C.ar      1 <0>        -0.1483
      5 C5         -0.5096   -7.7959    2.3877 C.ar      1 <0>        -0.0270
      6 C6          0.1880   -8.7354    3.1498 C.ar      1 <0>        -0.0881
      7 C7         -0.0949   -6.4816    1.8383 C.ar      1 <0>        -0.0534
      8 C8          1.1181   -5.7931    1.9204 C.ar      1 <0>        -0.0599
      9 C9          1.2565   -4.5643    1.3135 C.ar      1 <0>        -0.1172
     10 C10         0.1912   -4.0045    0.6174 C.ar      1 <0>         0.1737
     11 C11        -1.0192   -4.6836    0.5381 C.ar      1 <0>        -0.0974
     12 C12        -1.1582   -5.9151    1.1394 C.ar      1 <0>        -0.1304
     13 C13        -2.3194   -6.8757    1.2217 C.3       1 <0>         0.1424
     14 H1         -2.6075   -7.2027    0.2226 H         1 <0>         0.1572
     15 C14        -3.0955   -5.7986    3.2466 C.3       1 <0>        -0.0128
     16 C15        -4.2468   -4.9813    3.8421 C.3       1 <0>         0.0923
     17 N1         -5.4792   -5.7795    3.7571 N.am      1 <0>        -0.6272
     18 C16        -5.8385   -6.3687    2.4582 C.3       1 <0>         0.0538
     19 C17        -4.6245   -7.1313    1.9171 C.3       1 <0>        -0.0273
     20 C18        -6.2589   -5.9658    4.8405 C.2       1 <0>         0.5788
     21 O1         -5.9792   -5.4222    5.8914 O.2       1 <0>        -0.5101
     22 C19        -7.4528   -6.8299    4.7512 C.ar      1 <0>        -0.1788
     23 C20        -8.1861   -6.8903    3.5577 C.ar      1 <0>        -0.1004
     24 C21        -9.2870   -7.6881    3.4576 C.ar      1 <0>        -0.1232
     25 C22        -9.7054   -8.4468    4.5492 C.ar      1 <0>         0.1187
     26 C23        -8.9805   -8.3905    5.7557 C.ar      1 <0>        -0.1161
     27 C24        -7.8526   -7.5794    5.8534 C.ar      1 <0>         0.0069
     28 C25        -9.6711   -9.2891    6.6852 C.2       1 <0>        -0.1930
     29 C26       -10.7163   -9.8081    6.0226 C.2       1 <0>         0.0584
     30 N2        -10.7514   -9.3158    4.7461 N.pl3     1 <0>        -0.5877
     31 H2        -11.4166   -9.5463    4.0788 H         1 <0>         0.4220
     32 N3          0.3352   -2.7578    0.0029 N.am      1 <0>        -0.6670
     33 C27        -0.4179   -2.4444   -1.0700 C.2       1 <0>         0.6171
     34 O2         -1.1532   -3.2800   -1.5625 O.2       1 <0>        -0.5080
     35 C28        -0.3513   -1.0975   -1.6438 C.2       1 <0>        -0.2713
     36 C29        -1.0341   -0.5765   -2.7319 C.2       1 <0>        -0.0475
     37 C30        -0.7818    0.7322   -3.0600 C.2       1 <0>        -0.1848
     38 C31         0.1079    1.4425   -2.3179 C.2       1 <0>        -0.1580
     39 S1          0.6238    0.3013   -1.1191 S.3       1 <0>         0.1503
     40 H3          0.1068  -10.6272    4.1330 H         1 <0>         0.1407
     41 H4         -2.2298  -11.0615    3.4958 H         1 <0>         0.1406
     42 H5         -3.4707   -9.4128    2.1522 H         1 <0>         0.1320
     43 H6          1.2138   -8.5484    3.4314 H         1 <0>         0.1366
     44 H7          1.9478   -6.2245    2.4605 H         1 <0>         0.1426
     45 H8          2.1951   -4.0341    1.3788 H         1 <0>         0.1453
     46 H9         -1.8490   -4.2477    0.0018 H         1 <0>         0.1530
     47 H10        -2.9065   -6.6706    3.8726 H         1 <0>         0.1354
     48 H11        -2.1977   -5.1822    3.2003 H         1 <0>         0.1387
     49 H12        -4.3697   -4.0568    3.2780 H         1 <0>         0.0938
     50 H13        -4.0329   -4.7481    4.8851 H         1 <0>         0.1362
     51 H14        -6.1144   -5.5775    1.7610 H         1 <0>         0.0988
     52 H15        -6.6761   -7.0549    2.5833 H         1 <0>         0.1604
     53 H16        -4.8357   -7.4814    0.9067 H         1 <0>         0.1433
     54 H17        -4.4143   -7.9848    2.5617 H         1 <0>         0.1397
     55 H18        -7.8730   -6.3023    2.7076 H         1 <0>         0.1418
     56 H19        -9.8398   -7.7283    2.5307 H         1 <0>         0.1308
     57 H20        -7.2935   -7.5323    6.7762 H         1 <0>         0.1363
     58 H21        -9.3917   -9.4948    7.7080 H         1 <0>         0.1550
     59 H22       -11.4249  -10.5108    6.4356 H         1 <0>         0.1792
     60 H23         0.9770   -2.1179    0.3485 H         1 <0>         0.4192
     61 H24        -1.7339   -1.1743   -3.2971 H         1 <0>         0.1502
     62 H25        -1.2841    1.1920   -3.8982 H         1 <0>         0.1481
     63 H26         0.4152    2.4704   -2.4418 H         1 <0>         0.1976
     64 N4         -3.4663   -6.2124    1.8758 N.4       1 <0>        -0.3852
     65 H27        -3.7223   -5.3784    1.3342 H         1 <0>         0.4277
@<TRIPOS>BOND
     1    1    6 ar
     2    1    2 ar
     3    1   40 1
     4    2    3 ar
     5    2   41 1
     6    3    4 ar
     7    3   42 1
     8    4   13 1
     9    4    5 ar
    10    5    6 ar
    11    5    7 1
    12    6   43 1
    13    7   12 ar
    14    7    8 ar
    15    8    9 ar
    16    8   44 1
    17    9   10 ar
    18    9   45 1
    19   10   11 ar
    20   10   32 1
    21   11   12 ar
    22   11   46 1
    23   12   13 1
    24   13   14 1
    25   13   64 1
    26   15   16 1
    27   15   47 1
    28   15   48 1
    29   15   64 1
    30   16   17 1
    31   16   49 1
    32   16   50 1
    33   17   18 1
    34   17   20 am
    35   18   19 1
    36   18   51 1
    37   18   52 1
    38   19   53 1
    39   19   54 1
    40   19   64 1
    41   20   21 2
    42   20   22 1
    43   22   27 ar
    44   22   23 ar
    45   23   24 ar
    46   23   55 1
    47   24   25 ar
    48   24   56 1
    49   25   30 1
    50   25   26 ar
    51   26   27 ar
    52   26   28 1
    53   27   57 1
    54   28   29 2
    55   28   58 1
    56   29   30 1
    57   29   59 1
    58   30   31 1
    59   32   33 am
    60   32   60 1
    61   33   34 2
    62   33   35 1
    63   35   39 1
    64   35   36 2
    65   36   37 1
    66   36   61 1
    67   37   38 2
    68   37   62 1
    69   38   39 1
    70   38   63 1
    71   64   65 1
@<TRIPOS>MOLECULE
ZINC03833935
   71    77     0     0     0
SMALL
USER_CHARGES

@<TRIPOS>ATOM
      1 C1         -6.9488    6.6308    2.0339 C.ar      1 <0>        -0.1124
      2 C2         -5.5719    6.5085    2.0412 C.ar      1 <0>        -0.1179
      3 C3         -4.9774    5.4258    2.6620 C.ar      1 <0>        -0.1047
      4 C4         -5.7599    4.4656    3.2756 C.ar      1 <0>        -0.0809
      5 C5         -7.1371    4.5852    3.2638 C.ar      1 <0>        -0.1040
      6 C6         -7.7313    5.6705    2.6475 C.ar      1 <0>        -0.1164
      7 C7         -5.1119    3.2851    3.9520 C.3       1 <0>        -0.0976
      8 C8         -4.8371    3.6215    5.3951 C.2       1 <0>         0.5172
      9 O1         -5.1378    4.7126    5.8313 O.2       1 <0>        -0.4982
     10 N1         -4.2571    2.7101    6.2009 N.am      1 <0>        -0.6794
     11 C9         -3.9107    3.0550    7.5109 C.ar      1 <0>         0.1700
     12 C10        -4.7129    3.9286    8.2356 C.ar      1 <0>        -0.0909
     13 C11        -4.3749    4.2702    9.5267 C.ar      1 <0>        -0.0648
     14 C12        -3.2232    3.7389   10.1124 C.ar      1 <0>        -0.0490
     15 C13        -2.4237    2.8640    9.3807 C.ar      1 <0>        -0.1363
     16 C14        -2.7668    2.5199    8.0917 C.ar      1 <0>        -0.1138
     17 C15        -1.2666    2.4609   10.2618 C.3       1 <0>         0.1435
     18 H1         -1.2748    1.3828   10.4222 H         1 <0>         0.1567
     19 C16        -1.4689    3.1826   11.5716 C.ar      1 <0>        -0.1496
     20 C17        -2.6352    3.9346   11.4605 C.ar      1 <0>        -0.0283
     21 C18        -3.0573    4.7074   12.5443 C.ar      1 <0>        -0.0880
     22 C19        -2.3205    4.7192   13.7101 C.ar      1 <0>        -0.0838
     23 C20        -1.1628    3.9685   13.8109 C.ar      1 <0>        -0.1039
     24 C21        -0.7383    3.2008   12.7409 C.ar      1 <0>        -0.0842
     25 C22         1.1440    2.2459   10.3333 C.3       1 <0>        -0.0225
     26 C23         2.4303    2.5511    9.5584 C.3       1 <0>         0.0909
     27 N2          2.5342    4.0074    9.3804 N.am      1 <0>        -0.6296
     28 C24         1.3760    4.7251    8.8265 C.3       1 <0>         0.0717
     29 C25         0.1312    4.3343    9.6302 C.3       1 <0>        -0.0153
     30 C26         3.6609    4.6667    9.7156 C.2       1 <0>         0.5805
     31 O2          4.5688    4.0766   10.2683 O.2       1 <0>        -0.5105
     32 C27         3.7925    6.1056    9.4115 C.ar      1 <0>        -0.1827
     33 C28         3.1726    6.6406    8.2734 C.ar      1 <0>        -0.0899
     34 C29         3.2797    7.9681    7.9825 C.ar      1 <0>        -0.1257
     35 C30         4.0203    8.8103    8.8099 C.ar      1 <0>         0.1205
     36 C31         4.6527    8.2838    9.9533 C.ar      1 <0>        -0.1181
     37 C32         4.5365    6.9284   10.2516 C.ar      1 <0>         0.0082
     38 C33         5.3354    9.4117   10.5937 C.2       1 <0>        -0.1924
     39 C34         5.0894   10.4953    9.8413 C.2       1 <0>         0.0577
     40 N3          4.3058   10.1538    8.7725 N.pl3     1 <0>        -0.5876
     41 H2          3.9974   10.7694    8.0893 H         1 <0>         0.4219
     42 H3         -7.4132    7.4765    1.5485 H         1 <0>         0.1248
     43 H4         -4.9605    7.2585    1.5615 H         1 <0>         0.1241
     44 H5         -3.9017    5.3301    2.6674 H         1 <0>         0.1181
     45 H6         -7.7486    3.8327    3.7393 H         1 <0>         0.1202
     46 H7         -8.8070    5.7659    2.6415 H         1 <0>         0.1252
     47 H8         -5.7796    2.4251    3.9003 H         1 <0>         0.1110
     48 H9         -4.1743    3.0478    3.4493 H         1 <0>         0.1098
     49 H10        -4.0800    1.8149    5.8721 H         1 <0>         0.4175
     50 H11        -5.6040    4.3405    7.7853 H         1 <0>         0.1551
     51 H12        -5.0006    4.9496   10.0864 H         1 <0>         0.1401
     52 H13        -2.1451    1.8375    7.5312 H         1 <0>         0.1360
     53 H14        -3.9603    5.2951   12.4698 H         1 <0>         0.1366
     54 H15        -2.6486    5.3168   14.5478 H         1 <0>         0.1409
     55 H16        -0.5893    3.9820   14.7259 H         1 <0>         0.1410
     56 H17         0.1655    2.6153   12.8218 H         1 <0>         0.1307
     57 H18         1.2251    2.6452   11.3443 H         1 <0>         0.1368
     58 H19         0.9940    1.1673   10.3788 H         1 <0>         0.1435
     59 H20         2.3946    2.0647    8.5836 H         1 <0>         0.0955
     60 H21         3.2928    2.1881   10.1173 H         1 <0>         0.1386
     61 H22         1.2390    4.4477    7.7813 H         1 <0>         0.0961
     62 H23         1.5377    5.8004    8.9017 H         1 <0>         0.1468
     63 H24        -0.7533    4.7702    9.1658 H         1 <0>         0.1389
     64 H25         0.2264    4.7045   10.6510 H         1 <0>         0.1368
     65 H26         2.6006    5.9953    7.6231 H         1 <0>         0.1336
     66 H27         2.7932    8.3675    7.1049 H         1 <0>         0.1300
     67 H28         5.0197    6.5197   11.1267 H         1 <0>         0.1364
     68 H29         5.9237    9.3774   11.4988 H         1 <0>         0.1551
     69 H30         5.4555   11.4900   10.0487 H         1 <0>         0.1792
     70 N4          0.0031    2.8608    9.6206 N.4       1 <0>        -0.3849
     71 H31         0.0029    2.5331    8.6476 H         1 <0>         0.4262
@<TRIPOS>BOND
     1    1    6 ar
     2    1    2 ar
     3    1   42 1
     4    2    3 ar
     5    2   43 1
     6    3    4 ar
     7    3   44 1
     8    4    5 ar
     9    4    7 1
    10    5    6 ar
    11    5   45 1
    12    6   46 1
    13    7    8 1
    14    7   47 1
    15    7   48 1
    16    8    9 2
    17    8   10 am
    18   10   11 1
    19   10   49 1
    20   11   16 ar
    21   11   12 ar
    22   12   13 ar
    23   12   50 1
    24   13   14 ar
    25   13   51 1
    26   14   20 1
    27   14   15 ar
    28   15   16 ar
    29   15   17 1
    30   16   52 1
    31   17   18 1
    32   17   19 1
    33   17   70 1
    34   19   24 ar
    35   19   20 ar
    36   20   21 ar
    37   21   22 ar
    38   21   53 1
    39   22   23 ar
    40   22   54 1
    41   23   24 ar
    42   23   55 1
    43   24   56 1
    44   25   26 1
    45   25   57 1
    46   25   58 1
    47   25   70 1
    48   26   27 1
    49   26   59 1
    50   26   60 1
    51   27   28 1
    52   27   30 am
    53   28   29 1
    54   28   61 1
    55   28   62 1
    56   29   63 1
    57   29   64 1
    58   29   70 1
    59   30   31 2
    60   30   32 1
    61   32   37 ar
    62   32   33 ar
    63   33   34 ar
    64   33   65 1
    65   34   35 ar
    66   34   66 1
    67   35   40 1
    68   35   36 ar
    69   36   37 ar
    70   36   38 1
    71   37   67 1
    72   38   39 2
    73   38   68 1
    74   39   40 1
    75   39   69 1
    76   40   41 1
    77   70   71 1
@<TRIPOS>MOLECULE
ZINC03833936
   65    71     0     0     0
SMALL
USER_CHARGES

@<TRIPOS>ATOM
      1 C1          8.3019    0.5267    8.6901 C.ar      1 <0>        -0.0837
      2 C2          9.3367   -0.1860    8.1110 C.ar      1 <0>        -0.1046
      3 C3          9.2526   -0.5792    6.7872 C.ar      1 <0>        -0.0849
      4 C4          8.1372   -0.2605    6.0418 C.ar      1 <0>        -0.1506
      5 C5          7.0907    0.4564    6.6156 C.ar      1 <0>        -0.0267
      6 C6          7.1823    0.8495    7.9524 C.ar      1 <0>        -0.0887
      7 C7          6.0226    0.6648    5.6071 C.ar      1 <0>        -0.0534
      8 C8          4.7903    1.3168    5.6958 C.ar      1 <0>        -0.0610
      9 C9          3.9627    1.3806    4.5964 C.ar      1 <0>        -0.0999
     10 C10         4.3449    0.7881    3.3986 C.ar      1 <0>         0.1745
     11 C11         5.5702    0.1383    3.3060 C.ar      1 <0>        -0.1196
     12 C12         6.4019    0.0777    4.4024 C.ar      1 <0>        -0.1319
     13 C13         7.7626   -0.5422    4.6074 C.3       1 <0>         0.1437
     14 H1          8.4881   -0.0864    3.9336 H         1 <0>         0.1568
     15 C14         6.7667   -2.6328    5.3146 C.3       1 <0>        -0.0152
     16 C15         6.5899   -4.1049    4.9274 C.3       1 <0>         0.0707
     17 N1          7.9190   -4.7295    4.8461 N.am      1 <0>        -0.6295
     18 C16         8.9503   -4.0677    4.0326 C.3       1 <0>         0.0912
     19 C17         9.0341   -2.5971    4.4550 C.3       1 <0>        -0.0246
     20 C18         8.1848   -5.8780    5.4994 C.2       1 <0>         0.5795
     21 O1          9.3135   -6.3297    5.5002 O.2       1 <0>        -0.5091
     22 C19         7.1051   -6.5875    6.2142 C.ar      1 <0>        -0.1718
     23 C20         7.3921   -7.3006    7.3868 C.ar      1 <0>        -0.0472
     24 C21         6.4062   -7.9607    8.0580 C.ar      1 <0>        -0.1240
     25 C22         5.0958   -7.9349    7.5842 C.ar      1 <0>         0.1231
     26 C23         4.7946   -7.2220    6.4071 C.ar      1 <0>        -0.1187
     27 C24         5.8025   -6.5433    5.7267 C.ar      1 <0>        -0.0451
     28 C25         3.3553   -7.3924    6.1879 C.2       1 <0>        -0.2013
     29 C26         2.8954   -8.1566    7.1905 C.2       1 <0>         0.0622
     30 N2          3.9214   -8.4892    8.0329 N.pl3     1 <0>        -0.5887
     31 H2          3.8326   -9.0355    8.8295 H         1 <0>         0.4228
     32 N3          3.5002    0.8505    2.2860 N.am      1 <0>        -0.6706
     33 C27         2.1680    0.9626    2.4569 C.2       1 <0>         0.5485
     34 O2          1.6935    0.9146    3.5720 O.2       1 <0>        -0.5080
     35 C28         1.2681    1.1477    1.2624 C.3       1 <0>        -0.2054
     36 C29        -0.2348    1.2686    1.5221 C.3       1 <0>        -0.1409
     37 C30         0.3332   -0.0069    0.8965 C.3       1 <0>        -0.1479
     38 H3          8.3714    0.8317    9.7238 H         1 <0>         0.1407
     39 H4         10.2112   -0.4362    8.6933 H         1 <0>         0.1409
     40 H5         10.0612   -1.1361    6.3373 H         1 <0>         0.1318
     41 H6          6.3766    1.4057    8.4085 H         1 <0>         0.1366
     42 H7          4.4878    1.7745    6.6261 H         1 <0>         0.1405
     43 H8          3.0125    1.8891    4.6665 H         1 <0>         0.1579
     44 H9          5.8700   -0.3192    2.3747 H         1 <0>         0.1361
     45 H10         7.1672   -2.5684    6.3263 H         1 <0>         0.1361
     46 H11         5.8020   -2.1272    5.2720 H         1 <0>         0.1399
     47 H12         6.0941   -4.1718    3.9590 H         1 <0>         0.0973
     48 H13         5.9921   -4.6133    5.6838 H         1 <0>         0.1459
     49 H14         8.6814   -4.1311    2.9782 H         1 <0>         0.0960
     50 H15         9.9130   -4.5515    4.1975 H         1 <0>         0.1385
     51 H16         9.7139   -2.0656    3.7891 H         1 <0>         0.1435
     52 H17         9.4033   -2.5328    5.4786 H         1 <0>         0.1388
     53 H18         8.4044   -7.3268    7.7623 H         1 <0>         0.1375
     54 H19         6.6416   -8.5061    8.9601 H         1 <0>         0.1324
     55 H20         5.5761   -5.9913    4.8264 H         1 <0>         0.1330
     56 H21         2.7757   -6.9813    5.3747 H         1 <0>         0.1523
     57 H22         1.8675   -8.4638    7.3143 H         1 <0>         0.1781
     58 H23         3.8730    0.8132    1.3913 H         1 <0>         0.4185
     59 H24         1.6864    1.7349    0.4449 H         1 <0>         0.1316
     60 H25        -0.8053    1.9353    0.8755 H         1 <0>         0.1109
     61 H26        -0.5727    1.2142    2.5570 H         1 <0>         0.1112
     62 H27         0.3691   -0.9004    1.5199 H         1 <0>         0.1012
     63 H28         0.1365   -0.1793   -0.1616 H         1 <0>         0.1112
     64 N4          7.6873   -1.9950    4.3485 N.4       1 <0>        -0.3845
     65 H29         7.3294   -2.1461    3.3981 H         1 <0>         0.4263
@<TRIPOS>BOND
     1    1    6 ar
     2    1    2 ar
     3    1   38 1
     4    2    3 ar
     5    2   39 1
     6    3    4 ar
     7    3   40 1
     8    4   13 1
     9    4    5 ar
    10    5    6 ar
    11    5    7 1
    12    6   41 1
    13    7   12 ar
    14    7    8 ar
    15    8    9 ar
    16    8   42 1
    17    9   10 ar
    18    9   43 1
    19   10   11 ar
    20   10   32 1
    21   11   12 ar
    22   11   44 1
    23   12   13 1
    24   13   14 1
    25   13   64 1
    26   15   16 1
    27   15   45 1
    28   15   46 1
    29   15   64 1
    30   16   17 1
    31   16   47 1
    32   16   48 1
    33   17   18 1
    34   17   20 am
    35   18   19 1
    36   18   49 1
    37   18   50 1
    38   19   51 1
    39   19   52 1
    40   19   64 1
    41   20   21 2
    42   20   22 1
    43   22   27 ar
    44   22   23 ar
    45   23   24 ar
    46   23   53 1
    47   24   25 ar
    48   24   54 1
    49   25   30 1
    50   25   26 ar
    51   26   27 ar
    52   26   28 1
    53   27   55 1
    54   28   29 2
    55   28   56 1
    56   29   30 1
    57   29   57 1
    58   30   31 1
    59   32   33 am
    60   32   58 1
    61   33   34 2
    62   33   35 1
    63   35   37 1
    64   35   36 1
    65   35   59 1
    66   36   37 1
    67   36   60 1
    68   36   61 1
    69   37   62 1
    70   37   63 1
    71   64   65 1
@<TRIPOS>MOLECULE
ZINC03833937
   34    36     0     0     0
SMALL
USER_CHARGES

@<TRIPOS>ATOM
      1 C1         -1.2201    1.7485    0.0174 C.ar      1 <0>        -0.0804
      2 C2         -1.2457    3.1286    0.0308 C.ar      1 <0>        -0.1004
      3 C3         -0.0514    3.8477    0.0232 C.ar      1 <0>         0.0043
      4 C4          1.1656    3.1689    0.0079 C.ar      1 <0>        -0.1105
      5 C5          1.1816    1.7843    0.0004 C.ar      1 <0>         0.1364
      6 C6         -0.0126    1.0758    0.0080 C.ar      1 <0>        -0.0605
      7 O1          2.3664    1.1186   -0.0150 O.3       1 <0>        -0.4803
      8 N1         -0.0742    5.2260    0.0304 N.4       1 <0>        -0.0987
      9 N2          0.9884    5.9485    0.0232 N.2       1 <0>        -0.1131
     10 C7          0.5643    7.3584    0.0337 C.3       1 <0>        -0.0355
     11 C8         -0.9502    7.2709    0.0481 C.2       1 <0>         0.0035
     12 C9         -1.2167    5.9486    0.0398 C.2       1 <0>        -0.0759
     13 C10        -1.9151    8.3826    0.0630 C.ar      1 <0>        -0.0226
     14 C11        -2.6006    8.7027    1.2391 C.ar      1 <0>        -0.0687
     15 C12        -3.5027    9.7452    1.2452 C.ar      1 <0>        -0.0439
     16 C13        -3.7310   10.4754    0.0913 C.ar      1 <0>        -0.0033
     17 C14        -3.0575   10.1659   -1.0767 C.ar      1 <0>        -0.0413
     18 C15        -2.1469    9.1283   -1.0981 C.ar      1 <0>        -0.0149
     19 Cl1        -1.2970    8.7457   -2.5627 Cl        1 <0>        -0.0177
     20 N3         -4.7007   11.5936    0.1076 N.pl3     1 <0>         0.0138
     21 O2         -5.2953   11.8691    1.1343 O.2       1 <0>        -0.1288
     22 O3         -4.9041   12.2382   -0.9056 O.3       1 <0>        -0.1309
     23 H1         -2.1461    1.1927    0.0184 H         1 <0>         0.1687
     24 H2         -2.1908    3.6512    0.0426 H         1 <0>         0.1635
     25 H3          2.0937    3.7212    0.0017 H         1 <0>         0.1725
     26 H4          0.0021   -0.0041    0.0020 H         1 <0>         0.1659
     27 H5          2.7006    0.9310   -0.9028 H         1 <0>         0.4132
     28 H6          0.9284    7.8623    0.9290 H         1 <0>         0.2135
     29 H7          0.9132    7.8711   -0.8627 H         1 <0>         0.2180
     30 H8         -2.2097    5.5240    0.0427 H         1 <0>         0.2173
     31 H9         -2.4235    8.1349    2.1405 H         1 <0>         0.1676
     32 H10        -4.0327    9.9932    2.1529 H         1 <0>         0.1764
     33 H11        -3.2410   10.7402   -1.9727 H         1 <0>         0.1787
     34 H12        -0.0572    4.2269    0.0703 H         1 <0>         0.2139
@<TRIPOS>BOND
     1    1    6 ar
     2    1    2 ar
     3    1   23 1
     4    2    3 ar
     5    2   24 1
     6    3    4 ar
     7    3    8 1
     8    4    5 ar
     9    4   25 1
    10    5    6 ar
    11    5    7 1
    12    6   26 1
    13    7   27 1
    14    8   12 1
    15    8    9 2
    16    9   10 1
    17   10   11 1
    18   10   28 1
    19   10   29 1
    20   11   12 2
    21   11   13 1
    22   12   30 1
    23   13   18 ar
    24   13   14 ar
    25   14   15 ar
    26   14   31 1
    27   15   16 ar
    28   15   32 1
    29   16   17 ar
    30   16   20 1
    31   17   18 ar
    32   17   33 1
    33   18   19 1
    34   20   21 2
    35   20   22 1
    36    8   34 1
@<TRIPOS>MOLECULE
ZINC03833938
   36    38     0     0     0
SMALL
USER_CHARGES

@<TRIPOS>ATOM
      1 C1          2.9832   -2.9012    3.8493 C.ar      1 <0>        -0.0703
      2 C2          1.6414   -3.0267    3.5416 C.ar      1 <0>        -0.1123
      3 C3          1.1827   -2.6644    2.2888 C.ar      1 <0>        -0.0856
      4 C4          2.0659   -2.1767    1.3438 C.ar      1 <0>        -0.1641
      5 C5          3.4085   -2.0561    1.6498 C.ar      1 <0>        -0.0889
      6 C6          3.8663   -2.4134    2.9043 C.ar      1 <0>        -0.1124
      7 C7          1.5660   -1.7822   -0.0220 C.3       1 <0>        -0.0111
      8 N1          1.1793   -0.3692   -0.0112 N.4       1 <0>        -0.1134
      9 N2          0.0021   -0.0041    0.0020 N.2       1 <0>        -0.0941
     10 C8         -0.0179    1.4687    0.0101 C.3       1 <0>        -0.0418
     11 C9          1.4583    1.8269   -0.0021 C.2       1 <0>         0.0018
     12 C10         2.0782    0.6235   -0.0144 C.2       1 <0>        -0.0890
     13 C11         2.0698    3.1653   -0.0007 C.ar      1 <0>        -0.0205
     14 C12         2.6355    3.6811   -1.1713 C.ar      1 <0>        -0.0695
     15 C13         3.2066    4.9357   -1.1621 C.ar      1 <0>        -0.0442
     16 C14         3.2215    5.6856    0.0016 C.ar      1 <0>        -0.0038
     17 C15         2.6645    5.1838    1.1641 C.ar      1 <0>        -0.0417
     18 C16         2.0835    3.9314    1.1704 C.ar      1 <0>        -0.0150
     19 Cl1         1.3780    3.3061    2.6281 Cl        1 <0>        -0.0183
     20 N3          3.8366    7.0321    0.0017 N.pl3     1 <0>         0.0139
     21 O1          4.3276    7.4773   -1.0201 O.2       1 <0>        -0.1287
     22 O2          3.8516    7.6947    1.0236 O.3       1 <0>        -0.1316
     23 H1          3.3416   -3.1845    4.8279 H         1 <0>         0.1412
     24 H2          0.9514   -3.4081    4.2797 H         1 <0>         0.1416
     25 H3          0.1345   -2.7628    2.0483 H         1 <0>         0.1376
     26 H4          4.0992   -1.6792    0.9100 H         1 <0>         0.1361
     27 H5          4.9147   -2.3157    3.1446 H         1 <0>         0.1417
     28 H6          0.7020   -2.3933   -0.2831 H         1 <0>         0.1663
     29 H7          2.3560   -1.9371   -0.7568 H         1 <0>         0.1673
     30 H8         -0.5156    1.8528   -0.8803 H         1 <0>         0.2188
     31 H9         -0.4984    1.8432    0.9140 H         1 <0>         0.2081
     32 H10         3.1490    0.4834   -0.0251 H         1 <0>         0.2150
     33 H11         2.6246    3.0980   -2.0803 H         1 <0>         0.1677
     34 H12         3.6433    5.3350   -2.0655 H         1 <0>         0.1761
     35 H13         2.6802    5.7750    2.0678 H         1 <0>         0.1782
     36 H14         1.4423   -1.3339   -0.0237 H         1 <0>         0.2452
@<TRIPOS>BOND
     1    1    6 ar
     2    1    2 ar
     3    1   23 1
     4    2    3 ar
     5    2   24 1
     6    3    4 ar
     7    3   25 1
     8    4    5 ar
     9    4    7 1
    10    5    6 ar
    11    5   26 1
    12    6   27 1
    13    7    8 1
    14    7   28 1
    15    7   29 1
    16    8   12 1
    17    8    9 2
    18    9   10 1
    19   10   11 1
    20   10   30 1
    21   10   31 1
    22   11   12 2
    23   11   13 1
    24   12   32 1
    25   13   18 ar
    26   13   14 ar
    27   14   15 ar
    28   14   33 1
    29   15   16 ar
    30   15   34 1
    31   16   17 ar
    32   16   20 1
    33   17   18 ar
    34   17   35 1
    35   18   19 1
    36   20   21 2
    37   20   22 1
    38    8   36 1
@<TRIPOS>MOLECULE
ZINC03833939
   33    35     0     0     0
SMALL
USER_CHARGES

@<TRIPOS>ATOM
      1 C1         -1.0437   -2.1665   -0.0059 C.ar      1 <0>        -0.0502
      2 C2         -2.1891   -2.9344    0.0068 C.ar      1 <0>        -0.1431
      3 C3         -3.4342   -2.3255    0.0220 C.ar      1 <0>         0.2026
      4 C4         -3.5343   -0.9430    0.0313 C.ar      1 <0>        -0.1454
      5 C5         -2.3943   -0.1670    0.0245 C.ar      1 <0>        -0.0318
      6 C6         -1.1394   -0.7752    0.0088 C.ar      1 <0>        -0.0454
      7 N1          0.0021   -0.0041    0.0020 N.4       1 <0>        -0.0911
      8 N2         -0.0153    1.2807    0.0091 N.2       1 <0>        -0.1119
      9 C7          1.3830    1.7417   -0.0018 C.3       1 <0>        -0.0367
     10 C8          2.1797    0.4508   -0.0163 C.2       1 <0>         0.0063
     11 C9          1.2493   -0.5257   -0.0127 C.2       1 <0>        -0.0815
     12 C10         3.6439    0.2978   -0.0311 C.ar      1 <0>        -0.0236
     13 C11         4.2993   -0.0797   -1.2073 C.ar      1 <0>        -0.0690
     14 C12         5.6706   -0.2205   -1.2135 C.ar      1 <0>        -0.0440
     15 C13         6.3997    0.0111   -0.0596 C.ar      1 <0>        -0.0031
     16 C14         5.7600    0.3853    1.1084 C.ar      1 <0>        -0.0412
     17 C15         4.3876    0.5349    1.1301 C.ar      1 <0>        -0.0147
     18 Cl1         3.5866    1.0105    2.5950 Cl        1 <0>        -0.0177
     19 N3          7.8719   -0.1421   -0.0759 N.pl3     1 <0>         0.0137
     20 O1          8.4387   -0.4710   -1.1026 O.2       1 <0>        -0.1286
     21 O2          8.5166    0.0608    0.9374 O.3       1 <0>        -0.1309
     22 F1         -4.5537   -3.0818    0.0282 F         1 <0>        -0.0972
     23 H1         -0.0740   -2.6417   -0.0230 H         1 <0>         0.1700
     24 H2         -2.1159   -4.0119    0.0003 H         1 <0>         0.1757
     25 H3         -4.5065   -0.4729    0.0435 H         1 <0>         0.1759
     26 H4         -2.4732    0.9101    0.0311 H         1 <0>         0.1769
     27 H5          1.5868    2.3288   -0.8972 H         1 <0>         0.2202
     28 H6          1.6040    2.3192    0.8959 H         1 <0>         0.2132
     29 H7          1.4709   -1.5827   -0.0199 H         1 <0>         0.2161
     30 H8          3.7326   -0.2602   -2.1088 H         1 <0>         0.1678
     31 H9          6.1778   -0.5120   -2.1214 H         1 <0>         0.1764
     32 H10         6.3357    0.5645    2.0044 H         1 <0>         0.1787
     33 H11        -0.8263   -0.5643    0.0062 H         1 <0>         0.2136
@<TRIPOS>BOND
     1    1    6 ar
     2    1    2 ar
     3    1   23 1
     4    2    3 ar
     5    2   24 1
     6    3    4 ar
     7    3   22 1
     8    4    5 ar
     9    4   25 1
    10    5    6 ar
    11    5   26 1
    12    6    7 1
    13    7   11 1
    14    7    8 2
    15    8    9 1
    16    9   10 1
    17    9   27 1
    18    9   28 1
    19   10   11 2
    20   10   12 1
    21   11   29 1
    22   12   17 ar
    23   12   13 ar
    24   13   14 ar
    25   13   30 1
    26   14   15 ar
    27   14   31 1
    28   15   16 ar
    29   15   19 1
    30   16   17 ar
    31   16   32 1
    32   17   18 1
    33   19   20 2
    34   19   21 1
    35    7   33 1
@<TRIPOS>MOLECULE
ZINC03833940
   37    40     0     0     0
SMALL
USER_CHARGES

@<TRIPOS>ATOM
      1 C1         -2.7670   -2.0057   -1.6653 C.ar      1 <0>        -0.0435
      2 C2         -1.6968   -1.1457   -1.5369 C.ar      1 <0>        -0.0660
      3 C3         -1.1313   -0.9220   -0.2779 C.ar      1 <0>        -0.0241
      4 C4         -1.6537   -1.5787    0.8424 C.ar      1 <0>        -0.0132
      5 C5         -2.7286   -2.4323    0.6976 C.ar      1 <0>        -0.0412
      6 C6         -3.2819   -2.6476   -0.5523 C.ar      1 <0>        -0.0015
      7 N1         -4.4303   -3.5698   -0.7001 N.pl3     1 <0>         0.0134
      8 O1         -4.9195   -3.7620   -1.7988 O.2       1 <0>        -0.1277
      9 O2         -4.8859   -4.1364    0.2771 O.3       1 <0>        -0.1303
     10 Cl1        -0.9558   -1.3155    2.4100 Cl        1 <0>        -0.0186
     11 C7          0.0113   -0.0054   -0.1323 C.2       1 <0>         0.0063
     12 C8         -0.0038    1.3433   -0.1709 C.2       1 <0>        -0.0475
     13 N2          1.2398    1.8447    0.0001 N.4       1 <0>        -0.1391
     14 N3          2.1392    0.9408    0.1580 N.2       1 <0>        -0.0540
     15 C9          1.4670   -0.3677    0.0935 C.3       1 <0>        -0.0452
     16 C10         1.5163    3.1958    0.0052 C.ar      1 <0>         0.3027
     17 C11         1.5702    3.9226    1.2183 C.ar      1 <0>        -0.1236
     18 C12         1.3492    3.3164    2.4605 C.ar      1 <0>        -0.1155
     19 C13         1.4149    4.0691    3.5963 C.ar      1 <0>         0.0231
     20 C14         1.6985    5.4334    3.5365 C.ar      1 <0>        -0.0637
     21 C15         1.9185    6.0536    2.3442 C.ar      1 <0>        -0.0503
     22 C16         1.8595    5.3103    1.1553 C.ar      1 <0>         0.1768
     23 N4          2.0680    5.8696   -0.0423 N.ar      1 <0>        -0.4154
     24 C17         2.0053    5.1455   -1.1348 C.ar      1 <0>         0.3106
     25 N5          1.7445    3.8488   -1.1258 N.ar      1 <0>        -0.4625
     26 Cl2         1.1410    3.3186    5.1375 Cl        1 <0>        -0.0098
     27 H1         -3.2046   -2.1792   -2.6373 H         1 <0>         0.1772
     28 H2         -1.2962   -0.6464   -2.4067 H         1 <0>         0.1691
     29 H3         -3.1357   -2.9372    1.5612 H         1 <0>         0.1793
     30 H4         -0.8899    1.9417   -0.3228 H         1 <0>         0.2215
     31 H5          1.5871   -0.9078    1.0327 H         1 <0>         0.2275
     32 H6          1.8495   -0.9580   -0.7391 H         1 <0>         0.2349
     33 H7          1.1288    2.2607    2.5193 H         1 <0>         0.1470
     34 H8          1.7440    6.0072    4.4503 H         1 <0>         0.1714
     35 H9          2.1367    7.1109    2.3137 H         1 <0>         0.1788
     36 H10         2.1793    5.6296   -2.0844 H         1 <0>         0.2379
     37 H11         1.4416    2.8241   -0.0008 H         1 <0>         0.2152
@<TRIPOS>BOND
     1    1    6 ar
     2    1    2 ar
     3    1   27 1
     4    2    3 ar
     5    2   28 1
     6    3    4 ar
     7    3   11 1
     8    4    5 ar
     9    4   10 1
    10    5    6 ar
    11    5   29 1
    12    6    7 1
    13    7    8 2
    14    7    9 1
    15   11   15 1
    16   11   12 2
    17   12   13 1
    18   12   30 1
    19   13   14 2
    20   13   16 1
    21   14   15 1
    22   15   31 1
    23   15   32 1
    24   16   25 ar
    25   16   17 ar
    26   17   22 ar
    27   17   18 ar
    28   18   19 ar
    29   18   33 1
    30   19   20 ar
    31   19   26 1
    32   20   21 ar
    33   20   34 1
    34   21   22 ar
    35   21   35 1
    36   22   23 ar
    37   23   24 ar
    38   24   25 ar
    39   24   36 1
    40   13   37 1
@<TRIPOS>MOLECULE
ZINC03833941
   72    78     0     0     0
SMALL
USER_CHARGES

@<TRIPOS>ATOM
      1 C1         11.6356   -1.9536    2.7214 C.3       1 <0>        -0.0560
      2 C2         11.5220   -2.9002    3.8886 C.2       1 <0>         0.0388
      3 C3         10.8741   -4.1614    3.8996 C.2       1 <0>         0.0340
      4 C4         11.0571   -4.6109    5.1685 C.2       1 <0>        -0.0399
      5 O1         11.7530   -3.6586    5.8104 O.3       1 <0>         0.1115
      6 N1         11.9972   -2.7211    5.0871 N.2       1 <0>        -0.3515
      7 C5         10.5747   -5.9184    5.7419 C.3       1 <0>        -0.0762
      8 N2         10.2030   -4.8014    2.8406 N.am      1 <0>        -0.6419
      9 C6          9.4598   -4.0789    1.9792 C.2       1 <0>         0.7067
     10 O2          9.3976   -2.8701    2.0954 O.2       1 <0>        -0.5487
     11 N3          8.7854   -4.6962    0.9889 N.am      1 <0>        -0.6810
     12 C7          7.9353   -3.9603    0.1574 C.ar      1 <0>         0.1883
     13 C8          7.7930   -4.3133   -1.1794 C.ar      1 <0>        -0.1141
     14 C9          6.9568   -3.5904   -2.0015 C.ar      1 <0>        -0.0624
     15 C10         6.2484   -2.4987   -1.4934 C.ar      1 <0>        -0.0495
     16 C11         6.3955   -2.1504   -0.1529 C.ar      1 <0>        -0.1317
     17 C12         7.2323   -2.8750    0.6670 C.ar      1 <0>        -0.0872
     18 C13         5.5193   -0.9485    0.1032 C.3       1 <0>         0.1420
     19 H1          6.1265   -0.1041    0.4294 H         1 <0>         0.1570
     20 C14         4.8507   -0.6304   -1.2117 C.ar      1 <0>        -0.1475
     21 C15         5.2977   -1.5641   -2.1448 C.ar      1 <0>        -0.0290
     22 C16         4.8284   -1.4975   -3.4583 C.ar      1 <0>        -0.0879
     23 C17         3.9309   -0.5148   -3.8199 C.ar      1 <0>        -0.0847
     24 C18         3.4925    0.4069   -2.8859 C.ar      1 <0>        -0.1034
     25 C19         3.9529    0.3467   -1.5826 C.ar      1 <0>        -0.0851
     26 C20         3.7062   -0.0826    1.4542 C.3       1 <0>        -0.0248
     27 C21         2.7915   -0.4070    2.6401 C.3       1 <0>         0.0907
     28 N4          2.0148   -1.6129    2.3148 N.am      1 <0>        -0.6292
     29 C22         2.7410   -2.8029    1.8458 C.3       1 <0>         0.0754
     30 C23         3.6571   -2.3822    0.6856 C.3       1 <0>        -0.0148
     31 C24         0.6738   -1.6289    2.4483 C.2       1 <0>         0.5792
     32 O3          0.0826   -0.6158    2.7680 O.2       1 <0>        -0.5079
     33 C25        -0.0774   -2.8769    2.2063 C.ar      1 <0>        -0.1707
     34 C26        -1.3224   -2.8315    1.5630 C.ar      1 <0>        -0.0487
     35 C27        -2.0282   -3.9748    1.3328 C.ar      1 <0>        -0.1236
     36 C28        -1.5178   -5.2077    1.7350 C.ar      1 <0>         0.1221
     37 C29        -0.2678   -5.2667    2.3819 C.ar      1 <0>        -0.1182
     38 C30         0.4512   -4.0971    2.6161 C.ar      1 <0>        -0.0416
     39 C31        -0.0237   -6.6844    2.6626 C.2       1 <0>        -0.2014
     40 C32        -1.0861   -7.3623    2.2015 C.2       1 <0>         0.0618
     41 N5         -1.9860   -6.4961    1.6420 N.pl3     1 <0>        -0.5889
     42 H2         -2.8300   -6.7538    1.2392 H         1 <0>         0.4227
     43 H3         10.8468   -1.2040    2.7835 H         1 <0>         0.0857
     44 H4         12.6077   -1.4612    2.7463 H         1 <0>         0.0692
     45 H5         11.5345   -2.5112    1.7903 H         1 <0>         0.0728
     46 H6         11.3372   -6.6832    5.5942 H         1 <0>         0.0927
     47 H7         10.3820   -5.7986    6.8080 H         1 <0>         0.0922
     48 H8          9.6561   -6.2192    5.2382 H         1 <0>         0.0867
     49 H9         10.2754   -5.7625    2.7309 H         1 <0>         0.4150
     50 H10         8.8898   -5.6510    0.8529 H         1 <0>         0.4167
     51 H11         8.3393   -5.1570   -1.5746 H         1 <0>         0.1444
     52 H12         6.8491   -3.8675   -3.0397 H         1 <0>         0.1420
     53 H13         7.3424   -2.5995    1.7055 H         1 <0>         0.1463
     54 H14         5.1678   -2.2153   -4.1904 H         1 <0>         0.1365
     55 H15         3.5691   -0.4644   -4.8362 H         1 <0>         0.1406
     56 H16         2.7896    1.1743   -3.1745 H         1 <0>         0.1410
     57 H17         3.6089    1.0667   -0.8549 H         1 <0>         0.1321
     58 H18         3.0997    0.2001    0.5938 H         1 <0>         0.1392
     59 H19         4.3678    0.7418    1.7201 H         1 <0>         0.1437
     60 H20         2.1138    0.4278    2.8189 H         1 <0>         0.1388
     61 H21         3.3952   -0.5891    3.5291 H         1 <0>         0.0963
     62 H22         3.3400   -3.2108    2.6600 H         1 <0>         0.0968
     63 H23         2.0299   -3.5528    1.4992 H         1 <0>         0.1422
     64 H24         3.0513   -2.0675   -0.1641 H         1 <0>         0.1362
     65 H25         4.2831   -3.2254    0.3936 H         1 <0>         0.1388
     66 H26        -1.7265   -1.8811    1.2471 H         1 <0>         0.1364
     67 H27        -2.9861   -3.9250    0.8365 H         1 <0>         0.1321
     68 H28         1.4099   -4.1368    3.1116 H         1 <0>         0.1303
     69 H29         0.8429   -7.1030    3.1526 H         1 <0>         0.1521
     70 H30        -1.2108   -8.4335    2.2597 H         1 <0>         0.1778
     71 N6          4.5241   -1.2756    1.1452 N.4       1 <0>        -0.3850
     72 H31         5.0172   -1.5705    1.9962 H         1 <0>         0.4274
@<TRIPOS>BOND
     1    1    2 1
     2    1   43 1
     3    1   44 1
     4    1   45 1
     5    2    6 2
     6    2    3 1
     7    3    4 2
     8    3    8 1
     9    4    5 1
    10    4    7 1
    11    5    6 1
    12    7   46 1
    13    7   47 1
    14    7   48 1
    15    8    9 am
    16    8   49 1
    17    9   10 2
    18    9   11 am
    19   11   12 1
    20   11   50 1
    21   12   17 ar
    22   12   13 ar
    23   13   14 ar
    24   13   51 1
    25   14   15 ar
    26   14   52 1
    27   15   21 1
    28   15   16 ar
    29   16   17 ar
    30   16   18 1
    31   17   53 1
    32   18   19 1
    33   18   20 1
    34   18   71 1
    35   20   25 ar
    36   20   21 ar
    37   21   22 ar
    38   22   23 ar
    39   22   54 1
    40   23   24 ar
    41   23   55 1
    42   24   25 ar
    43   24   56 1
    44   25   57 1
    45   26   27 1
    46   26   58 1
    47   26   59 1
    48   26   71 1
    49   27   28 1
    50   27   60 1
    51   27   61 1
    52   28   29 1
    53   28   31 am
    54   29   30 1
    55   29   62 1
    56   29   63 1
    57   30   64 1
    58   30   65 1
    59   30   71 1
    60   31   32 2
    61   31   33 1
    62   33   38 ar
    63   33   34 ar
    64   34   35 ar
    65   34   66 1
    66   35   36 ar
    67   35   67 1
    68   36   41 1
    69   36   37 ar
    70   37   38 ar
    71   37   39 1
    72   38   68 1
    73   39   40 2
    74   39   69 1
    75   40   41 1
    76   40   70 1
    77   41   42 1
    78   71   72 1
@<TRIPOS>MOLECULE
ZINC03833942
   68    74     0     0     0
SMALL
USER_CHARGES

@<TRIPOS>ATOM
      1 C1          1.2627   -7.6598   -1.8008 C.ar      1 <0>        -0.0802
      2 C2          1.0202   -6.3686   -1.3668 C.ar      1 <0>        -0.1254
      3 C3          2.0515   -5.4547   -1.3007 C.ar      1 <0>        -0.0531
      4 C4          3.3419   -5.8352   -1.6730 C.ar      1 <0>        -0.1517
      5 C5          3.5787   -7.1380   -2.1150 C.ar      1 <0>        -0.0837
      6 C6          2.5393   -8.0434   -2.1716 C.ar      1 <0>        -0.1239
      7 C7          4.4517   -4.8612   -1.6052 C.2       1 <0>         0.5744
      8 O1          4.2415   -3.7259   -1.2247 O.2       1 <0>        -0.5262
      9 N1          5.6964   -5.2317   -1.9653 N.am      1 <0>        -0.6707
     10 C8          6.7642   -4.3453   -1.8014 C.ar      1 <0>         0.1674
     11 C9          8.0197   -4.8262   -1.4478 C.ar      1 <0>        -0.1122
     12 C10         9.0746   -3.9553   -1.2858 C.ar      1 <0>        -0.0643
     13 C11         8.8857   -2.5842   -1.4765 C.ar      1 <0>        -0.0486
     14 C12         7.6254   -2.1088   -1.8307 C.ar      1 <0>        -0.1364
     15 C13         6.5720   -2.9817   -1.9918 C.ar      1 <0>        -0.0874
     16 C14         7.7266   -0.6090   -1.9653 C.3       1 <0>         0.1425
     17 H1          7.4755   -0.3056   -2.9816 H         1 <0>         0.1563
     18 C15         9.1614   -0.2573   -1.6575 C.ar      1 <0>        -0.1472
     19 C16         9.8306   -1.4453   -1.3694 C.ar      1 <0>        -0.0293
     20 C17        11.1886   -1.4046   -1.0466 C.ar      1 <0>        -0.0873
     21 C18        11.8530   -0.1965   -1.0146 C.ar      1 <0>        -0.0847
     22 C19        11.1795    0.9773   -1.3018 C.ar      1 <0>        -0.1037
     23 C20         9.8341    0.9446   -1.6229 C.ar      1 <0>        -0.0839
     24 C21         7.3072   -0.1326    0.3714 C.3       1 <0>        -0.0108
     25 C22         6.2561    0.4046    1.3484 C.3       1 <0>         0.0917
     26 N2          5.9377    1.7915    0.9762 N.am      1 <0>        -0.6287
     27 C23         5.5753    2.0711   -0.4215 C.3       1 <0>         0.0692
     28 C24         6.6589    1.4693   -1.3302 C.3       1 <0>        -0.0241
     29 C25         5.9719    2.7789    1.8929 C.2       1 <0>         0.5783
     30 O2          6.3612    2.5478    3.0212 O.2       1 <0>        -0.5092
     31 C26         5.5366    4.1415    1.5267 C.ar      1 <0>        -0.1706
     32 C27         6.1512    5.2553    2.1161 C.ar      1 <0>        -0.0473
     33 C28         5.7602    6.5196    1.7888 C.ar      1 <0>        -0.1242
     34 C29         4.7410    6.7206    0.8598 C.ar      1 <0>         0.1226
     35 C30         4.1158    5.6097    0.2602 C.ar      1 <0>        -0.1186
     36 C31         4.5171    4.3192    0.5964 C.ar      1 <0>        -0.0455
     37 C32         3.1104    6.1565   -0.6555 C.2       1 <0>        -0.2012
     38 C33         3.1771    7.4930   -0.5557 C.2       1 <0>         0.0617
     39 N3          4.1475    7.8466    0.3424 N.pl3     1 <0>        -0.5890
     40 H2          4.3816    8.7577    0.5787 H         1 <0>         0.4226
     41 H3          0.4518   -8.3714   -1.8506 H         1 <0>         0.1341
     42 H4          0.0214   -6.0756   -1.0788 H         1 <0>         0.1356
     43 H5          1.8610   -4.4473   -0.9615 H         1 <0>         0.1369
     44 H6          4.5739   -7.4374   -2.4087 H         1 <0>         0.1256
     45 H7          2.7217   -9.0526   -2.5102 H         1 <0>         0.1350
     46 H8          5.8512   -6.1137   -2.3383 H         1 <0>         0.4195
     47 H9          8.1685   -5.8856   -1.3000 H         1 <0>         0.1446
     48 H10        10.0486   -4.3327   -1.0114 H         1 <0>         0.1421
     49 H11         5.5971   -2.6068   -2.2667 H         1 <0>         0.1498
     50 H12        11.7183   -2.3187   -0.8224 H         1 <0>         0.1367
     51 H13        12.9033   -0.1667   -0.7647 H         1 <0>         0.1409
     52 H14        11.7048    1.9206   -1.2756 H         1 <0>         0.1407
     53 H15         9.3104    1.8620   -1.8474 H         1 <0>         0.1301
     54 H16         8.2411    0.4133    0.5054 H         1 <0>         0.1357
     55 H17         7.4743   -1.1925    0.5633 H         1 <0>         0.1372
     56 H18         6.6529    0.3797    2.3633 H         1 <0>         0.1365
     57 H19         5.3553   -0.2063    1.2894 H         1 <0>         0.0963
     58 H20         4.6103    1.6173   -0.6473 H         1 <0>         0.1001
     59 H21         5.5218    3.1486   -0.5773 H         1 <0>         0.1473
     60 H22         7.6018    1.9929   -1.1724 H         1 <0>         0.1363
     61 H23         6.3563    1.5712   -2.3723 H         1 <0>         0.1434
     62 H24         6.9422    5.1102    2.8370 H         1 <0>         0.1373
     63 H25         6.2422    7.3684    2.2509 H         1 <0>         0.1321
     64 H26         4.0411    3.4641    0.1397 H         1 <0>         0.1340
     65 H27         2.4396    5.5914   -1.2857 H         1 <0>         0.1527
     66 H28         2.5591    8.1872   -1.1058 H         1 <0>         0.1779
     67 N4          6.8011    0.0326   -1.0086 N.4       1 <0>        -0.3862
     68 H29         5.8812   -0.4175   -1.0818 H         1 <0>         0.4304
@<TRIPOS>BOND
     1    1    6 ar
     2    1    2 ar
     3    1   41 1
     4    2    3 ar
     5    2   42 1
     6    3    4 ar
     7    3   43 1
     8    4    5 ar
     9    4    7 1
    10    5    6 ar
    11    5   44 1
    12    6   45 1
    13    7    8 2
    14    7    9 am
    15    9   10 1
    16    9   46 1
    17   10   15 ar
    18   10   11 ar
    19   11   12 ar
    20   11   47 1
    21   12   13 ar
    22   12   48 1
    23   13   19 1
    24   13   14 ar
    25   14   15 ar
    26   14   16 1
    27   15   49 1
    28   16   17 1
    29   16   18 1
    30   16   67 1
    31   18   23 ar
    32   18   19 ar
    33   19   20 ar
    34   20   21 ar
    35   20   50 1
    36   21   22 ar
    37   21   51 1
    38   22   23 ar
    39   22   52 1
    40   23   53 1
    41   24   25 1
    42   24   54 1
    43   24   55 1
    44   24   67 1
    45   25   26 1
    46   25   56 1
    47   25   57 1
    48   26   27 1
    49   26   29 am
    50   27   28 1
    51   27   58 1
    52   27   59 1
    53   28   60 1
    54   28   61 1
    55   28   67 1
    56   29   30 2
    57   29   31 1
    58   31   36 ar
    59   31   32 ar
    60   32   33 ar
    61   32   62 1
    62   33   34 ar
    63   33   63 1
    64   34   39 1
    65   34   35 ar
    66   35   36 ar
    67   35   37 1
    68   36   64 1
    69   37   38 2
    70   37   65 1
    71   38   39 1
    72   38   66 1
    73   39   40 1
    74   67   68 1
@<TRIPOS>MOLECULE
ZINC03833943
   79    85     0     0     0
SMALL
USER_CHARGES

@<TRIPOS>ATOM
      1 C1        -10.3290    2.3073   -1.8909 C.3       1 <0>         0.0245
      2 O1         -8.9609    2.1422   -2.2693 O.3       1 <0>        -0.3051
      3 C2         -8.2409    3.2743   -2.4918 C.ar      1 <0>         0.1091
      4 C3         -8.8367    4.5165   -2.3434 C.ar      1 <0>        -0.1708
      5 C4         -8.1050    5.6662   -2.5755 C.ar      1 <0>        -0.0972
      6 C5         -6.7770    5.5802   -2.9502 C.ar      1 <0>        -0.0798
      7 C6         -6.1750    4.3441   -3.0944 C.ar      1 <0>        -0.1561
      8 C7         -6.9027    3.1879   -2.8633 C.ar      1 <0>         0.1010
      9 O2         -6.3119    1.9711   -3.0047 O.3       1 <0>        -0.3040
     10 C8         -4.9371    1.9588   -3.3942 C.3       1 <0>         0.0270
     11 C9         -5.9841    6.8367   -3.2025 C.3       1 <0>        -0.0930
     12 C10        -6.1078    7.2260   -4.6531 C.2       1 <0>         0.5161
     13 O3         -6.7742    6.5497   -5.4078 O.2       1 <0>        -0.4971
     14 N1         -5.4779    8.3257   -5.1117 N.am      1 <0>        -0.6795
     15 C11        -5.5096    8.6318   -6.4757 C.ar      1 <0>         0.1701
     16 C12        -6.6475    8.3551   -7.2245 C.ar      1 <0>        -0.0908
     17 C13        -6.6824    8.6557   -8.5684 C.ar      1 <0>        -0.0649
     18 C14        -5.5728    9.2405   -9.1837 C.ar      1 <0>        -0.0489
     19 C15        -4.4357    9.5152   -8.4277 C.ar      1 <0>        -0.1364
     20 C16        -4.4053    9.2183   -7.0828 C.ar      1 <0>        -0.1141
     21 C17        -3.4154   10.1359   -9.3503 C.3       1 <0>         0.1435
     22 H1         -3.1637   11.1403   -9.0101 H         1 <0>         0.1567
     23 C18        -4.0655   10.1958  -10.7108 C.ar      1 <0>        -0.1497
     24 C19        -5.3444    9.6595  -10.5886 C.ar      1 <0>        -0.0284
     25 C20        -6.1697    9.5943  -11.7132 C.ar      1 <0>        -0.0880
     26 C21        -5.7147   10.0596  -12.9292 C.ar      1 <0>        -0.0838
     27 C22        -4.4421   10.5907  -13.0406 C.ar      1 <0>        -0.1038
     28 C23        -3.6188   10.6582  -11.9307 C.ar      1 <0>        -0.0842
     29 C24        -1.1025   10.0182  -10.0571 C.3       1 <0>        -0.0225
     30 C25         0.1820    9.1921   -9.9319 C.3       1 <0>         0.0909
     31 N2         -0.0784    7.8415  -10.4526 N.am      1 <0>        -0.6296
     32 C26        -1.2510    7.1137   -9.9440 C.3       1 <0>         0.0718
     33 C27        -2.4791    8.0216  -10.0687 C.3       1 <0>        -0.0153
     34 C28         0.7360    7.2853  -11.3712 C.2       1 <0>         0.5805
     35 O4          1.6388    7.9381  -11.8580 O.2       1 <0>        -0.5105
     36 C29         0.5319    5.8831  -11.7863 C.ar      1 <0>        -0.1829
     37 C30         0.0333    4.9466  -10.8696 C.ar      1 <0>        -0.0900
     38 C31        -0.1664    3.6499  -11.2395 C.ar      1 <0>        -0.1257
     39 C32         0.1357    3.2351  -12.5353 C.ar      1 <0>         0.1205
     40 C33         0.6427    4.1651  -13.4640 C.ar      1 <0>        -0.1180
     41 C34         0.8399    5.4908  -13.0854 C.ar      1 <0>         0.0083
     42 C35         0.8508    3.4210  -14.7096 C.2       1 <0>        -0.1924
     43 C36         0.4778    2.1536  -14.4742 C.2       1 <0>         0.0578
     44 N3          0.0484    2.0255  -13.1810 N.pl3     1 <0>        -0.5876
     45 H2         -0.2706    1.2021  -12.7795 H         1 <0>         0.4219
     46 H3        -10.7861    1.3287   -1.7446 H         1 <0>         0.1040
     47 H4        -10.3831    2.8760   -0.9626 H         1 <0>         0.0571
     48 H5        -10.8612    2.8431   -2.6768 H         1 <0>         0.0563
     49 H6         -9.8740    4.5864   -2.0508 H         1 <0>         0.1385
     50 H7         -8.5717    6.6337   -2.4636 H         1 <0>         0.1261
     51 H8         -5.1375    4.2797   -3.3876 H         1 <0>         0.1316
     52 H9         -4.5903    0.9283   -3.4704 H         1 <0>         0.1025
     53 H10        -4.3435    2.4877   -2.6486 H         1 <0>         0.0546
     54 H11        -4.8289    2.4510   -4.3607 H         1 <0>         0.0519
     55 H12        -6.3694    7.6413   -2.5762 H         1 <0>         0.1126
     56 H13        -4.9359    6.6593   -2.9620 H         1 <0>         0.1090
     57 H14        -5.0025    8.9048   -4.4956 H         1 <0>         0.4174
     58 H15        -7.5068    7.9034   -6.7513 H         1 <0>         0.1553
     59 H16        -7.5682    8.4389   -9.1470 H         1 <0>         0.1400
     60 H17        -3.5223    9.4379   -6.5011 H         1 <0>         0.1359
     61 H18        -7.1637    9.1801  -11.6308 H         1 <0>         0.1366
     62 H19        -6.3544   10.0090  -13.7980 H         1 <0>         0.1409
     63 H20        -4.0907   10.9530  -13.9954 H         1 <0>         0.1410
     64 H21        -2.6259   11.0735  -12.0197 H         1 <0>         0.1307
     65 H22        -1.3384   10.1664  -11.1109 H         1 <0>         0.1369
     66 H23        -0.9610   10.9860   -9.5760 H         1 <0>         0.1435
     67 H24         0.4769    9.1301   -8.8844 H         1 <0>         0.0955
     68 H25         0.9793    9.6598  -10.5096 H         1 <0>         0.1387
     69 H26        -1.0939    6.8520   -8.8976 H         1 <0>         0.0960
     70 H27        -1.4049    6.2070  -10.5291 H         1 <0>         0.1468
     71 H28        -3.3359    7.5414   -9.5960 H         1 <0>         0.1388
     72 H29        -2.6958    8.1977  -11.1223 H         1 <0>         0.1368
     73 H30        -0.1991    5.2569   -9.8616 H         1 <0>         0.1335
     74 H31        -0.5553    2.9402  -10.5243 H         1 <0>         0.1299
     75 H32         1.2286    6.2076  -13.7934 H         1 <0>         0.1364
     76 H33         1.2311    3.8172  -15.6395 H         1 <0>         0.1551
     77 H34         0.5113    1.3530  -15.1983 H         1 <0>         0.1792
     78 N4         -2.1990    9.2974   -9.3746 N.4       1 <0>        -0.3850
     79 H35        -1.9141    9.0953   -8.4091 H         1 <0>         0.4261
@<TRIPOS>BOND
     1    1    2 1
     2    1   46 1
     3    1   47 1
     4    1   48 1
     5    2    3 1
     6    3    8 ar
     7    3    4 ar
     8    4    5 ar
     9    4   49 1
    10    5    6 ar
    11    5   50 1
    12    6    7 ar
    13    6   11 1
    14    7    8 ar
    15    7   51 1
    16    8    9 1
    17    9   10 1
    18   10   52 1
    19   10   53 1
    20   10   54 1
    21   11   12 1
    22   11   55 1
    23   11   56 1
    24   12   13 2
    25   12   14 am
    26   14   15 1
    27   14   57 1
    28   15   20 ar
    29   15   16 ar
    30   16   17 ar
    31   16   58 1
    32   17   18 ar
    33   17   59 1
    34   18   24 1
    35   18   19 ar
    36   19   20 ar
    37   19   21 1
    38   20   60 1
    39   21   22 1
    40   21   23 1
    41   21   78 1
    42   23   28 ar
    43   23   24 ar
    44   24   25 ar
    45   25   26 ar
    46   25   61 1
    47   26   27 ar
    48   26   62 1
    49   27   28 ar
    50   27   63 1
    51   28   64 1
    52   29   30 1
    53   29   65 1
    54   29   66 1
    55   29   78 1
    56   30   31 1
    57   30   67 1
    58   30   68 1
    59   31   32 1
    60   31   34 am
    61   32   33 1
    62   32   69 1
    63   32   70 1
    64   33   71 1
    65   33   72 1
    66   33   78 1
    67   34   35 2
    68   34   36 1
    69   36   41 ar
    70   36   37 ar
    71   37   38 ar
    72   37   73 1
    73   38   39 ar
    74   38   74 1
    75   39   44 1
    76   39   40 ar
    77   40   41 ar
    78   40   42 1
    79   41   75 1
    80   42   43 2
    81   42   76 1
    82   43   44 1
    83   43   77 1
    84   44   45 1
    85   78   79 1
@<TRIPOS>MOLECULE
ZINC03833944
   66    71     0     0     0
SMALL
USER_CHARGES

@<TRIPOS>ATOM
      1 C1          1.3691   -6.4233   -3.5923 C.3       1 <0>        -0.1696
      2 C2          2.4482   -5.3427   -3.6861 C.3       1 <0>         0.1302
      3 N1          3.5796   -5.7067   -2.8295 N.am      1 <0>        -0.7344
      4 C3          4.6544   -4.8972   -2.7527 C.2       1 <0>         0.7044
      5 O1          4.6851   -3.8649   -3.3944 O.2       1 <0>        -0.5742
      6 N2          5.6952   -5.2320   -1.9647 N.am      1 <0>        -0.6841
      7 C4          6.7651   -4.3456   -1.8053 C.ar      1 <0>         0.1928
      8 C5          8.0337   -4.8321   -1.5120 C.ar      1 <0>        -0.1220
      9 C6          9.0898   -3.9618   -1.3538 C.ar      1 <0>        -0.0596
     10 C7          8.8888   -2.5859   -1.4879 C.ar      1 <0>        -0.0581
     11 C8          7.6151   -2.1050   -1.7819 C.ar      1 <0>        -0.1316
     12 C9          6.5608   -2.9774   -1.9395 C.ar      1 <0>        -0.0966
     13 C10         7.7052   -0.6008   -1.8649 C.3       1 <0>         0.1427
     14 H1          7.4186   -0.2621   -2.8605 H         1 <0>         0.1569
     15 C11         9.1481   -0.2524   -1.5930 C.ar      1 <0>        -0.1487
     16 C12         9.8318   -1.4464   -1.3711 C.ar      1 <0>        -0.0261
     17 C13        11.1996   -1.4099   -1.0923 C.ar      1 <0>        -0.0892
     18 C14        11.8594   -0.2000   -1.0381 C.ar      1 <0>        -0.0844
     19 C15        11.1713    0.9798   -1.2587 C.ar      1 <0>        -0.1054
     20 C16         9.8160    0.9512   -1.5354 C.ar      1 <0>        -0.0836
     21 C17         7.3904   -0.1665    0.4962 C.3       1 <0>        -0.0123
     22 C18         6.3741    0.3254    1.5322 C.3       1 <0>         0.0919
     23 N3          5.9950    1.7062    1.1957 N.am      1 <0>        -0.6292
     24 C19         5.5538    1.9916   -0.1780 C.3       1 <0>         0.0696
     25 C20         6.6080    1.4352   -1.1482 C.3       1 <0>        -0.0239
     26 C21         6.0453    2.6828    2.1231 C.2       1 <0>         0.5786
     27 O2          6.4925    2.4485    3.2291 O.2       1 <0>        -0.5091
     28 C22         5.5573    4.0374    1.7959 C.ar      1 <0>        -0.1710
     29 C23         6.1774    5.1608    2.3609 C.ar      1 <0>        -0.0475
     30 C24         5.7382    6.4179    2.0690 C.ar      1 <0>        -0.1239
     31 C25         4.6635    6.6019    1.2010 C.ar      1 <0>         0.1226
     32 C26         4.0323    5.4813    0.6264 C.ar      1 <0>        -0.1185
     33 C27         4.4828    4.1981    0.9264 C.ar      1 <0>        -0.0452
     34 C28         2.9637    6.0112   -0.2256 C.2       1 <0>        -0.2013
     35 C29         3.0038    7.3480   -0.1162 C.2       1 <0>         0.0620
     36 N4          4.0147    7.7174    0.7292 N.pl3     1 <0>        -0.5890
     37 H2          4.2399    8.6320    0.9612 H         1 <0>         0.4227
     38 H3          0.5274   -6.1526   -4.2296 H         1 <0>         0.0815
     39 H4          1.7811   -7.3776   -3.9204 H         1 <0>         0.0650
     40 H5          1.0302   -6.5097   -2.5599 H         1 <0>         0.0641
     41 H6          2.0362   -4.3884   -3.3580 H         1 <0>         0.0705
     42 H7          2.7871   -5.2564   -4.7185 H         1 <0>         0.0719
     43 H8          3.5551   -6.5302   -2.3176 H         1 <0>         0.4024
     44 H9          5.7023   -6.0878   -1.5080 H         1 <0>         0.4157
     45 H10         8.1919   -5.8954   -1.4081 H         1 <0>         0.1433
     46 H11        10.0740   -4.3436   -1.1256 H         1 <0>         0.1411
     47 H12         5.5754   -2.5982   -2.1671 H         1 <0>         0.1539
     48 H13        11.7406   -2.3285   -0.9195 H         1 <0>         0.1363
     49 H14        12.9173   -0.1733   -0.8224 H         1 <0>         0.1403
     50 H15        11.6929    1.9245   -1.2151 H         1 <0>         0.1402
     51 H16         9.2808    1.8734   -1.7076 H         1 <0>         0.1292
     52 H17         8.3127    0.4066    0.5908 H         1 <0>         0.1368
     53 H18         7.5993   -1.2230    0.6648 H         1 <0>         0.1380
     54 H19         6.8224    0.3005    2.5254 H         1 <0>         0.1369
     55 H20         5.4906   -0.3126    1.5100 H         1 <0>         0.0941
     56 H21         4.5930    1.5106   -0.3614 H         1 <0>         0.0996
     57 H22         5.4596    3.0687   -0.3160 H         1 <0>         0.1472
     58 H23         7.5412    1.9860   -1.0307 H         1 <0>         0.1363
     59 H24         6.2500    1.5404   -2.1723 H         1 <0>         0.1441
     60 H25         7.0112    5.0289    3.0345 H         1 <0>         0.1372
     61 H26         6.2250    7.2743    2.5118 H         1 <0>         0.1322
     62 H27         4.0024    3.3356    0.4886 H         1 <0>         0.1335
     63 H28         2.2722    5.4353   -0.8227 H         1 <0>         0.1528
     64 H29         2.3392    8.0316   -0.6235 H         1 <0>         0.1780
     65 N5          6.8102   -0.0002   -0.8542 N.4       1 <0>        -0.3856
     66 H30         5.9019   -0.4779   -0.8872 H         1 <0>         0.4277
@<TRIPOS>BOND
     1    1    2 1
     2    1   38 1
     3    1   39 1
     4    1   40 1
     5    2    3 1
     6    2   41 1
     7    2   42 1
     8    3    4 am
     9    3   43 1
    10    4    5 2
    11    4    6 am
    12    6    7 1
    13    6   44 1
    14    7   12 ar
    15    7    8 ar
    16    8    9 ar
    17    8   45 1
    18    9   10 ar
    19    9   46 1
    20   10   16 1
    21   10   11 ar
    22   11   12 ar
    23   11   13 1
    24   12   47 1
    25   13   14 1
    26   13   15 1
    27   13   65 1
    28   15   20 ar
    29   15   16 ar
    30   16   17 ar
    31   17   18 ar
    32   17   48 1
    33   18   19 ar
    34   18   49 1
    35   19   20 ar
    36   19   50 1
    37   20   51 1
    38   21   22 1
    39   21   52 1
    40   21   53 1
    41   21   65 1
    42   22   23 1
    43   22   54 1
    44   22   55 1
    45   23   24 1
    46   23   26 am
    47   24   25 1
    48   24   56 1
    49   24   57 1
    50   25   58 1
    51   25   59 1
    52   25   65 1
    53   26   27 2
    54   26   28 1
    55   28   33 ar
    56   28   29 ar
    57   29   30 ar
    58   29   60 1
    59   30   31 ar
    60   30   61 1
    61   31   36 1
    62   31   32 ar
    63   32   33 ar
    64   32   34 1
    65   33   62 1
    66   34   35 2
    67   34   63 1
    68   35   36 1
    69   35   64 1
    70   36   37 1
    71   65   66 1
@<TRIPOS>MOLECULE
ZINC03833945
   69    74     0     0     0
SMALL
USER_CHARGES

@<TRIPOS>ATOM
      1 C1          1.0630   -6.2371   -1.9804 C.3       1 <0>        -0.1656
      2 C2          2.0859   -5.3460   -1.2729 C.3       1 <0>         0.1543
      3 C3          1.9288   -5.4927    0.2419 C.3       1 <0>        -0.1668
      4 N1          3.4387   -5.7491   -1.6649 N.am      1 <0>        -0.7303
      5 C4          4.4507   -4.8611   -1.6040 C.2       1 <0>         0.7106
      6 O1          4.2410   -3.7255   -1.2237 O.2       1 <0>        -0.5831
      7 N2          5.6952   -5.2320   -1.9647 N.am      1 <0>        -0.6873
      8 C5          6.7641   -4.3451   -1.8015 C.ar      1 <0>         0.1879
      9 C6          8.0195   -4.8261   -1.4486 C.ar      1 <0>        -0.1162
     10 C7          9.0745   -3.9552   -1.2865 C.ar      1 <0>        -0.0636
     11 C8          8.8857   -2.5841   -1.4767 C.ar      1 <0>        -0.0527
     12 C9          7.6252   -2.1088   -1.8303 C.ar      1 <0>        -0.1358
     13 C10         6.5719   -2.9817   -1.9917 C.ar      1 <0>        -0.0867
     14 C11         7.7263   -0.6089   -1.9644 C.3       1 <0>         0.1427
     15 H1          7.4748   -0.3052   -2.9805 H         1 <0>         0.1556
     16 C12         9.1611   -0.2571   -1.6569 C.ar      1 <0>        -0.1479
     17 C13         9.8305   -1.4452   -1.3694 C.ar      1 <0>        -0.0277
     18 C14        11.1885   -1.4045   -1.0465 C.ar      1 <0>        -0.0884
     19 C15        11.8527   -0.1963   -1.0138 C.ar      1 <0>        -0.0847
     20 C16        11.1788    0.9776   -1.2996 C.ar      1 <0>        -0.1047
     21 C17         9.8334    0.9449   -1.6204 C.ar      1 <0>        -0.0840
     22 C18         7.3082   -0.1322    0.3724 C.3       1 <0>        -0.0104
     23 C19         6.2574    0.4045    1.3501 C.3       1 <0>         0.0918
     24 N3          5.9379    1.7911    0.9778 N.am      1 <0>        -0.6286
     25 C20         5.5743    2.0702   -0.4197 C.3       1 <0>         0.0693
     26 C21         6.6578    1.4689   -1.3290 C.3       1 <0>        -0.0241
     27 C22         5.9721    2.7788    1.8942 C.2       1 <0>         0.5782
     28 O2          6.3622    2.5481    3.0224 O.2       1 <0>        -0.5095
     29 C23         5.5357    4.1410    1.5281 C.ar      1 <0>        -0.1704
     30 C24         6.1502    5.2553    2.1167 C.ar      1 <0>        -0.0472
     31 C25         5.7582    6.5193    1.7894 C.ar      1 <0>        -0.1243
     32 C26         4.7382    6.7195    0.8611 C.ar      1 <0>         0.1225
     33 C27         4.1132    5.6081    0.2622 C.ar      1 <0>        -0.1186
     34 C28         4.5154    4.3179    0.5985 C.ar      1 <0>        -0.0455
     35 C29         3.1067    6.1540   -0.6528 C.2       1 <0>        -0.2012
     36 C30         3.1728    7.4907   -0.5534 C.2       1 <0>         0.0615
     37 N4          4.1436    7.8450    0.3438 N.pl3     1 <0>        -0.5890
     38 H2          4.3774    8.7563    0.5798 H         1 <0>         0.4226
     39 H3          1.2289   -7.2764   -1.6969 H         1 <0>         0.0644
     40 H4          0.0565   -5.9371   -1.6887 H         1 <0>         0.0796
     41 H5          1.1749   -6.1325   -3.0596 H         1 <0>         0.0638
     42 H6          1.9200   -4.3066   -1.5564 H         1 <0>         0.0906
     43 H7          0.9223   -5.1928    0.5336 H         1 <0>         0.0711
     44 H8          2.0947   -6.5320    0.5254 H         1 <0>         0.0591
     45 H9          2.6576   -4.8579    0.7459 H         1 <0>         0.0593
     46 H10         3.6060   -6.6551   -1.9684 H         1 <0>         0.4016
     47 H11         5.8496   -6.1141   -2.3374 H         1 <0>         0.4156
     48 H12         8.1683   -5.8856   -1.3013 H         1 <0>         0.1431
     49 H13        10.0484   -4.3327   -1.0119 H         1 <0>         0.1410
     50 H14         5.5968   -2.6068   -2.2656 H         1 <0>         0.1513
     51 H15        11.7183   -2.3187   -0.8227 H         1 <0>         0.1364
     52 H16        12.9030   -0.1665   -0.7639 H         1 <0>         0.1404
     53 H17        11.7039    1.9210   -1.2726 H         1 <0>         0.1403
     54 H18         9.3094    1.8625   -1.8434 H         1 <0>         0.1297
     55 H19         8.2418    0.4143    0.5058 H         1 <0>         0.1353
     56 H20         7.4761   -1.1920    0.5645 H         1 <0>         0.1374
     57 H21         6.6550    0.3801    2.3647 H         1 <0>         0.1362
     58 H22         5.3570   -0.2070    1.2919 H         1 <0>         0.0963
     59 H23         4.6095    1.6158   -0.6448 H         1 <0>         0.1001
     60 H24         5.5201    3.1476   -0.5757 H         1 <0>         0.1469
     61 H25         7.6004    1.9931   -1.1720 H         1 <0>         0.1361
     62 H26         6.3543    1.5704   -2.3710 H         1 <0>         0.1432
     63 H27         6.9418    5.1108    2.8370 H         1 <0>         0.1372
     64 H28         6.2401    7.3685    2.2509 H         1 <0>         0.1320
     65 H29         4.0396    3.4624    0.1423 H         1 <0>         0.1340
     66 H30         2.4358    5.5884   -1.2824 H         1 <0>         0.1527
     67 H31         2.5540    8.1844   -1.1032 H         1 <0>         0.1778
     68 N5          6.8011    0.0323   -1.0072 N.4       1 <0>        -0.3857
     69 H32         5.8814   -0.4183   -1.0797 H         1 <0>         0.4308
@<TRIPOS>BOND
     1    1    2 1
     2    1   39 1
     3    1   40 1
     4    1   41 1
     5    2    3 1
     6    2    4 1
     7    2   42 1
     8    3   43 1
     9    3   44 1
    10    3   45 1
    11    4    5 am
    12    4   46 1
    13    5    6 2
    14    5    7 am
    15    7    8 1
    16    7   47 1
    17    8   13 ar
    18    8    9 ar
    19    9   10 ar
    20    9   48 1
    21   10   11 ar
    22   10   49 1
    23   11   17 1
    24   11   12 ar
    25   12   13 ar
    26   12   14 1
    27   13   50 1
    28   14   15 1
    29   14   16 1
    30   14   68 1
    31   16   21 ar
    32   16   17 ar
    33   17   18 ar
    34   18   19 ar
    35   18   51 1
    36   19   20 ar
    37   19   52 1
    38   20   21 ar
    39   20   53 1
    40   21   54 1
    41   22   23 1
    42   22   55 1
    43   22   56 1
    44   22   68 1
    45   23   24 1
    46   23   57 1
    47   23   58 1
    48   24   25 1
    49   24   27 am
    50   25   26 1
    51   25   59 1
    52   25   60 1
    53   26   61 1
    54   26   62 1
    55   26   68 1
    56   27   28 2
    57   27   29 1
    58   29   34 ar
    59   29   30 ar
    60   30   31 ar
    61   30   63 1
    62   31   32 ar
    63   31   64 1
    64   32   37 1
    65   32   33 ar
    66   33   34 ar
    67   33   35 1
    68   34   65 1
    69   35   36 2
    70   35   66 1
    71   36   37 1
    72   36   67 1
    73   37   38 1
    74   68   69 1
@<TRIPOS>MOLECULE
ZINC03833946
   65    71     0     0     0
SMALL
USER_CHARGES

@<TRIPOS>ATOM
      1 C1         11.7369   -0.6859   -0.9153 C.ar      1 <0>        -0.0845
      2 C2         11.1950    0.5827   -1.0187 C.ar      1 <0>        -0.1041
      3 C3          9.8642    0.7430   -1.3616 C.ar      1 <0>        -0.0851
      4 C4          9.0752   -0.3606   -1.6018 C.ar      1 <0>        -0.1481
      5 C5          9.6112   -1.6430   -1.4990 C.ar      1 <0>        -0.0279
      6 C6         10.9552   -1.7971   -1.1525 C.ar      1 <0>        -0.0877
      7 C7          8.5600   -2.6447   -1.8036 C.ar      1 <0>        -0.0521
      8 C8          8.6029   -4.0408   -1.8339 C.ar      1 <0>        -0.0605
      9 C9          7.4713   -4.7592   -2.1516 C.ar      1 <0>        -0.1153
     10 C10         6.2831   -4.0990   -2.4430 C.ar      1 <0>         0.1710
     11 C11         6.2357   -2.7099   -2.4124 C.ar      1 <0>        -0.0973
     12 C12         7.3663   -1.9894   -2.0961 C.ar      1 <0>        -0.1310
     13 C13         7.6229   -0.5063   -1.9849 C.3       1 <0>         0.1427
     14 H1          7.4369   -0.0204   -2.9427 H         1 <0>         0.1576
     15 C14         7.0329   -0.5302    0.3632 C.3       1 <0>        -0.0130
     16 C15         6.0006   -0.0272    1.3779 C.3       1 <0>         0.0921
     17 N1          6.0088    1.4435    1.3628 N.am      1 <0>        -0.6293
     18 C16         5.8765    2.1268    0.0672 C.3       1 <0>         0.0695
     19 C17         6.9196    1.5390   -0.8965 C.3       1 <0>        -0.0270
     20 C18         6.1288    2.1463    2.5065 C.2       1 <0>         0.5786
     21 O1          6.3285    1.5682    3.5572 O.2       1 <0>        -0.5090
     22 C19         6.0178    3.6185    2.4834 C.ar      1 <0>        -0.1710
     23 C20         6.7668    4.3917    3.3818 C.ar      1 <0>        -0.0473
     24 C21         6.6749    5.7517    3.3732 C.ar      1 <0>        -0.1239
     25 C22         5.8323    6.3925    2.4666 C.ar      1 <0>         0.1227
     26 C23         5.0749    5.6269    1.5585 C.ar      1 <0>        -0.1187
     27 C24         5.1705    4.2376    1.5696 C.ar      1 <0>        -0.0455
     28 C25         4.3125    6.5880    0.7563 C.2       1 <0>        -0.2014
     29 C26         4.6300    7.8115    1.2069 C.2       1 <0>         0.0620
     30 N2          5.5384    7.7129    2.2258 N.pl3     1 <0>        -0.5889
     31 H2          5.9186    8.4644    2.7071 H         1 <0>         0.4228
     32 N3          5.1374   -4.8309   -2.7655 N.am      1 <0>        -0.6633
     33 C27         4.1855   -4.2830   -3.5466 C.2       1 <0>         0.6160
     34 O2          4.3653   -3.1888   -4.0482 O.2       1 <0>        -0.5016
     35 C28         2.9334   -5.0052   -3.7921 C.2       1 <0>        -0.1077
     36 C29         1.8917   -4.5676   -4.5592 C.2       1 <0>        -0.0944
     37 C30         0.9099   -5.5698   -4.5160 C.2       1 <0>        -0.2265
     38 C31         1.3891   -6.5626   -3.7345 C.2       1 <0>         0.0176
     39 O3          2.6108   -6.2211   -3.3045 O.3       1 <0>        -0.1662
     40 H3         12.7762   -0.8067   -0.6474 H         1 <0>         0.1407
     41 H4         11.8118    1.4494   -0.8318 H         1 <0>         0.1407
     42 H5          9.4433    1.7343   -1.4421 H         1 <0>         0.1317
     43 H6         11.3820   -2.7857   -1.0700 H         1 <0>         0.1367
     44 H7          9.5242   -4.5573   -1.6085 H         1 <0>         0.1428
     45 H8          7.5074   -5.8384   -2.1746 H         1 <0>         0.1456
     46 H9          5.3131   -2.1959   -2.6380 H         1 <0>         0.1527
     47 H10         8.0337   -0.2536    0.6950 H         1 <0>         0.1359
     48 H11         6.9633   -1.6149    0.2808 H         1 <0>         0.1385
     49 H12         6.2619   -0.3846    2.3739 H         1 <0>         0.1369
     50 H13         5.0103   -0.3907    1.1036 H         1 <0>         0.0946
     51 H14         4.8745    1.9664   -0.3307 H         1 <0>         0.0998
     52 H15         6.0558    3.1942    0.1962 H         1 <0>         0.1475
     53 H16         7.9219    1.7868   -0.5473 H         1 <0>         0.1393
     54 H17         6.7683    1.9550   -1.8926 H         1 <0>         0.1440
     55 H18         7.4229    3.9047    4.0881 H         1 <0>         0.1373
     56 H19         7.2573    6.3348    4.0712 H         1 <0>         0.1322
     57 H20         4.5920    3.6460    0.8755 H         1 <0>         0.1338
     58 H21         3.6223    6.3555   -0.0412 H         1 <0>         0.1528
     59 H22         4.2308    8.7374    0.8199 H         1 <0>         0.1780
     60 H23         5.0271   -5.7332   -2.4271 H         1 <0>         0.4251
     61 H24         1.8342   -3.6316   -5.0949 H         1 <0>         0.1641
     62 H25        -0.0481   -5.5512   -5.0143 H         1 <0>         0.1642
     63 H26         0.8736   -7.4820   -3.4989 H         1 <0>         0.2182
     64 N4          6.7361    0.0725   -0.9545 N.4       1 <0>        -0.3853
     65 H27         5.7606   -0.1314   -1.2015 H         1 <0>         0.4278
@<TRIPOS>BOND
     1    1    6 ar
     2    1    2 ar
     3    1   40 1
     4    2    3 ar
     5    2   41 1
     6    3    4 ar
     7    3   42 1
     8    4   13 1
     9    4    5 ar
    10    5    6 ar
    11    5    7 1
    12    6   43 1
    13    7   12 ar
    14    7    8 ar
    15    8    9 ar
    16    8   44 1
    17    9   10 ar
    18    9   45 1
    19   10   11 ar
    20   10   32 1
    21   11   12 ar
    22   11   46 1
    23   12   13 1
    24   13   14 1
    25   13   64 1
    26   15   16 1
    27   15   47 1
    28   15   48 1
    29   15   64 1
    30   16   17 1
    31   16   49 1
    32   16   50 1
    33   17   18 1
    34   17   20 am
    35   18   19 1
    36   18   51 1
    37   18   52 1
    38   19   53 1
    39   19   54 1
    40   19   64 1
    41   20   21 2
    42   20   22 1
    43   22   27 ar
    44   22   23 ar
    45   23   24 ar
    46   23   55 1
    47   24   25 ar
    48   24   56 1
    49   25   30 1
    50   25   26 ar
    51   26   27 ar
    52   26   28 1
    53   27   57 1
    54   28   29 2
    55   28   58 1
    56   29   30 1
    57   29   59 1
    58   30   31 1
    59   32   33 am
    60   32   60 1
    61   33   34 2
    62   33   35 1
    63   35   39 1
    64   35   36 2
    65   36   37 1
    66   36   61 1
    67   37   38 2
    68   37   62 1
    69   38   39 1
    70   38   63 1
    71   64   65 1
@<TRIPOS>MOLECULE
ZINC03833947
   54    59     0     0     0
SMALL
USER_CHARGES

@<TRIPOS>ATOM
      1 C1         -2.7279    5.8752    3.5985 C.ar      1 <0>        -0.0848
      2 C2         -2.2162    7.0521    3.0819 C.ar      1 <0>        -0.1022
      3 C3         -1.3178    7.0154    2.0305 C.ar      1 <0>        -0.0854
      4 C4         -0.9387    5.8055    1.4883 C.ar      1 <0>        -0.1470
      5 C5         -1.4524    4.6161    1.9975 C.ar      1 <0>        -0.0345
      6 C6         -2.3545    4.6605    3.0622 C.ar      1 <0>        -0.0858
      7 C7         -0.8883    3.4705    1.2415 C.ar      1 <0>        -0.0323
      8 C8         -1.0915    2.0951    1.3691 C.ar      1 <0>        -0.0874
      9 C9         -0.4358    1.2209    0.5275 C.ar      1 <0>        -0.0835
     10 C10         0.4234    1.7013   -0.4446 C.ar      1 <0>        -0.1028
     11 C11         0.6290    3.0630   -0.5771 C.ar      1 <0>        -0.0814
     12 C12        -0.0222    3.9442    0.2601 C.ar      1 <0>        -0.1591
     13 C13        -0.0033    5.4499    0.3588 C.3       1 <0>         0.1414
     14 C14        -0.1736    7.4814   -0.9477 C.3       1 <0>        -0.0239
     15 C15        -0.5183    8.0249   -2.3383 C.3       1 <0>         0.0766
     16 N1         -1.9133    7.6738   -2.6446 N.am      1 <0>        -0.6299
     17 C16        -2.3295    6.2723   -2.4842 C.3       1 <0>         0.0918
     18 C17        -1.9135    5.7977   -1.0878 C.3       1 <0>        -0.0121
     19 C18        -2.7871    8.6115   -3.0616 C.2       1 <0>         0.5793
     20 O1         -3.9589    8.3255   -3.2139 O.2       1 <0>        -0.5071
     21 C19        -2.3212    9.9860   -3.3334 C.ar      1 <0>        -0.1720
     22 C20        -3.1119   11.0809   -2.9570 C.ar      1 <0>        -0.0496
     23 C21        -2.6927   12.3559   -3.1955 C.ar      1 <0>        -0.1238
     24 C22        -1.4735   12.5868   -3.8301 C.ar      1 <0>         0.1219
     25 C23        -0.6725   11.4950   -4.2183 C.ar      1 <0>        -0.1184
     26 C24        -1.1003   10.1935   -3.9679 C.ar      1 <0>        -0.0390
     27 C25         0.5197   12.0709   -4.8470 C.2       1 <0>        -0.2009
     28 C26         0.3778   13.4046   -4.8046 C.2       1 <0>         0.0618
     29 N2         -0.8067   13.7295   -4.2008 N.pl3     1 <0>        -0.5890
     30 H1         -1.1280   14.6332   -4.0558 H         1 <0>         0.4227
     31 H2         -3.4258    5.9078    4.4221 H         1 <0>         0.1416
     32 H3         -2.5157    8.0007    3.5025 H         1 <0>         0.1414
     33 H4         -0.9161    7.9351    1.6315 H         1 <0>         0.1305
     34 H5         -2.7595    3.7443    3.4659 H         1 <0>         0.1369
     35 H6         -1.7609    1.7158    2.1270 H         1 <0>         0.1366
     36 H7         -0.5939    0.1573    0.6276 H         1 <0>         0.1416
     37 H8          0.9342    1.0124   -1.1011 H         1 <0>         0.1422
     38 H9          1.3002    3.4361   -1.3366 H         1 <0>         0.1330
     39 H10         1.0049    5.7987    0.5826 H         1 <0>         0.1559
     40 H11        -0.7643    8.0048   -0.1959 H         1 <0>         0.1361
     41 H12         0.8871    7.6355   -0.7495 H         1 <0>         0.1442
     42 H13         0.1432    7.5779   -3.0805 H         1 <0>         0.0988
     43 H14        -0.4032    9.1088   -2.3467 H         1 <0>         0.1415
     44 H15        -1.8421    5.6568   -3.2404 H         1 <0>         0.0953
     45 H16        -3.4118    6.1974   -2.5890 H         1 <0>         0.1367
     46 H17        -2.1146    4.7308   -0.9913 H         1 <0>         0.1378
     47 H18        -2.4799    6.3443   -0.3338 H         1 <0>         0.1356
     48 H19        -4.0605   10.9126   -2.4689 H         1 <0>         0.1358
     49 H20        -3.3100   13.1901   -2.8962 H         1 <0>         0.1320
     50 H21        -0.4898    9.3529   -4.2632 H         1 <0>         0.1299
     51 H22         1.3533   11.5259   -5.2647 H         1 <0>         0.1528
     52 H23         1.0927   14.1165   -5.1901 H         1 <0>         0.1781
     53 N3         -0.4626    6.0310   -0.9197 N.4       1 <0>        -0.3850
     54 H24         0.0392    5.5767   -1.6918 H         1 <0>         0.4272
@<TRIPOS>BOND
     1    1    6 ar
     2    1    2 ar
     3    1   31 1
     4    2    3 ar
     5    2   32 1
     6    3    4 ar
     7    3   33 1
     8    4   13 1
     9    4    5 ar
    10    5    6 ar
    11    5    7 1
    12    6   34 1
    13    7   12 ar
    14    7    8 ar
    15    8    9 ar
    16    8   35 1
    17    9   10 ar
    18    9   36 1
    19   10   11 ar
    20   10   37 1
    21   11   12 ar
    22   11   38 1
    23   12   13 1
    24   13   39 1
    25   13   53 1
    26   14   15 1
    27   14   40 1
    28   14   41 1
    29   14   53 1
    30   15   16 1
    31   15   42 1
    32   15   43 1
    33   16   17 1
    34   16   19 am
    35   17   18 1
    36   17   44 1
    37   17   45 1
    38   18   46 1
    39   18   47 1
    40   18   53 1
    41   19   20 2
    42   19   21 1
    43   21   26 ar
    44   21   22 ar
    45   22   23 ar
    46   22   48 1
    47   23   24 ar
    48   23   49 1
    49   24   29 1
    50   24   25 ar
    51   25   26 ar
    52   25   27 1
    53   26   50 1
    54   27   28 2
    55   27   51 1
    56   28   29 1
    57   28   52 1
    58   29   30 1
    59   53   54 1
@<TRIPOS>MOLECULE
ZINC03833948
   56    61     0     0     0
SMALL
USER_CHARGES

@<TRIPOS>ATOM
      1 C1         -5.3892    6.7489    1.2611 C.ar      1 <0>        -0.0862
      2 C2         -4.0271    6.5101    1.3000 C.ar      1 <0>        -0.0869
      3 C3         -3.3920    5.9371    0.2127 C.ar      1 <0>        -0.0857
      4 C4         -4.1159    5.6029   -0.9124 C.ar      1 <0>        -0.1342
      5 C5         -5.4869    5.8393   -0.9611 C.ar      1 <0>        -0.0557
      6 C6         -6.1212    6.4172    0.1402 C.ar      1 <0>        -0.0701
      7 C7         -6.0190    5.3923   -2.2722 C.ar      1 <0>         0.0261
      8 C8         -7.3130    5.4166   -2.7962 C.ar      1 <0>        -0.0889
      9 C9         -7.5514    4.9325   -4.0655 C.ar      1 <0>        -0.0191
     10 C10        -6.5127    4.4220   -4.8234 C.ar      1 <0>        -0.0353
     11 C11        -5.2290    4.3900   -4.3086 C.ar      1 <0>        -0.0174
     12 C12        -4.9805    4.8767   -3.0426 C.ar      1 <0>        -0.1625
     13 C13        -3.7150    4.9797   -2.2270 C.3       1 <0>         0.1436
     14 H1         -3.2946    3.9881   -2.0596 H         1 <0>         0.1658
     15 C14        -1.4174    5.7421   -2.2752 C.3       1 <0>        -0.0233
     16 C15        -0.3895    6.4991   -3.1229 C.3       1 <0>         0.0906
     17 N1         -0.8811    7.8680   -3.3411 N.am      1 <0>        -0.6289
     18 C16        -2.2493    8.0430   -3.8514 C.3       1 <0>         0.0552
     19 C17        -3.2040    7.2252   -2.9751 C.3       1 <0>        -0.0196
     20 C18        -0.0983    8.9338   -3.0806 C.2       1 <0>         0.5803
     21 O1          1.0637    8.7714   -2.7622 O.2       1 <0>        -0.5066
     22 C19        -0.6521   10.2989   -3.1820 C.ar      1 <0>        -0.1804
     23 C20        -1.9907   10.5389   -2.8408 C.ar      1 <0>        -0.0966
     24 C21        -2.5148   11.7946   -2.9232 C.ar      1 <0>        -0.1225
     25 C22        -1.7262   12.8569   -3.3613 C.ar      1 <0>         0.1186
     26 C23        -0.3814   12.6277   -3.7126 C.ar      1 <0>        -0.1150
     27 C24         0.1534   11.3450   -3.6215 C.ar      1 <0>         0.0097
     28 C25         0.1571   13.9278   -4.1227 C.2       1 <0>        -0.1913
     29 C26        -0.8391   14.8187   -4.0021 C.2       1 <0>         0.0590
     30 N2         -1.9704   14.1959   -3.5487 N.pl3     1 <0>        -0.5870
     31 H2         -2.8194   14.6352   -3.3840 H         1 <0>         0.4220
     32 N3         -6.7763    3.9038   -6.1847 N.pl3     1 <0>         0.0196
     33 O2         -7.9070    3.9270   -6.6368 O.2       1 <0>        -0.1323
     34 O3         -5.8616    3.4588   -6.8546 O.3       1 <0>        -0.1445
     35 H3         -5.8814    7.1964    2.1120 H         1 <0>         0.1464
     36 H4         -3.4587    6.7717    2.1803 H         1 <0>         0.1466
     37 H5         -2.3286    5.7512    0.2451 H         1 <0>         0.1368
     38 H6         -7.1843    6.6056    0.1139 H         1 <0>         0.1417
     39 H7         -8.1268    5.8139   -2.2077 H         1 <0>         0.1621
     40 H8         -8.5529    4.9517   -4.4691 H         1 <0>         0.1718
     41 H9         -4.4202    3.9873   -4.9003 H         1 <0>         0.1632
     42 H10        -1.4638    6.1835   -1.2797 H         1 <0>         0.1379
     43 H11        -1.1235    4.6954   -2.1961 H         1 <0>         0.1469
     44 H12        -0.2654    5.9973   -4.0825 H         1 <0>         0.0978
     45 H13         0.5668    6.5323   -2.6008 H         1 <0>         0.1399
     46 H14        -2.3040    7.6896   -4.8811 H         1 <0>         0.0977
     47 H15        -2.5265    9.0964   -3.8106 H         1 <0>         0.1587
     48 H16        -4.2059    7.2541   -3.4035 H         1 <0>         0.1366
     49 H17        -3.2256    7.6460   -1.9698 H         1 <0>         0.1380
     50 H18        -2.6115    9.7215   -2.5050 H         1 <0>         0.1304
     51 H19        -3.5463   11.9659   -2.6529 H         1 <0>         0.1294
     52 H20         1.1837   11.1638   -3.8899 H         1 <0>         0.1379
     53 H21         1.1638   14.1302   -4.4575 H         1 <0>         0.1563
     54 H22        -0.7598   15.8716   -4.2290 H         1 <0>         0.1802
     55 N4         -2.7349    5.8228   -2.9425 N.4       1 <0>        -0.3869
     56 H23        -2.6415    5.4807   -3.9061 H         1 <0>         0.4301
@<TRIPOS>BOND
     1    1    6 ar
     2    1    2 ar
     3    1   35 1
     4    2    3 ar
     5    2   36 1
     6    3    4 ar
     7    3   37 1
     8    4   13 1
     9    4    5 ar
    10    5    6 ar
    11    5    7 1
    12    6   38 1
    13    7   12 ar
    14    7    8 ar
    15    8    9 ar
    16    8   39 1
    17    9   10 ar
    18    9   40 1
    19   10   11 ar
    20   10   32 1
    21   11   12 ar
    22   11   41 1
    23   12   13 1
    24   13   14 1
    25   13   55 1
    26   15   16 1
    27   15   42 1
    28   15   43 1
    29   15   55 1
    30   16   17 1
    31   16   44 1
    32   16   45 1
    33   17   18 1
    34   17   20 am
    35   18   19 1
    36   18   46 1
    37   18   47 1
    38   19   48 1
    39   19   49 1
    40   19   55 1
    41   20   21 2
    42   20   22 1
    43   22   27 ar
    44   22   23 ar
    45   23   24 ar
    46   23   50 1
    47   24   25 ar
    48   24   51 1
    49   25   30 1
    50   25   26 ar
    51   26   27 ar
    52   26   28 1
    53   27   52 1
    54   28   29 2
    55   28   53 1
    56   29   30 1
    57   29   54 1
    58   30   31 1
    59   32   33 2
    60   32   34 1
    61   55   56 1
@<TRIPOS>MOLECULE
ZINC03833949
   56    61     0     0     0
SMALL
USER_CHARGES

@<TRIPOS>ATOM
      1 C1         -4.1115    6.3727   -1.7925 C.ar      1 <0>        -0.0821
      2 C2         -4.8849    5.2267   -1.7457 C.ar      1 <0>        -0.0924
      3 C3         -4.3618    4.0576   -1.2226 C.ar      1 <0>        -0.0841
      4 C4         -3.0648    4.0302   -0.7552 C.ar      1 <0>        -0.1423
      5 C5         -2.2787    5.1782   -0.7980 C.ar      1 <0>        -0.0427
      6 C6         -2.8147    6.3556   -1.3230 C.ar      1 <0>        -0.0772
      7 C7         -0.9390    4.8810   -0.2334 C.ar      1 <0>        -0.0216
      8 C8          0.1854    5.6902   -0.0586 C.ar      1 <0>        -0.0321
      9 C9          1.3314    5.1654    0.5014 C.ar      1 <0>        -0.0081
     10 C10         1.3723    3.8387    0.8914 C.ar      1 <0>        -0.0448
     11 C11         0.2619    3.0311    0.7212 C.ar      1 <0>        -0.0763
     12 C12        -0.8881    3.5473    0.1622 C.ar      1 <0>        -0.1138
     13 C13        -2.2307    2.9306   -0.1449 C.3       1 <0>         0.1374
     14 H1         -2.6970    2.5708    0.7723 H         1 <0>         0.1670
     15 C14        -1.4577    2.2913   -2.3486 C.3       1 <0>        -0.0177
     16 C15        -1.1470    1.0857   -3.2421 C.3       1 <0>         0.0778
     17 N1         -2.3789    0.3004   -3.4121 N.am      1 <0>        -0.6293
     18 C16        -3.1287   -0.0875   -2.2077 C.3       1 <0>         0.0907
     19 C17        -3.3614    1.1643   -1.3550 C.3       1 <0>        -0.0248
     20 C18        -2.8091   -0.0548   -4.6390 C.2       1 <0>         0.5814
     21 O1         -3.7903   -0.7627   -4.7578 O.2       1 <0>        -0.5041
     22 C19        -2.0886    0.4158   -5.8388 C.ar      1 <0>        -0.1789
     23 C20        -0.6953    0.2805   -5.9173 C.ar      1 <0>        -0.0863
     24 C21        -0.0164    0.7056   -7.0203 C.ar      1 <0>        -0.1222
     25 C22        -0.7012    1.2921   -8.0831 C.ar      1 <0>         0.1176
     26 C23        -2.1006    1.4386   -8.0141 C.ar      1 <0>        -0.1149
     27 C24        -2.7923    0.9986   -6.8884 C.ar      1 <0>        -0.0016
     28 C25        -2.5029    2.0794   -9.2695 C.2       1 <0>        -0.1949
     29 C26        -1.3843    2.2725   -9.9853 C.2       1 <0>         0.0598
     30 N2         -0.2998    1.8081   -9.2915 N.pl3     1 <0>        -0.5878
     31 H2          0.6171    1.8383   -9.6068 H         1 <0>         0.4222
     32 N3          2.5223    6.0249    0.6853 N.pl3     1 <0>         0.0140
     33 O2          3.5357    5.5639    1.1792 O.2       1 <0>        -0.1314
     34 O3          2.4889    7.1933    0.3428 O.3       1 <0>        -0.1355
     35 H3         -4.5248    7.2844   -2.1979 H         1 <0>         0.1461
     36 H4         -5.8999    5.2457   -2.1143 H         1 <0>         0.1460
     37 H5         -4.9688    3.1652   -1.1827 H         1 <0>         0.1372
     38 H6         -2.2142    7.2524   -1.3617 H         1 <0>         0.1411
     39 H7          0.1578    6.7263   -0.3620 H         1 <0>         0.1668
     40 H8          2.2723    3.4328    1.3291 H         1 <0>         0.1728
     41 H9          0.2958    1.9957    1.0267 H         1 <0>         0.1593
     42 H10        -2.1454    2.9601   -2.8663 H         1 <0>         0.1384
     43 H11        -0.5340    2.8235   -2.1216 H         1 <0>         0.1359
     44 H12        -0.3815    0.4688   -2.7714 H         1 <0>         0.0983
     45 H13        -0.7941    1.4284   -4.2147 H         1 <0>         0.1429
     46 H14        -2.5537   -0.8172   -1.6376 H         1 <0>         0.0974
     47 H15        -4.0878   -0.5195   -2.4932 H         1 <0>         0.1396
     48 H16        -3.8182    0.8791   -0.4073 H         1 <0>         0.1463
     49 H17        -4.0225    1.8487   -1.8865 H         1 <0>         0.1401
     50 H18        -0.1549   -0.1689   -5.0973 H         1 <0>         0.1300
     51 H19         1.0564    0.5913   -7.0691 H         1 <0>         0.1306
     52 H20        -3.8651    1.1088   -6.8303 H         1 <0>         0.1329
     53 H21        -3.5077    2.3455   -9.5625 H         1 <0>         0.1546
     54 H22        -1.3456    2.7274  -10.9640 H         1 <0>         0.1793
     55 N4         -2.0557    1.8052   -1.0862 N.4       1 <0>        -0.3855
     56 H23        -1.4257    1.1127   -0.6645 H         1 <0>         0.4293
@<TRIPOS>BOND
     1    1    6 ar
     2    1    2 ar
     3    1   35 1
     4    2    3 ar
     5    2   36 1
     6    3    4 ar
     7    3   37 1
     8    4   13 1
     9    4    5 ar
    10    5    6 ar
    11    5    7 1
    12    6   38 1
    13    7   12 ar
    14    7    8 ar
    15    8    9 ar
    16    8   39 1
    17    9   10 ar
    18    9   32 1
    19   10   11 ar
    20   10   40 1
    21   11   12 ar
    22   11   41 1
    23   12   13 1
    24   13   14 1
    25   13   55 1
    26   15   16 1
    27   15   42 1
    28   15   43 1
    29   15   55 1
    30   16   17 1
    31   16   44 1
    32   16   45 1
    33   17   18 1
    34   17   20 am
    35   18   19 1
    36   18   46 1
    37   18   47 1
    38   19   48 1
    39   19   49 1
    40   19   55 1
    41   20   21 2
    42   20   22 1
    43   22   27 ar
    44   22   23 ar
    45   23   24 ar
    46   23   50 1
    47   24   25 ar
    48   24   51 1
    49   25   30 1
    50   25   26 ar
    51   26   27 ar
    52   26   28 1
    53   27   52 1
    54   28   29 2
    55   28   53 1
    56   29   30 1
    57   29   54 1
    58   30   31 1
    59   32   33 2
    60   32   34 1
    61   55   56 1
@<TRIPOS>MOLECULE
ZINC03833950
   54    59     0     0     0
SMALL
USER_CHARGES

@<TRIPOS>ATOM
      1 C1         -0.4253    1.9516    3.8299 C.ar      1 <0>        -0.0843
      2 C2          0.0101    1.3827    4.9901 C.ar      1 <0>        -0.1253
      3 C3          0.8752    2.0790    5.8314 C.ar      1 <0>         0.1199
      4 C4          1.3029    3.3733    5.4745 C.ar      1 <0>        -0.1169
      5 C5          2.1886    3.8189    6.5541 C.2       1 <0>        -0.1932
      6 C6          2.2419    2.8229    7.4517 C.2       1 <0>         0.0583
      7 N1          1.4636    1.7767    7.0358 N.pl3     1 <0>        -0.5880
      8 H1          1.3451    0.9444    7.5197 H         1 <0>         0.4219
      9 C7          0.8612    3.9497    4.2866 C.ar      1 <0>         0.0045
     10 C8         -0.0029    3.2362    3.4610 C.ar      1 <0>        -0.1820
     11 C9         -0.4797    3.8354    2.1986 C.2       1 <0>         0.5805
     12 O1         -0.7659    5.0163    2.1561 O.2       1 <0>        -0.5074
     13 N2         -0.5977    3.0733    1.0932 N.am      1 <0>        -0.6303
     14 C10        -0.1392    1.6757    1.0879 C.3       1 <0>         0.0784
     15 C11         0.7737    1.4676   -0.1251 C.3       1 <0>        -0.0299
     16 C12        -0.2339    3.3325   -1.3034 C.3       1 <0>        -0.0160
     17 C13        -1.1887    3.6170   -0.1390 C.3       1 <0>         0.0925
     18 C14         0.8447    1.5547   -2.5438 C.3       1 <0>         0.1448
     19 C15         2.1672    2.2817   -2.5347 C.ar      1 <0>        -0.1391
     20 C16         3.2324    2.2565   -1.6618 C.ar      1 <0>        -0.0604
     21 C17         4.3452    3.0445   -1.9020 C.ar      1 <0>        -0.0812
     22 C18         4.3898    3.8594   -3.0200 C.ar      1 <0>        -0.0574
     23 C19         3.3279    3.8910   -3.8995 C.ar      1 <0>        -0.0748
     24 C20         2.2025    3.0993   -3.6630 C.ar      1 <0>        -0.0224
     25 C21         0.9417    2.9399   -4.4289 C.ar      1 <0>        -0.0207
     26 C22         0.1177    2.0240   -3.7801 C.ar      1 <0>        -0.1484
     27 C23        -1.1175    1.7071   -4.3037 C.ar      1 <0>        -0.0548
     28 C24        -1.5446    2.3000   -5.4798 C.ar      1 <0>        -0.0821
     29 C25        -0.7323    3.2116   -6.1317 C.ar      1 <0>        -0.0562
     30 C26         0.5049    3.5340   -5.6144 C.ar      1 <0>        -0.0760
     31 Br1        -3.2391    1.8633   -6.1965 Br        1 <0>        -0.0089
     32 Br2         5.8060    3.0070   -0.7018 Br        1 <0>        -0.0091
     33 H2         -1.0991    1.4052    3.1866 H         1 <0>         0.1305
     34 H3         -0.3200    0.3903    5.2597 H         1 <0>         0.1302
     35 H4          2.7008    4.7678    6.6153 H         1 <0>         0.1546
     36 H5          2.8147    2.8435    8.3671 H         1 <0>         0.1790
     37 H6          1.1863    4.9413    4.0082 H         1 <0>         0.1345
     38 H7         -0.9987    1.0091    1.0180 H         1 <0>         0.0994
     39 H8          0.4151    1.4683    2.0033 H         1 <0>         0.1436
     40 H9          1.0339    0.4124   -0.2078 H         1 <0>         0.1460
     41 H10         1.6820    2.0576   -0.0023 H         1 <0>         0.1390
     42 H11         0.6882    3.8969   -1.1639 H         1 <0>         0.1349
     43 H12        -0.7040    3.6299   -2.2407 H         1 <0>         0.1396
     44 H13        -1.3282    4.6929   -0.0344 H         1 <0>         0.1377
     45 H14        -2.1490    3.1369   -0.3273 H         1 <0>         0.0965
     46 H15         1.0086    0.4782   -2.5907 H         1 <0>         0.1628
     47 H16         3.1991    1.6212   -0.7890 H         1 <0>         0.1442
     48 H17         5.2596    4.4725   -3.2045 H         1 <0>         0.1530
     49 H18         3.3670    4.5276   -4.7710 H         1 <0>         0.1487
     50 H19        -1.7526    0.9962   -3.7960 H         1 <0>         0.1445
     51 H20        -1.0684    3.6719   -7.0491 H         1 <0>         0.1530
     52 H21         1.1358    4.2456   -6.1264 H         1 <0>         0.1485
     53 N3          0.0455    1.8806   -1.3445 N.4       1 <0>        -0.3858
     54 H22        -0.8450    1.3715   -1.3888 H         1 <0>         0.4295
@<TRIPOS>BOND
     1    1   10 ar
     2    1    2 ar
     3    1   33 1
     4    2    3 ar
     5    2   34 1
     6    3    7 1
     7    3    4 ar
     8    4    5 1
     9    4    9 ar
    10    5    6 2
    11    5   35 1
    12    6    7 1
    13    6   36 1
    14    7    8 1
    15    9   10 ar
    16    9   37 1
    17   10   11 1
    18   11   12 2
    19   11   13 am
    20   13   17 1
    21   13   14 1
    22   14   15 1
    23   14   38 1
    24   14   39 1
    25   15   40 1
    26   15   41 1
    27   15   53 1
    28   16   17 1
    29   16   42 1
    30   16   43 1
    31   16   53 1
    32   17   44 1
    33   17   45 1
    34   18   26 1
    35   18   19 1
    36   18   46 1
    37   18   53 1
    38   19   24 ar
    39   19   20 ar
    40   20   21 ar
    41   20   47 1
    42   21   22 ar
    43   21   32 1
    44   22   23 ar
    45   22   48 1
    46   23   24 ar
    47   23   49 1
    48   24   25 1
    49   25   30 ar
    50   25   26 ar
    51   26   27 ar
    52   27   28 ar
    53   27   50 1
    54   28   29 ar
    55   28   31 1
    56   29   30 ar
    57   29   51 1
    58   30   52 1
    59   53   54 1
@<TRIPOS>MOLECULE
ZINC03833951
   70    76     0     0     0
SMALL
USER_CHARGES

@<TRIPOS>ATOM
      1 C1          3.0832    0.5038    0.3335 C.ar      1 <0>        -0.0847
      2 C2          1.7446    0.1913    0.4901 C.ar      1 <0>        -0.1034
      3 C3          0.7724    1.1185    0.1598 C.ar      1 <0>        -0.0851
      4 C4          1.1360    2.3566   -0.3265 C.ar      1 <0>        -0.1476
      5 C5          2.4803    2.6803   -0.4880 C.ar      1 <0>        -0.0282
      6 C6          3.4561    1.7394   -0.1525 C.ar      1 <0>        -0.0880
      7 C7          2.5960    4.0598   -1.0219 C.ar      1 <0>        -0.0502
      8 C8          3.7168    4.8273   -1.3481 C.ar      1 <0>        -0.0624
      9 C9          3.5593    6.1062   -1.8352 C.ar      1 <0>        -0.1135
     10 C10         2.2862    6.6378   -2.0042 C.ar      1 <0>         0.1879
     11 C11         1.1684    5.8774   -1.6814 C.ar      1 <0>        -0.0863
     12 C12         1.3232    4.5983   -1.1941 C.ar      1 <0>        -0.1324
     13 C13         0.3248    3.5515   -0.7639 C.3       1 <0>         0.1417
     14 H1         -0.2741    3.9232    0.0675 H         1 <0>         0.1577
     15 C14        -1.6279    2.2974   -1.4545 C.3       1 <0>        -0.0245
     16 C15        -2.6102    2.0882   -2.6119 C.3       1 <0>         0.0912
     17 N1         -1.8567    1.6214   -3.7856 N.am      1 <0>        -0.6280
     18 C16        -0.6725    2.3879   -4.2022 C.3       1 <0>         0.0555
     19 C17         0.2335    2.5853   -2.9822 C.3       1 <0>        -0.0174
     20 C18        -2.2414    0.5208   -4.4618 C.2       1 <0>         0.5798
     21 O1         -3.2802   -0.0395   -4.1703 O.2       1 <0>        -0.5087
     22 C19        -1.4012   -0.0044   -5.5565 C.ar      1 <0>        -0.1788
     23 C20        -0.0050    0.0981   -5.4788 C.ar      1 <0>        -0.0951
     24 C21         0.7845   -0.3876   -6.4784 C.ar      1 <0>        -0.1230
     25 C22         0.2100   -0.9830   -7.6000 C.ar      1 <0>         0.1184
     26 C23        -1.1919   -1.0868   -7.6925 C.ar      1 <0>        -0.1154
     27 C24        -1.9959   -0.5955   -6.6670 C.ar      1 <0>         0.0083
     28 C25        -1.4651   -1.7504   -8.9705 C.2       1 <0>        -0.1916
     29 C26        -0.2774   -1.9959   -9.5449 C.2       1 <0>         0.0581
     30 N2          0.7331   -1.5441   -8.7399 N.pl3     1 <0>        -0.5874
     31 H2          1.6790   -1.6102   -8.9440 H         1 <0>         0.4216
     32 N3          2.1301    7.9364   -2.4990 N.am      1 <0>        -0.6817
     33 C27         1.1150    8.7070   -2.0608 C.2       1 <0>         0.7103
     34 O2          0.3903    8.3087   -1.1694 O.2       1 <0>        -0.5546
     35 N4          0.9031    9.9191   -2.6106 N.am      1 <0>        -0.6728
     36 C28        -0.2069   10.6791   -2.2232 C.ar      1 <0>         0.1613
     37 C29        -0.6642   10.6251   -0.9133 C.ar      1 <0>        -0.1085
     38 C30        -1.7567   11.3797   -0.5328 C.ar      1 <0>        -0.0951
     39 C31        -2.4019   12.1808   -1.4572 C.ar      1 <0>        -0.1145
     40 C32        -1.9529   12.2335   -2.7638 C.ar      1 <0>        -0.0901
     41 C33        -0.8570   11.4848   -3.1500 C.ar      1 <0>        -0.0617
     42 Cl1        -0.2939   11.5507   -4.7908 Cl        1 <0>        -0.0617
     43 H3          3.8391   -0.2228    0.5926 H         1 <0>         0.1406
     44 H4          1.4582   -0.7779    0.8708 H         1 <0>         0.1410
     45 H5         -0.2720    0.8727    0.2835 H         1 <0>         0.1318
     46 H6          4.5022    1.9794   -0.2732 H         1 <0>         0.1365
     47 H7          4.7077    4.4178   -1.2178 H         1 <0>         0.1422
     48 H8          4.4275    6.6976   -2.0862 H         1 <0>         0.1447
     49 H9          0.1787    6.2893   -1.8126 H         1 <0>         0.1455
     50 H10        -1.2103    1.3365   -1.1536 H         1 <0>         0.1381
     51 H11        -2.1507    2.7475   -0.6106 H         1 <0>         0.1443
     52 H12        -3.1062    3.0301   -2.8460 H         1 <0>         0.0958
     53 H13        -3.3543    1.3418   -2.3340 H         1 <0>         0.1380
     54 H14        -0.9822    3.3587   -4.5892 H         1 <0>         0.0957
     55 H15        -0.1321    1.8412   -4.9749 H         1 <0>         0.1566
     56 H16         1.0606    3.2443   -3.2462 H         1 <0>         0.1398
     57 H17         0.6251    1.6205   -2.6600 H         1 <0>         0.1356
     58 H18         0.4498    0.5623   -4.6162 H         1 <0>         0.1320
     59 H19         1.8588   -0.3060   -6.4034 H         1 <0>         0.1296
     60 H20        -3.0711   -0.6722   -6.7332 H         1 <0>         0.1373
     61 H21        -2.4369   -1.9957   -9.3729 H         1 <0>         0.1556
     62 H22        -0.1392   -2.4789  -10.5009 H         1 <0>         0.1795
     63 H23         2.7525    8.2825   -3.1576 H         1 <0>         0.4174
     64 H24         1.5197   10.2649   -3.2748 H         1 <0>         0.4136
     65 H25        -0.1636    9.9967   -0.1915 H         1 <0>         0.1500
     66 H26        -2.1101   11.3410    0.4870 H         1 <0>         0.1358
     67 H27        -3.2586   12.7664   -1.1579 H         1 <0>         0.1379
     68 H28        -2.4592   12.8598   -3.4835 H         1 <0>         0.1415
     69 N5         -0.5563    3.2139   -1.9010 N.4       1 <0>        -0.3842
     70 H29        -0.9835    4.0761   -2.2591 H         1 <0>         0.4283
@<TRIPOS>BOND
     1    1    6 ar
     2    1    2 ar
     3    1   43 1
     4    2    3 ar
     5    2   44 1
     6    3    4 ar
     7    3   45 1
     8    4   13 1
     9    4    5 ar
    10    5    6 ar
    11    5    7 1
    12    6   46 1
    13    7   12 ar
    14    7    8 ar
    15    8    9 ar
    16    8   47 1
    17    9   10 ar
    18    9   48 1
    19   10   11 ar
    20   10   32 1
    21   11   12 ar
    22   11   49 1
    23   12   13 1
    24   13   14 1
    25   13   69 1
    26   15   16 1
    27   15   50 1
    28   15   51 1
    29   15   69 1
    30   16   17 1
    31   16   52 1
    32   16   53 1
    33   17   18 1
    34   17   20 am
    35   18   19 1
    36   18   54 1
    37   18   55 1
    38   19   56 1
    39   19   57 1
    40   19   69 1
    41   20   21 2
    42   20   22 1
    43   22   27 ar
    44   22   23 ar
    45   23   24 ar
    46   23   58 1
    47   24   25 ar
    48   24   59 1
    49   25   30 1
    50   25   26 ar
    51   26   27 ar
    52   26   28 1
    53   27   60 1
    54   28   29 2
    55   28   61 1
    56   29   30 1
    57   29   62 1
    58   30   31 1
    59   32   33 am
    60   32   63 1
    61   33   34 2
    62   33   35 am
    63   35   36 1
    64   35   64 1
    65   36   41 ar
    66   36   37 ar
    67   37   38 ar
    68   37   65 1
    69   38   39 ar
    70   38   66 1
    71   39   40 ar
    72   39   67 1
    73   40   41 ar
    74   40   68 1
    75   41   42 1
    76   69   70 1
@<TRIPOS>MOLECULE
ZINC04631272
   55    56     0     0     0
SMALL
USER_CHARGES

@<TRIPOS>ATOM
      1 C1         -1.7643    2.9997   -6.3884 C.3       1 <0>        -0.1186
      2 C2         -1.7088    2.4986   -4.9682 C.2       1 <0>        -0.1281
      3 C3         -2.8175    2.3083   -4.2970 C.2       1 <0>        -0.1781
      4 C4         -2.8801    1.2444   -3.2314 C.3       1 <0>        -0.0797
      5 C5         -3.3366    1.8703   -1.9121 C.3       1 <0>        -0.0946
      6 C6         -3.3991    0.8064   -0.8465 C.2       1 <0>        -0.0954
      7 C7         -2.3681    0.6006   -0.0651 C.2       1 <0>        -0.1929
      8 C8         -1.0725    1.3270   -0.3200 C.3       1 <0>         0.1430
      9 N1          0.0189    0.3558   -0.4279 N.am      1 <0>        -0.7291
     10 C9          1.2769    0.7790   -0.6621 C.2       1 <0>         0.5099
     11 O1          1.5061    1.9642   -0.7785 O.2       1 <0>        -0.5366
     12 C10         2.3986   -0.2205   -0.7792 C.3       1 <0>        -0.1417
     13 C11         3.7130    0.5166   -1.0435 C.3       1 <0>        -0.0970
     14 C12         4.8519   -0.4981   -1.1624 C.3       1 <0>        -0.0435
     15 C13         6.1465    0.2279   -1.4228 C.2       1 <0>        -0.1677
     16 C14         6.7078    0.4549   -2.6209 C.2       1 <0>         0.0520
     17 N2          7.8784    1.1459   -2.4644 N.pl3     1 <0>        -0.5965
     18 H1          8.4610    1.4262   -3.1875 H         1 <0>         0.4156
     19 C15         8.1091    1.3791   -1.1271 C.ar      1 <0>         0.0946
     20 C16         7.0344    0.8143   -0.4159 C.ar      1 <0>        -0.1014
     21 C17         6.9993    0.8996    0.9769 C.ar      1 <0>        -0.0699
     22 C18         8.0108    1.5322    1.6436 C.ar      1 <0>        -0.1471
     23 C19         9.0733    2.0906    0.9468 C.ar      1 <0>        -0.0989
     24 C20         9.1278    2.0181   -0.4282 C.ar      1 <0>        -0.1318
     25 C21        -4.6478   -0.0207   -0.6799 C.3       1 <0>        -0.1217
     26 C22        -0.3778    2.2165   -4.3203 C.3       1 <0>        -0.1161
     27 H2         -1.7380    4.0894   -6.3905 H         1 <0>         0.0629
     28 H3         -0.9089    2.6146   -6.9433 H         1 <0>         0.0662
     29 H4         -2.6863    2.6577   -6.8586 H         1 <0>         0.0629
     30 H5         -3.6868    2.9138   -4.5072 H         1 <0>         0.1097
     31 H6         -1.8924    0.8021   -3.1012 H         1 <0>         0.0689
     32 H7         -3.5877    0.4714   -3.5310 H         1 <0>         0.0758
     33 H8         -4.3243    2.3126   -2.0423 H         1 <0>         0.0739
     34 H9         -2.6289    2.6433   -1.6125 H         1 <0>         0.0748
     35 H10        -2.4464   -0.0897    0.7617 H         1 <0>         0.1161
     36 H11        -0.8707    2.0102    0.5049 H         1 <0>         0.0697
     37 H12        -1.1494    1.8918   -1.2491 H         1 <0>         0.0794
     38 H13        -0.1645   -0.5922   -0.3348 H         1 <0>         0.4005
     39 H14         2.4796   -0.7862    0.1490 H         1 <0>         0.0933
     40 H15         2.1926   -0.9029   -1.6038 H         1 <0>         0.0929
     41 H16         3.6320    1.0823   -1.9717 H         1 <0>         0.0691
     42 H17         3.9191    1.1990   -0.2189 H         1 <0>         0.0706
     43 H18         4.9329   -1.0639   -0.2343 H         1 <0>         0.0700
     44 H19         4.6458   -1.1805   -1.9871 H         1 <0>         0.0693
     45 H20         6.2954    0.1403   -3.5682 H         1 <0>         0.1685
     46 H21         6.1758    0.4672    1.5258 H         1 <0>         0.1202
     47 H22         7.9830    1.5984    2.7212 H         1 <0>         0.1217
     48 H23         9.8653    2.5872    1.4876 H         1 <0>         0.1245
     49 H24         9.9585    2.4563   -0.9613 H         1 <0>         0.1187
     50 H25        -5.3167    0.4697    0.0273 H         1 <0>         0.0698
     51 H26        -5.1481   -0.1215   -1.6431 H         1 <0>         0.0674
     52 H27        -4.3819   -1.0084   -0.3035 H         1 <0>         0.0649
     53 H28        -0.0966    1.1796   -4.5044 H         1 <0>         0.0594
     54 H29         0.3789    2.8784   -4.7414 H         1 <0>         0.0649
     55 H30        -0.4530    2.3874   -3.2464 H         1 <0>         0.0651
@<TRIPOS>BOND
     1    1    2 1
     2    1   27 1
     3    1   28 1
     4    1   29 1
     5    2    3 2
     6    2   26 1
     7    3    4 1
     8    3   30 1
     9    4    5 1
    10    4   31 1
    11    4   32 1
    12    5    6 1
    13    5   33 1
    14    5   34 1
    15    6    7 2
    16    6   25 1
    17    7    8 1
    18    7   35 1
    19    8    9 1
    20    8   36 1
    21    8   37 1
    22    9   10 am
    23    9   38 1
    24   10   11 2
    25   10   12 1
    26   12   13 1
    27   12   39 1
    28   12   40 1
    29   13   14 1
    30   13   41 1
    31   13   42 1
    32   14   15 1
    33   14   43 1
    34   14   44 1
    35   15   20 1
    36   15   16 2
    37   16   17 1
    38   16   45 1
    39   17   18 1
    40   17   19 1
    41   19   24 ar
    42   19   20 ar
    43   20   21 ar
    44   21   22 ar
    45   21   46 1
    46   22   23 ar
    47   22   47 1
    48   23   24 ar
    49   23   48 1
    50   24   49 1
    51   25   50 1
    52   25   51 1
    53   25   52 1
    54   26   53 1
    55   26   54 1
    56   26   55 1
