@<TRIPOS>MOLECULE
ZINC00538404
   48    53     0     0     0
SMALL
USER_CHARGES

@<TRIPOS>ATOM
      1 C1          0.9328   -7.7506    3.0095 C.3       1 <0>         0.0756
      2 N1          0.1900   -6.6503    2.3900 N.am      1 <0>        -0.6063
      3 C2         -0.6290   -5.8092    3.2468 C.3       1 <0>         0.1042
      4 C3         -1.2660   -4.6891    2.4904 C.2       1 <0>         0.5201
      5 O1         -1.9507   -3.9044    3.1120 O.2       1 <0>        -0.5279
      6 N2         -1.1329   -4.4941    1.1770 N.am      1 <0>        -0.5878
      7 C4         -0.3995   -5.4090    0.3031 C.3       1 <0>         0.1232
      8 H1          0.3466   -4.8424   -0.2541 H         1 <0>         0.1224
      9 C5          0.3039   -6.4789    1.0745 C.2       1 <0>         0.5189
     10 O2          1.0240   -7.2396    0.4631 O.2       1 <0>        -0.5221
     11 C6         -1.3789   -6.0504   -0.6901 C.3       1 <0>        -0.0437
     12 C7         -2.2785   -4.9780   -1.2489 C.2       1 <0>        -0.1540
     13 C8         -3.1074   -5.0304   -2.4361 C.ar      1 <0>        -0.0983
     14 C9         -3.3284   -6.0248   -3.3939 C.ar      1 <0>        -0.0647
     15 C10        -4.2028   -5.7246   -4.4091 C.ar      1 <0>        -0.1470
     16 C11        -4.8414   -4.4980   -4.4918 C.ar      1 <0>        -0.0956
     17 C12        -4.6399   -3.4958   -3.5587 C.ar      1 <0>        -0.1300
     18 C13        -3.7571   -3.7720   -2.5166 C.ar      1 <0>         0.1060
     19 N3         -3.3370   -3.0292   -1.4510 N.pl3     1 <0>        -0.5715
     20 H2         -3.6217   -2.1227   -1.2557 H         1 <0>         0.4183
     21 C14        -2.4542   -3.7553   -0.6991 C.2       1 <0>         0.0609
     22 C15        -1.7543   -3.3018    0.5619 C.3       1 <0>         0.2557
     23 H3         -2.4773   -2.8640    1.2502 H         1 <0>         0.1341
     24 C16        -0.6921   -2.2882    0.2221 C.ar      1 <0>        -0.1006
     25 C17        -0.6708   -1.0674    0.8707 C.ar      1 <0>        -0.0841
     26 C18         0.3015   -0.1344    0.5624 C.ar      1 <0>        -0.0991
     27 C19         1.2580   -0.4212   -0.3980 C.ar      1 <0>         0.0444
     28 C20         1.2363   -1.6508   -1.0516 C.ar      1 <0>         0.0348
     29 C21         0.2586   -2.5808   -0.7379 C.ar      1 <0>        -0.0835
     30 O3          2.2702   -1.6898   -1.9421 O.3       1 <0>        -0.3050
     31 C22         2.6768   -0.3199   -2.1192 C.3       1 <0>         0.2124
     32 O4          2.3054    0.3102   -0.8789 O.3       1 <0>        -0.3061
     33 H4          1.9181   -7.3978    3.3141 H         1 <0>         0.0641
     34 H5          0.3891   -8.1093    3.8835 H         1 <0>         0.0775
     35 H6          1.0438   -8.5635    2.2919 H         1 <0>         0.0876
     36 H7         -1.4100   -6.4195    3.7004 H         1 <0>         0.1151
     37 H8         -0.0038   -5.3927    4.0365 H         1 <0>         0.1170
     38 H9         -0.8218   -6.5190   -1.5014 H         1 <0>         0.1018
     39 H10        -1.9789   -6.8023   -0.1773 H         1 <0>         0.0834
     40 H11        -2.8345   -6.9836   -3.3381 H         1 <0>         0.1307
     41 H12        -4.3985   -6.4681   -5.1676 H         1 <0>         0.1200
     42 H13        -5.5201   -4.3177   -5.3123 H         1 <0>         0.1225
     43 H14        -5.1439   -2.5436   -3.6347 H         1 <0>         0.1290
     44 H15        -1.4152   -0.8424    1.6201 H         1 <0>         0.1446
     45 H16         0.3159    0.8183    1.0709 H         1 <0>         0.1418
     46 H17         0.2393   -3.5351   -1.2433 H         1 <0>         0.1383
     47 H18         3.7541   -0.2570   -2.2731 H         1 <0>         0.1355
     48 H19         2.1425    0.1333   -2.9541 H         1 <0>         0.0875
@<TRIPOS>BOND
     1    1    2 1
     2    1   33 1
     3    1   34 1
     4    1   35 1
     5    2    9 am
     6    2    3 1
     7    3    4 1
     8    3   36 1
     9    3   37 1
    10    4    5 2
    11    4    6 am
    12    6   22 1
    13    6    7 1
    14    7    8 1
    15    7    9 1
    16    7   11 1
    17    9   10 2
    18   11   12 1
    19   11   38 1
    20   11   39 1
    21   12   21 2
    22   12   13 1
    23   13   18 ar
    24   13   14 ar
    25   14   15 ar
    26   14   40 1
    27   15   16 ar
    28   15   41 1
    29   16   17 ar
    30   16   42 1
    31   17   18 ar
    32   17   43 1
    33   18   19 1
    34   19   20 1
    35   19   21 1
    36   21   22 1
    37   22   23 1
    38   22   24 1
    39   24   29 ar
    40   24   25 ar
    41   25   26 ar
    42   25   44 1
    43   26   27 ar
    44   26   45 1
    45   27   32 1
    46   27   28 ar
    47   28   29 ar
    48   28   30 1
    49   29   46 1
    50   30   31 1
    51   31   32 1
    52   31   47 1
    53   31   48 1
@<TRIPOS>MOLECULE
ZINC00588020
   56    59     0     0     0
SMALL
USER_CHARGES

@<TRIPOS>ATOM
      1 C1          0.9693   -2.5013    8.5380 C.3       1 <0>        -0.1791
      2 C2         -0.4173   -2.4195    7.8965 C.3       1 <0>         0.1090
      3 N1         -0.4256   -3.1912    6.6513 N.pl3     1 <0>        -0.3566
      4 C3         -0.1177   -2.7103    5.4095 C.ar      1 <0>         0.3378
      5 C4         -0.2572   -3.7900    4.5191 C.ar      1 <0>        -0.2406
      6 C5         -0.6554   -4.9111    5.2834 C.2       1 <0>         0.1248
      7 N2         -0.7503   -4.5471    6.5296 N.2       1 <0>        -0.1996
      8 C6         -0.0006   -3.5879    3.1495 C.ar      1 <0>         0.3895
      9 C7          0.3869   -2.3004    2.7376 C.ar      1 <0>        -0.1915
     10 C8          0.5056   -1.2864    3.6964 C.ar      1 <0>         0.2481
     11 C9          0.6695   -2.0238    1.3196 C.2       1 <0>         0.5675
     12 O1          0.6537   -2.9299    0.5083 O.2       1 <0>        -0.4648
     13 N3          0.9457   -0.7666    0.9203 N.am      1 <0>        -0.7228
     14 C10         1.2270   -0.4913   -0.4909 C.3       1 <0>         0.1643
     15 C11         1.5022    0.9794   -0.6706 C.ar      1 <0>        -0.0761
     16 C12         0.4733    1.8645   -0.9544 C.ar      1 <0>        -0.1551
     17 C13         0.7632    3.2070   -1.1085 C.ar      1 <0>         0.1030
     18 N4          2.0015    3.6467   -0.9980 N.ar      1 <0>        -0.4737
     19 C14         3.0052    2.8333   -0.7336 C.ar      1 <0>         0.1032
     20 C15         2.7911    1.4788   -0.5619 C.ar      1 <0>        -0.1552
     21 N5         -0.1248   -4.6193    2.2415 N.pl3     1 <0>        -0.6234
     22 C16        -1.5229   -4.7865    1.8228 C.3       1 <0>         0.1257
     23 C17        -1.6104   -5.8799    0.7894 C.ar      1 <0>        -0.1360
     24 C18        -1.4925   -5.5715   -0.5534 C.ar      1 <0>        -0.0305
     25 C19        -1.5675   -6.5723   -1.5028 C.ar      1 <0>        -0.2002
     26 C20        -1.7718   -7.8865   -1.1092 C.ar      1 <0>         0.1566
     27 C21        -1.8951   -8.1935    0.2390 C.ar      1 <0>        -0.0750
     28 C22        -1.8140   -7.1887    1.1853 C.ar      1 <0>        -0.0603
     29 Cl1        -2.1502   -9.8370    0.7362 Cl        1 <0>        -0.0458
     30 O2         -1.8506   -8.8722   -2.0418 O.3       1 <0>        -0.3013
     31 C23        -1.7148   -8.4830   -3.4101 C.3       1 <0>         0.0227
     32 H1          1.7115   -2.0927    7.8523 H         1 <0>         0.0610
     33 H2          0.9755   -1.9271    9.4644 H         1 <0>         0.0998
     34 H3          1.2087   -3.5425    8.7542 H         1 <0>         0.0796
     35 H4         -0.6567   -1.3783    7.6803 H         1 <0>         0.1038
     36 H5         -1.1596   -2.8281    8.5822 H         1 <0>         0.1275
     37 H6         -0.8478   -5.9016    4.8984 H         1 <0>         0.2234
     38 H7          0.8076   -0.2973    3.3851 H         1 <0>         0.2052
     39 H8          0.9583   -0.0439    1.5673 H         1 <0>         0.3951
     40 H9          0.3659   -0.7764   -1.0953 H         1 <0>         0.0906
     41 H10         2.0983   -1.0652   -0.8063 H         1 <0>         0.0913
     42 H11        -0.5422    1.5098   -1.0505 H         1 <0>         0.1387
     43 H12        -0.0331    3.9034   -1.3263 H         1 <0>         0.1612
     44 H13         4.0062    3.2302   -0.6505 H         1 <0>         0.1613
     45 H14         3.6173    0.8176   -0.3462 H         1 <0>         0.1390
     46 H15         0.2452   -5.4791    2.6181 H         1 <0>         0.3816
     47 H16        -2.1314   -5.0536    2.6867 H         1 <0>         0.0668
     48 H17        -1.8884   -3.8527    1.3955 H         1 <0>         0.0988
     49 H18        -1.3380   -4.5475   -0.8601 H         1 <0>         0.1367
     50 H19        -1.4712   -6.3309   -2.5511 H         1 <0>         0.1418
     51 H20        -1.9102   -7.4265    2.2344 H         1 <0>         0.1379
     52 H21        -0.7418   -8.0152   -3.5599 H         1 <0>         0.0611
     53 H22        -1.7969   -9.3630   -4.0480 H         1 <0>         0.1087
     54 H23        -2.5021   -7.7740   -3.6660 H         1 <0>         0.0609
     55 N6          0.2590   -1.4492    5.0172 N.ar      1 <0>        -0.5102
     56 H24         0.3483   -0.6756    5.6864 H         1 <0>         0.4738
@<TRIPOS>BOND
     1    1    2 1
     2    1   32 1
     3    1   33 1
     4    1   34 1
     5    2    3 1
     6    2   35 1
     7    2   36 1
     8    3    7 1
     9    3    4 1
    10    4    5 ar
    11    4   55 ar
    12    5    6 1
    13    5    8 ar
    14    6    7 2
    15    6   37 1
    16    8    9 ar
    17    8   21 1
    18    9   10 ar
    19    9   11 1
    20   10   38 1
    21   10   55 ar
    22   11   12 2
    23   11   13 am
    24   13   14 1
    25   13   39 1
    26   14   15 1
    27   14   40 1
    28   14   41 1
    29   15   20 ar
    30   15   16 ar
    31   16   17 ar
    32   16   42 1
    33   17   18 ar
    34   17   43 1
    35   18   19 ar
    36   19   20 ar
    37   19   44 1
    38   20   45 1
    39   21   22 1
    40   21   46 1
    41   22   23 1
    42   22   47 1
    43   22   48 1
    44   23   28 ar
    45   23   24 ar
    46   24   25 ar
    47   24   49 1
    48   25   26 ar
    49   25   50 1
    50   26   27 ar
    51   26   30 1
    52   27   28 ar
    53   27   29 1
    54   28   51 1
    55   30   31 1
    56   31   52 1
    57   31   53 1
    58   31   54 1
    59   55   56 1
@<TRIPOS>MOLECULE
ZINC00593368
   61    67     0     0     0
SMALL
USER_CHARGES

@<TRIPOS>ATOM
      1 C1         -1.6428   -4.3595   11.6278 C.3       1 <0>         0.0249
      2 O1         -2.1703   -3.3282   10.7910 O.3       1 <0>        -0.3152
      3 C2         -2.0244   -3.4873    9.4493 C.ar      1 <0>         0.1354
      4 C3         -2.5142   -2.5222    8.5800 C.ar      1 <0>        -0.1461
      5 C4         -2.3676   -2.6809    7.2178 C.ar      1 <0>        -0.0677
      6 C5         -1.7266   -3.8115    6.7144 C.ar      1 <0>        -0.0773
      7 C6         -1.2402   -4.7810    7.5895 C.ar      1 <0>        -0.0657
      8 C7         -1.3855   -4.6144    8.9509 C.ar      1 <0>        -0.2027
      9 C8         -1.5678   -3.9854    5.2495 C.ar      1 <0>        -0.1586
     10 C9         -0.9279   -5.1124    4.7272 C.ar      1 <0>         0.1788
     11 N1         -0.8056   -5.2310    3.4169 N.ar      1 <0>        -0.5051
     12 C10        -1.2800   -4.2994    2.6026 C.ar      1 <0>         0.4791
     13 N2         -1.8883   -3.2145    3.0600 N.ar      1 <0>        -0.5396
     14 C11        -2.0539   -3.0263    4.3574 C.ar      1 <0>         0.1774
     15 N3         -1.1311   -4.4612    1.2363 N.pl3     1 <0>        -0.4195
     16 C12        -1.9104   -5.6230    0.7515 C.3       1 <0>         0.1262
     17 C13        -2.3749   -5.2462   -0.6378 C.2       1 <0>        -0.2974
     18 C14        -2.8616   -6.0483   -1.6962 C.2       1 <0>         0.4389
     19 O2         -2.9652   -7.2577   -1.5722 O.2       1 <0>        -0.4887
     20 C15        -3.2383   -5.3794   -2.9530 C.ar      1 <0>        -0.1929
     21 C16        -3.7239   -6.0971   -4.0457 C.ar      1 <0>        -0.0268
     22 C17        -4.0617   -5.4357   -5.1934 C.ar      1 <0>        -0.1568
     23 C18        -3.9258   -4.0569   -5.2785 C.ar      1 <0>        -0.0532
     24 C19        -3.4476   -3.3296   -4.2108 C.ar      1 <0>        -0.1712
     25 C20        -3.0974   -3.9829   -3.0322 C.ar      1 <0>         0.1999
     26 N4         -2.6169   -3.2873   -1.9478 N.pl3     1 <0>        -0.5896
     27 H1         -2.5217   -2.2940   -2.0135 H         1 <0>         0.4232
     28 C21        -2.2671   -3.9067   -0.7892 C.2       1 <0>         0.1960
     29 C22        -1.7227   -3.3219    0.4996 C.3       1 <0>         0.1618
     30 H2         -2.5285   -2.8747    1.0816 H         1 <0>         0.1277
     31 C23        -0.6653   -2.2914    0.1979 C.ar      1 <0>        -0.1184
     32 C24         0.6098   -2.6897   -0.1594 C.ar      1 <0>        -0.0460
     33 C25         1.5807   -1.7507   -0.4390 C.ar      1 <0>        -0.1403
     34 C26         1.2843   -0.3917   -0.3646 C.ar      1 <0>         0.1159
     35 C27         0.0021   -0.0041    0.0020 C.ar      1 <0>        -0.1778
     36 C28        -0.9667   -0.9435    0.2779 C.ar      1 <0>        -0.0522
     37 C29        -0.0185    1.5122    0.0104 C.3       1 <0>        -0.1092
     38 C30         1.4907    1.8524   -0.0022 C.3       1 <0>         0.0503
     39 O3          2.0741    0.6889   -0.6129 O.3       1 <0>        -0.3037
     40 H3         -0.5699   -4.4515   11.4587 H         1 <0>         0.0578
     41 H4         -1.8258   -4.1088   12.6726 H         1 <0>         0.1029
     42 H5         -2.1304   -5.3050   11.3902 H         1 <0>         0.0579
     43 H6         -3.0109   -1.6464    8.9707 H         1 <0>         0.1362
     44 H7         -2.7495   -1.9301    6.5420 H         1 <0>         0.1327
     45 H8         -0.7466   -5.6601    7.2021 H         1 <0>         0.1299
     46 H9         -1.0051   -5.3634    9.6296 H         1 <0>         0.1337
     47 H10        -0.5386   -5.8753    5.3850 H         1 <0>         0.1746
     48 H11        -2.5545   -2.1419    4.7231 H         1 <0>         0.1722
     49 H12        -1.2786   -6.5103    0.7102 H         1 <0>         0.1108
     50 H13        -2.7670   -5.8005    1.4018 H         1 <0>         0.0674
     51 H14        -3.8327   -7.1699   -3.9853 H         1 <0>         0.1404
     52 H15        -4.4377   -5.9903   -6.0404 H         1 <0>         0.1328
     53 H16        -4.1975   -3.5488   -6.1919 H         1 <0>         0.1345
     54 H17        -3.3453   -2.2572   -4.2874 H         1 <0>         0.1347
     55 H18         0.8469   -3.7417   -0.2195 H         1 <0>         0.1390
     56 H19         2.5741   -2.0703   -0.7173 H         1 <0>         0.1308
     57 H20        -1.9612   -0.6280    0.5570 H         1 <0>         0.1270
     58 H21        -0.5127    1.9000   -0.8804 H         1 <0>         0.0915
     59 H22        -0.4955    1.8904    0.9145 H         1 <0>         0.0926
     60 H23         1.6812    2.7410   -0.6041 H         1 <0>         0.1085
     61 H24         1.8652    1.9846    1.0128 H         1 <0>         0.0784
@<TRIPOS>BOND
     1    1    2 1
     2    1   40 1
     3    1   41 1
     4    1   42 1
     5    2    3 1
     6    3    8 ar
     7    3    4 ar
     8    4    5 ar
     9    4   43 1
    10    5    6 ar
    11    5   44 1
    12    6    7 ar
    13    6    9 1
    14    7    8 ar
    15    7   45 1
    16    8   46 1
    17    9   14 ar
    18    9   10 ar
    19   10   11 ar
    20   10   47 1
    21   11   12 ar
    22   12   13 ar
    23   12   15 1
    24   13   14 ar
    25   14   48 1
    26   15   29 1
    27   15   16 1
    28   16   17 1
    29   16   49 1
    30   16   50 1
    31   17   28 2
    32   17   18 1
    33   18   19 2
    34   18   20 1
    35   20   25 ar
    36   20   21 ar
    37   21   22 ar
    38   21   51 1
    39   22   23 ar
    40   22   52 1
    41   23   24 ar
    42   23   53 1
    43   24   25 ar
    44   24   54 1
    45   25   26 1
    46   26   27 1
    47   26   28 1
    48   28   29 1
    49   29   30 1
    50   29   31 1
    51   31   36 ar
    52   31   32 ar
    53   32   33 ar
    54   32   55 1
    55   33   34 ar
    56   33   56 1
    57   34   39 1
    58   34   35 ar
    59   35   36 ar
    60   35   37 1
    61   36   57 1
    62   37   38 1
    63   37   58 1
    64   37   59 1
    65   38   39 1
    66   38   60 1
    67   38   61 1
@<TRIPOS>MOLECULE
ZINC00593368
   61    67     0     0     0
SMALL
USER_CHARGES

@<TRIPOS>ATOM
      1 C1         -1.6503   -4.3591   11.6286 C.3       1 <0>         0.0250
      2 O1         -2.1774   -3.3278   10.7915 O.3       1 <0>        -0.3151
      3 C2         -2.0308   -3.4869    9.4499 C.ar      1 <0>         0.1355
      4 C3         -2.5203   -2.5219    8.5803 C.ar      1 <0>        -0.1457
      5 C4         -2.3730   -2.6806    7.2182 C.ar      1 <0>        -0.0673
      6 C5         -1.7316   -3.8112    6.7151 C.ar      1 <0>        -0.0775
      7 C6         -1.2455   -4.7806    7.5905 C.ar      1 <0>        -0.0661
      8 C7         -1.3916   -4.6140    8.9518 C.ar      1 <0>        -0.2032
      9 C8         -1.5721   -3.9851    5.2503 C.ar      1 <0>        -0.1583
     10 C9         -0.9318   -5.1120    4.7283 C.ar      1 <0>         0.1764
     11 N1         -0.8088   -5.2306    3.4181 N.ar      1 <0>        -0.5091
     12 C10        -1.2829   -4.2991    2.6035 C.ar      1 <0>         0.4778
     13 N2         -1.8915   -3.2142    3.0606 N.ar      1 <0>        -0.5344
     14 C11        -2.0578   -3.0260    4.3579 C.ar      1 <0>         0.1783
     15 N3         -1.1333   -4.4609    1.2373 N.pl3     1 <0>        -0.4182
     16 C12        -1.9122   -5.6228    0.7522 C.3       1 <0>         0.1166
     17 C13        -2.3760   -5.2461   -0.6374 C.ar      1 <0>        -0.3602
     18 C14        -2.8621   -6.0482   -1.6960 C.ar      1 <0>         0.2893
     19 O2         -2.9666   -7.2575   -1.5717 O.3       1 <0>        -0.3859
     20 C15        -3.2382   -5.3794   -2.9531 C.ar      1 <0>        -0.1550
     21 C16        -3.7238   -6.0971   -4.0458 C.ar      1 <0>        -0.0672
     22 C17        -4.0616   -5.4357   -5.1934 C.ar      1 <0>        -0.1392
     23 C18        -3.9258   -4.0569   -5.2785 C.ar      1 <0>        -0.0787
     24 C19        -3.4477   -3.3296   -4.2108 C.ar      1 <0>        -0.1102
     25 C20        -3.0975   -3.9829   -3.0322 C.ar      1 <0>         0.1790
     26 N4         -2.6176   -3.2872   -1.9476 N.ar      1 <0>        -0.5036
     27 H1         -2.6657   -7.5257   -0.6565 H         1 <0>         0.4250
     28 C21        -2.2683   -3.9066   -0.7888 C.ar      1 <0>         0.2131
     29 C22        -1.7246   -3.3217    0.5003 C.3       1 <0>         0.1695
     30 H2         -2.5307   -2.8745    1.0819 H         1 <0>         0.1225
     31 C23        -0.6671   -2.2911    0.1990 C.ar      1 <0>        -0.0881
     32 C24         0.6082   -2.6893   -0.1576 C.ar      1 <0>        -0.0543
     33 C25         1.5792   -1.7503   -0.4368 C.ar      1 <0>        -0.1425
     34 C26         1.2827   -0.3913   -0.3626 C.ar      1 <0>         0.1080
     35 C27         0.0003   -0.0038    0.0034 C.ar      1 <0>        -0.1774
     36 C28        -0.9686   -0.9432    0.2789 C.ar      1 <0>        -0.0394
     37 C29        -0.0204    1.5125    0.0117 C.3       1 <0>        -0.1083
     38 C30         1.4888    1.8528   -0.0002 C.3       1 <0>         0.0512
     39 O3          2.0725    0.6893   -0.6105 O.3       1 <0>        -0.3062
     40 H3         -0.5773   -4.4509   11.4600 H         1 <0>         0.0578
     41 H4         -1.8338   -4.1084   12.6733 H         1 <0>         0.1029
     42 H5         -2.1376   -5.3046   11.3907 H         1 <0>         0.0577
     43 H6         -3.0173   -1.6462    8.9707 H         1 <0>         0.1364
     44 H7         -2.7547   -1.9299    6.5422 H         1 <0>         0.1334
     45 H8         -0.7516   -5.6596    7.2033 H         1 <0>         0.1294
     46 H9         -1.0114   -5.3629    9.6307 H         1 <0>         0.1334
     47 H10        -0.5427   -5.8748    5.3864 H         1 <0>         0.1738
     48 H11        -2.5587   -2.1417    4.7234 H         1 <0>         0.1725
     49 H12        -1.2803   -6.5100    0.7112 H         1 <0>         0.1017
     50 H13        -2.7692   -5.8003    1.4020 H         1 <0>         0.0671
     51 H14        -3.8325   -7.1699   -3.9854 H         1 <0>         0.1312
     52 H15        -4.4376   -5.9903   -6.0405 H         1 <0>         0.1302
     53 H16        -4.1976   -3.5488   -6.1919 H         1 <0>         0.1327
     54 H17        -3.3455   -2.2572   -4.2873 H         1 <0>         0.1383
     55 H18         0.8454   -3.7413   -0.2176 H         1 <0>         0.1319
     56 H19         2.5728   -2.0698   -0.7146 H         1 <0>         0.1264
     57 H20        -1.9633   -0.6278    0.5575 H         1 <0>         0.1240
     58 H21        -0.5142    1.9003   -0.8793 H         1 <0>         0.0906
     59 H22        -0.4979    1.8907    0.9156 H         1 <0>         0.0903
     60 H23         1.6795    2.7414   -0.6020 H         1 <0>         0.1061
     61 H24         1.8628    1.9851    1.0150 H         1 <0>         0.0760
@<TRIPOS>BOND
     1    1    2 1
     2    1   40 1
     3    1   41 1
     4    1   42 1
     5    2    3 1
     6    3    8 ar
     7    3    4 ar
     8    4    5 ar
     9    4   43 1
    10    5    6 ar
    11    5   44 1
    12    6    7 ar
    13    6    9 1
    14    7    8 ar
    15    7   45 1
    16    8   46 1
    17    9   14 ar
    18    9   10 ar
    19   10   11 ar
    20   10   47 1
    21   11   12 ar
    22   12   13 ar
    23   12   15 1
    24   13   14 ar
    25   14   48 1
    26   15   29 1
    27   15   16 1
    28   16   17 1
    29   16   49 1
    30   16   50 1
    31   17   18 ar
    32   17   28 ar
    33   18   20 ar
    34   18   19 1
    35   19   27 1
    36   20   21 ar
    37   20   25 ar
    38   21   22 ar
    39   21   51 1
    40   22   23 ar
    41   22   52 1
    42   23   24 ar
    43   23   53 1
    44   24   25 ar
    45   24   54 1
    46   25   26 ar
    47   26   28 ar
    48   28   29 1
    49   29   30 1
    50   29   31 1
    51   31   36 ar
    52   31   32 ar
    53   32   33 ar
    54   32   55 1
    55   33   34 ar
    56   33   56 1
    57   34   39 1
    58   34   35 ar
    59   35   36 ar
    60   35   37 1
    61   36   57 1
    62   37   38 1
    63   37   58 1
    64   37   59 1
    65   38   39 1
    66   38   60 1
    67   38   61 1
@<TRIPOS>MOLECULE
ZINC01487393
   52    55     0     0     0
SMALL
USER_CHARGES

@<TRIPOS>ATOM
      1 C1        -11.7615   -3.4651   -2.2911 C.3       1 <0>         0.0237
      2 O1        -11.2605   -3.2882   -0.9645 O.3       1 <0>        -0.3030
      3 C2        -10.0505   -2.6820   -0.8376 C.ar      1 <0>         0.1499
      4 C3         -9.3601   -2.2659   -1.9663 C.ar      1 <0>        -0.2003
      5 C4         -8.1330   -1.6449   -1.8345 C.ar      1 <0>        -0.0512
      6 C5         -7.5876   -1.4473   -0.5793 C.ar      1 <0>        -0.1435
      7 C6         -8.2730   -1.8608    0.5478 C.ar      1 <0>        -0.0502
      8 C7         -9.5038   -2.4780    0.4219 C.ar      1 <0>        -0.0735
      9 Cl1       -10.3641   -2.9978    1.8373 Cl        1 <0>        -0.0495
     10 C8         -6.2465   -0.7743   -0.4395 C.3       1 <0>         0.1764
     11 N1         -5.1874   -1.7861   -0.4655 N.pl3     1 <0>        -0.6976
     12 C9         -3.8581   -1.4025   -0.3520 C.ar      1 <0>         0.3831
     13 C10        -2.8255   -2.3706   -0.3758 C.ar      1 <0>        -0.1122
     14 C11        -3.0790   -3.7368   -0.5110 C.ar      1 <0>        -0.0342
     15 C12        -2.0123   -4.6253   -0.5253 C.ar      1 <0>        -0.0096
     16 C13        -0.6918   -4.1578   -0.4058 C.ar      1 <0>        -0.0613
     17 C14        -0.4310   -2.8293   -0.2730 C.ar      1 <0>        -0.0706
     18 C15        -1.4885   -1.9116   -0.2556 C.ar      1 <0>        -0.0002
     19 C16        -1.2831   -0.5190   -0.1205 C.ar      1 <0>         0.2144
     20 N2         -2.3296    0.2832   -0.1070 N.ar      1 <0>        -0.2313
     21 N3         -3.5366   -0.1298   -0.2205 N.ar      1 <0>        -0.3231
     22 N4          0.0021   -0.0041    0.0020 N.pl3     1 <0>        -0.4738
     23 C17         0.3181    0.8938   -1.1162 C.3       1 <0>         0.0629
     24 C18         1.7836    1.3254   -1.0271 C.3       1 <0>        -0.1485
     25 C19         2.0203    2.0385    0.3071 C.3       1 <0>         0.1019
     26 C20         1.6378    1.0989    1.4540 C.3       1 <0>        -0.1094
     27 C21         0.1765    0.6738    1.2929 C.3       1 <0>         0.0629
     28 O2          3.3998    2.3937    0.4205 O.3       1 <0>        -0.5662
     29 C22        -2.2590   -6.0291   -0.6633 C.1       1 <0>         0.2449
     30 N5         -2.4547   -7.1428   -0.7728 N.1       1 <0>        -0.3976
     31 H1        -11.8692   -2.4926   -2.7715 H         1 <0>         0.0599
     32 H2        -11.0654   -4.0780   -2.8636 H         1 <0>         0.0593
     33 H3        -12.7320   -3.9595   -2.2500 H         1 <0>         0.1062
     34 H4         -9.7834   -2.4235   -2.9474 H         1 <0>         0.1409
     35 H5         -7.5974   -1.3168   -2.7131 H         1 <0>         0.1353
     36 H6         -7.8469   -1.7013    1.5273 H         1 <0>         0.1430
     37 H7         -6.2085   -0.2329    0.5058 H         1 <0>         0.0838
     38 H8         -6.1025   -0.0763   -1.2641 H         1 <0>         0.0843
     39 H9         -5.4149   -2.7241   -0.5622 H         1 <0>         0.4108
     40 H10        -4.0926   -4.0981   -0.6036 H         1 <0>         0.1402
     41 H11         0.1263   -4.8628   -0.4188 H         1 <0>         0.1437
     42 H12         0.5881   -2.4836   -0.1819 H         1 <0>         0.1588
     43 H13         0.1496    0.3730   -2.0588 H         1 <0>         0.0790
     44 H14        -0.3233    1.7737   -1.0679 H         1 <0>         0.0533
     45 H15         2.4261    0.4471   -1.0893 H         1 <0>         0.0827
     46 H16         2.0137    2.0042   -1.8484 H         1 <0>         0.0738
     47 H17         1.4074    2.9387    0.3538 H         1 <0>         0.0549
     48 H18         1.7637    1.6159    2.4053 H         1 <0>         0.0790
     49 H19         2.2780    0.2171    1.4308 H         1 <0>         0.0816
     50 H20        -0.4642    1.5549    1.3300 H         1 <0>         0.0542
     51 H21        -0.0946   -0.0067    2.1001 H         1 <0>         0.0828
     52 H22         3.7113    2.9888   -0.2751 H         1 <0>         0.3791
@<TRIPOS>BOND
     1    1    2 1
     2    1   31 1
     3    1   32 1
     4    1   33 1
     5    2    3 1
     6    3    8 ar
     7    3    4 ar
     8    4    5 ar
     9    4   34 1
    10    5    6 ar
    11    5   35 1
    12    6    7 ar
    13    6   10 1
    14    7    8 ar
    15    7   36 1
    16    8    9 1
    17   10   11 1
    18   10   37 1
    19   10   38 1
    20   11   12 1
    21   11   39 1
    22   12   21 ar
    23   12   13 ar
    24   13   18 ar
    25   13   14 ar
    26   14   15 ar
    27   14   40 1
    28   15   16 ar
    29   15   29 1
    30   16   17 ar
    31   16   41 1
    32   17   18 ar
    33   17   42 1
    34   18   19 ar
    35   19   20 ar
    36   19   22 1
    37   20   21 ar
    38   22   27 1
    39   22   23 1
    40   23   24 1
    41   23   43 1
    42   23   44 1
    43   24   25 1
    44   24   45 1
    45   24   46 1
    46   25   26 1
    47   25   28 1
    48   25   47 1
    49   26   27 1
    50   26   48 1
    51   26   49 1
    52   27   50 1
    53   27   51 1
    54   28   52 1
    55   29   30 3
@<TRIPOS>MOLECULE
ZINC01659942
   44    45     0     0     0
SMALL
USER_CHARGES

@<TRIPOS>ATOM
      1 C1         -5.0198    2.8628   -0.8337 C.3       1 <0>        -0.1556
      2 C2         -4.3354    2.3805    0.4468 C.3       1 <0>        -0.1224
      3 C3         -2.8371    2.2073    0.1901 C.3       1 <0>        -0.1228
      4 C4         -2.1527    1.7250    1.4707 C.3       1 <0>         0.0705
      5 N1         -0.7141    1.5586    1.2242 N.pl3     1 <0>        -0.6297
      6 C5         -0.0486    1.2271    2.3859 C.ar      1 <0>         0.3908
      7 C6          0.3749    2.2201    3.2903 C.ar      1 <0>        -0.2434
      8 C7          0.2780    3.6307    3.3077 C.2       1 <0>         0.1272
      9 N2          0.8443    4.0688    4.3949 N.2       1 <0>        -0.2017
     10 N3          1.3358    2.9899    5.1385 N.pl3     1 <0>        -0.3548
     11 C8          1.0502    1.8369    4.4627 C.ar      1 <0>         0.3377
     12 C9          0.9076   -0.4021    3.8987 C.ar      1 <0>         0.2792
     13 C10         0.2242   -0.1143    2.7093 C.ar      1 <0>        -0.1838
     14 C11        -0.1970   -1.1989    1.8099 C.2       1 <0>         0.5137
     15 O1         -0.6975   -0.9362    0.7338 O.2       1 <0>        -0.4400
     16 O2         -0.0280   -2.4843    2.1789 O.3       1 <0>        -0.3621
     17 C12        -0.4668   -3.5024    1.2413 C.3       1 <0>         0.0685
     18 C13        -0.1959   -4.8885    1.8297 C.3       1 <0>        -0.1573
     19 C14         2.0369    3.0808    6.4217 C.3       1 <0>         0.1084
     20 C15         1.0207    3.0170    7.5637 C.3       1 <0>        -0.1790
     21 H1         -6.0873    2.9862   -0.6508 H         1 <0>         0.0598
     22 H2         -4.5905    3.8174   -1.1378 H         1 <0>         0.0566
     23 H3         -4.8693    2.1283   -1.6249 H         1 <0>         0.0582
     24 H4         -4.7647    1.4259    0.7509 H         1 <0>         0.0656
     25 H5         -4.4859    3.1150    1.2380 H         1 <0>         0.0631
     26 H6         -2.4078    3.1619   -0.1139 H         1 <0>         0.0712
     27 H7         -2.6866    1.4728   -0.6011 H         1 <0>         0.0856
     28 H8         -2.3032    2.4595    2.2619 H         1 <0>         0.0570
     29 H9         -2.5820    0.7703    1.7747 H         1 <0>         0.0907
     30 H10        -0.3205    2.3884    0.8063 H         1 <0>         0.3814
     31 H11        -0.1874    4.2412    2.5480 H         1 <0>         0.2236
     32 H12         1.1227   -1.4303    4.1495 H         1 <0>         0.2219
     33 H13        -1.5349   -3.3890    1.0554 H         1 <0>         0.0786
     34 H14         0.0787   -3.3926    0.3040 H         1 <0>         0.0794
     35 H15        -0.5253   -5.6528    1.1258 H         1 <0>         0.0892
     36 H16         0.8722   -5.0018    2.0156 H         1 <0>         0.0693
     37 H17        -0.7414   -4.9983    2.7669 H         1 <0>         0.0691
     38 H18         2.7379    2.2511    6.5123 H         1 <0>         0.1048
     39 H19         2.5814    4.0237    6.4721 H         1 <0>         0.1278
     40 H20         1.5423    3.0847    8.5184 H         1 <0>         0.1002
     41 H21         0.3197    3.8468    7.4731 H         1 <0>         0.0792
     42 H22         0.4762    2.0741    7.5132 H         1 <0>         0.0613
     43 N4          1.3263    0.5304    4.7853 N.ar      1 <0>        -0.5127
     44 H23         1.8212    0.2764    5.6483 H         1 <0>         0.4756
@<TRIPOS>BOND
     1    1    2 1
     2    1   21 1
     3    1   22 1
     4    1   23 1
     5    2    3 1
     6    2   24 1
     7    2   25 1
     8    3    4 1
     9    3   26 1
    10    3   27 1
    11    4    5 1
    12    4   28 1
    13    4   29 1
    14    5    6 1
    15    5   30 1
    16    6   13 ar
    17    6    7 ar
    18    7   11 ar
    19    7    8 1
    20    8    9 2
    21    8   31 1
    22    9   10 1
    23   10   11 1
    24   10   19 1
    25   11   43 ar
    26   12   13 ar
    27   12   32 1
    28   12   43 ar
    29   13   14 1
    30   14   15 2
    31   14   16 1
    32   16   17 1
    33   17   18 1
    34   17   33 1
    35   17   34 1
    36   18   35 1
    37   18   36 1
    38   18   37 1
    39   19   20 1
    40   19   38 1
    41   19   39 1
    42   20   40 1
    43   20   41 1
    44   20   42 1
    45   43   44 1
@<TRIPOS>MOLECULE
ZINC03792330
   51    55     0     0     0
SMALL
USER_CHARGES

@<TRIPOS>ATOM
      1 C1          1.1689    2.0888    0.0021 C.ar      1 <0>        -0.0850
      2 C2          2.3791    1.4199   -0.0126 C.ar      1 <0>        -0.1021
      3 C3          2.4055    0.0351   -0.0202 C.ar      1 <0>         0.0408
      4 C4          1.2104   -0.6808   -0.0127 C.ar      1 <0>         0.0293
      5 C5          0.0021   -0.0041    0.0020 C.ar      1 <0>        -0.0786
      6 C6         -0.0167    1.3786    0.0096 C.ar      1 <0>        -0.1025
      7 C7         -1.3328    2.1126    0.0198 C.3       1 <0>         0.1724
      8 N1         -1.7527    2.3430    1.4043 N.pl3     1 <0>        -0.6938
      9 C8         -2.9352    3.0017    1.6654 C.ar      1 <0>         0.4978
     10 C9         -3.3616    3.2291    2.9981 C.ar      1 <0>        -0.2172
     11 C10        -2.6128    2.8009    4.0994 C.ar      1 <0>        -0.0451
     12 C11        -3.0718    3.0465    5.3614 C.ar      1 <0>        -0.0681
     13 C12        -4.2753    3.7171    5.5660 C.ar      1 <0>        -0.0648
     14 C13        -5.0218    4.1567    4.5132 C.ar      1 <0>        -0.1036
     15 C14        -4.5824    3.9158    3.2044 C.ar      1 <0>         0.2240
     16 N2         -5.2889    4.3129    2.1351 N.ar      1 <0>        -0.5869
     17 C15        -4.8478    4.0706    0.9158 C.ar      1 <0>         0.5582
     18 N3         -3.7045    3.4336    0.6773 N.ar      1 <0>        -0.5919
     19 N4         -5.6060    4.4965   -0.1599 N.pl3     1 <0>        -0.4549
     20 C16        -4.8181    5.3577   -1.0510 C.3       1 <0>         0.0738
     21 C17        -5.6393    5.6900   -2.2989 C.3       1 <0>        -0.0933
     22 C18        -6.9293    6.4010   -1.8806 C.3       1 <0>        -0.1324
     23 C19        -7.7077    5.5030   -0.9151 C.3       1 <0>        -0.0967
     24 C20        -6.8265    5.1761    0.2927 C.3       1 <0>         0.0741
     25 C21        -7.7708    6.6786   -3.0995 C.2       1 <0>         0.4668
     26 O1         -8.8798    6.2071   -3.1882 O.co2     1 <0>        -0.6389
     27 Cl1        -2.1437    2.5157    6.7290 Cl        1 <0>        -0.0735
     28 O2          1.5010   -2.0145   -0.0221 O.3       1 <0>        -0.3075
     29 C22         2.8735   -2.1060   -0.4476 C.3       1 <0>         0.2128
     30 O3          3.4442   -0.8503   -0.0342 O.3       1 <0>        -0.3086
     31 H1          1.1502    3.1687    0.0081 H         1 <0>         0.1429
     32 H2          3.3040    1.9774   -0.0184 H         1 <0>         0.1390
     33 H3         -0.9259   -0.5565    0.0079 H         1 <0>         0.1391
     34 H4         -1.2190    3.0696   -0.4894 H         1 <0>         0.0886
     35 H5         -2.0860    1.5151   -0.4937 H         1 <0>         0.0868
     36 H6         -1.1988    2.0319    2.1373 H         1 <0>         0.4123
     37 H7         -1.6782    2.2800    3.9524 H         1 <0>         0.1309
     38 H8         -4.6177    3.8998    6.5738 H         1 <0>         0.1394
     39 H9         -5.9529    4.6757    4.6868 H         1 <0>         0.1472
     40 H10        -4.5598    6.2797   -0.5301 H         1 <0>         0.0423
     41 H11        -3.9056    4.8386   -1.3443 H         1 <0>         0.0889
     42 H12        -5.8862    4.7694   -2.8278 H         1 <0>         0.0677
     43 H13        -5.0601    6.3419   -2.9528 H         1 <0>         0.0801
     44 H14        -6.6834    7.3406   -1.3860 H         1 <0>         0.0660
     45 H15        -7.9872    4.5795   -1.4222 H         1 <0>         0.0714
     46 H16        -8.6066    6.0206   -0.5802 H         1 <0>         0.0720
     47 H17        -7.3728    4.5252    0.9753 H         1 <0>         0.0841
     48 H18        -6.5588    6.0990    0.8071 H         1 <0>         0.0499
     49 H19         2.9323   -2.2154   -1.5305 H         1 <0>         0.0865
     50 H20         3.3742   -2.9365    0.0501 H         1 <0>         0.1329
     51 O4         -7.2885    7.4496   -4.0867 O.co2     1 <0>        -0.7727
@<TRIPOS>BOND
     1    1    6 ar
     2    1    2 ar
     3    1   31 1
     4    2    3 ar
     5    2   32 1
     6    3   30 1
     7    3    4 ar
     8    4    5 ar
     9    4   28 1
    10    5    6 ar
    11    5   33 1
    12    6    7 1
    13    7    8 1
    14    7   34 1
    15    7   35 1
    16    8    9 1
    17    8   36 1
    18    9   18 ar
    19    9   10 ar
    20   10   15 ar
    21   10   11 ar
    22   11   12 ar
    23   11   37 1
    24   12   13 ar
    25   12   27 1
    26   13   14 ar
    27   13   38 1
    28   14   15 ar
    29   14   39 1
    30   15   16 ar
    31   16   17 ar
    32   17   18 ar
    33   17   19 1
    34   19   24 1
    35   19   20 1
    36   20   21 1
    37   20   40 1
    38   20   41 1
    39   21   22 1
    40   21   42 1
    41   21   43 1
    42   22   23 1
    43   22   25 1
    44   22   44 1
    45   23   24 1
    46   23   45 1
    47   23   46 1
    48   24   47 1
    49   24   48 1
    50   25   26 2
    51   25   51 1
    52   28   29 1
    53   29   30 1
    54   29   49 1
    55   29   50 1
@<TRIPOS>MOLECULE
ZINC03802172
   47    51     0     0     0
SMALL
USER_CHARGES

@<TRIPOS>ATOM
      1 C1          5.5449   -1.8152   -4.5433 C.3       1 <0>        -0.0900
      2 C2          4.8082   -0.5942   -4.0558 C.2       1 <0>         0.3177
      3 N1          4.1160   -0.5246   -2.9474 N.2       1 <0>        -0.4757
      4 C3          3.5941    0.6988   -2.8158 C.2       1 <0>         0.3121
      5 C4          3.9914    1.4367   -3.9210 C.2       1 <0>        -0.1213
      6 N2          4.7630    0.5907   -4.6947 N.pl3     1 <0>        -0.3923
      7 C5          5.4090    0.9200   -5.9677 C.3       1 <0>         0.1386
      8 C6          6.7934    1.4543   -5.7050 C.ar      1 <0>        -0.1333
      9 C7          6.9883    2.8111   -5.5265 C.ar      1 <0>        -0.0937
     10 C8          8.2576    3.3008   -5.2816 C.ar      1 <0>        -0.1211
     11 C9          9.3333    2.4345   -5.2235 C.ar      1 <0>        -0.0976
     12 C10         9.1392    1.0782   -5.4073 C.ar      1 <0>        -0.1185
     13 C11         7.8693    0.5882   -5.6483 C.ar      1 <0>        -0.0975
     14 C12         3.5781    2.7801   -4.0409 C.2       1 <0>         0.5986
     15 O1          3.9153    3.4382   -5.0087 O.2       1 <0>        -0.4655
     16 N3          2.8108    3.3326   -3.0848 N.am      1 <0>        -0.5184
     17 C13         2.4107    2.6050   -1.9740 C.cat     1 <0>         0.6989
     18 C14         1.4697    1.9467   -0.0015 C.3       1 <0>         0.1108
     19 H1          1.8283    2.2088    0.9939 H         1 <0>         0.1543
     20 C15        -0.0189    1.5442    0.0105 C.3       1 <0>        -0.1398
     21 C16         0.0021   -0.0041    0.0020 C.3       1 <0>        -0.1217
     22 C17         1.1889   -0.3243   -0.9399 C.3       1 <0>        -0.1347
     23 C18         2.2427    0.7483   -0.6001 C.3       1 <0>         0.1185
     24 H2          3.0175    0.3687    0.0660 H         1 <0>         0.1499
     25 N4          2.7984    1.2957   -1.8485 N.pl3     1 <0>        -0.4664
     26 C19         2.3903    4.7295   -3.2187 C.3       1 <0>         0.0421
     27 H3          6.5632   -1.8045   -4.1545 H         1 <0>         0.1052
     28 H4          5.0325   -2.7119   -4.1950 H         1 <0>         0.1119
     29 H5          5.5720   -1.8122   -5.6329 H         1 <0>         0.0946
     30 H6          5.4764    0.0233   -6.5836 H         1 <0>         0.1209
     31 H7          4.8209    1.6754   -6.4888 H         1 <0>         0.1199
     32 H8          6.1484    3.4883   -5.5752 H         1 <0>         0.1302
     33 H9          8.4093    4.3604   -5.1384 H         1 <0>         0.1280
     34 H10        10.3254    2.8173   -5.0349 H         1 <0>         0.1299
     35 H11         9.9796    0.4015   -5.3623 H         1 <0>         0.1315
     36 H12         7.7176   -0.4715   -5.7918 H         1 <0>         0.1269
     37 H13        -0.5233    1.9232   -0.8783 H         1 <0>         0.0882
     38 H14        -0.5062    1.9136    0.9129 H         1 <0>         0.1045
     39 H15         0.1874   -0.3934    1.0031 H         1 <0>         0.0917
     40 H16        -0.9307   -0.4009   -0.3986 H         1 <0>         0.0953
     41 H17         1.5797   -1.3211   -0.7355 H         1 <0>         0.1042
     42 H18         0.8811   -0.2427   -1.9824 H         1 <0>         0.0843
     43 H19         2.7928    5.1431   -4.1434 H         1 <0>         0.1327
     44 H20         1.3017    4.7806   -3.2415 H         1 <0>         0.0993
     45 H21         2.7633    5.3041   -2.3709 H         1 <0>         0.0993
     46 N5          1.6726    3.0274   -0.9782 N.pl3     1 <0>        -0.6273
     47 H22         1.2905    3.9765   -0.8917 H         1 <0>         0.4749
@<TRIPOS>BOND
     1    1    2 1
     2    1   27 1
     3    1   28 1
     4    1   29 1
     5    2    6 1
     6    2    3 2
     7    3    4 1
     8    4   25 1
     9    4    5 2
    10    5    6 1
    11    5   14 1
    12    6    7 1
    13    7    8 1
    14    7   30 1
    15    7   31 1
    16    8   13 ar
    17    8    9 ar
    18    9   10 ar
    19    9   32 1
    20   10   11 ar
    21   10   33 1
    22   11   12 ar
    23   11   34 1
    24   12   13 ar
    25   12   35 1
    26   13   36 1
    27   14   15 2
    28   14   16 am
    29   16   17 1
    30   16   26 1
    31   17   25 1
    32   17   46 2
    33   18   19 1
    34   18   23 1
    35   18   20 1
    36   18   46 1
    37   20   21 1
    38   20   37 1
    39   20   38 1
    40   21   22 1
    41   21   39 1
    42   21   40 1
    43   22   23 1
    44   22   41 1
    45   22   42 1
    46   23   24 1
    47   23   25 1
    48   26   43 1
    49   26   44 1
    50   26   45 1
    51   46   47 1
@<TRIPOS>MOLECULE
ZINC03802172
   48    52     0     0     0
SMALL
USER_CHARGES

@<TRIPOS>ATOM
      1 C1          5.5449   -1.8152   -4.5433 C.3       1 <0>        -0.1274
      2 C2          4.8082   -0.5942   -4.0558 C.cat     1 <0>         0.3956
      3 C3          3.5941    0.6988   -2.8158 C.2       1 <0>         0.3457
      4 C4          3.9914    1.4367   -3.9210 C.2       1 <0>        -0.0438
      5 N1          4.7630    0.5907   -4.6947 N.pl3     1 <0>        -0.3447
      6 C5          5.4090    0.9200   -5.9677 C.3       1 <0>         0.1306
      7 C6          6.7934    1.4543   -5.7050 C.ar      1 <0>        -0.1591
      8 C7          6.9883    2.8111   -5.5265 C.ar      1 <0>        -0.0886
      9 C8          8.2576    3.3008   -5.2816 C.ar      1 <0>        -0.1162
     10 C9          9.3333    2.4345   -5.2235 C.ar      1 <0>        -0.0799
     11 C10         9.1392    1.0782   -5.4073 C.ar      1 <0>        -0.1144
     12 C11         7.8693    0.5882   -5.6483 C.ar      1 <0>        -0.0947
     13 C12         3.5781    2.7801   -4.0409 C.2       1 <0>         0.5953
     14 O1          3.9153    3.4382   -5.0087 O.2       1 <0>        -0.4167
     15 N2          2.8108    3.3326   -3.0848 N.am      1 <0>        -0.5120
     16 C13         2.4107    2.6050   -1.9740 C.cat     1 <0>         0.7151
     17 C14         1.4697    1.9467   -0.0015 C.3       1 <0>         0.1101
     18 H1          1.8283    2.2088    0.9939 H         1 <0>         0.1695
     19 C15        -0.0189    1.5442    0.0105 C.3       1 <0>        -0.1432
     20 C16         0.0021   -0.0041    0.0020 C.3       1 <0>        -0.1197
     21 C17         1.1889   -0.3243   -0.9399 C.3       1 <0>        -0.1502
     22 C18         2.2427    0.7483   -0.6001 C.3       1 <0>         0.1045
     23 H2          3.0175    0.3687    0.0660 H         1 <0>         0.1616
     24 N3          2.7984    1.2957   -1.8485 N.pl3     1 <0>        -0.4974
     25 C19         2.3903    4.7295   -3.2187 C.3       1 <0>         0.0337
     26 H3          6.5632   -1.8045   -4.1545 H         1 <0>         0.1426
     27 H4          5.0325   -2.7119   -4.1950 H         1 <0>         0.1357
     28 H5          5.5720   -1.8122   -5.6329 H         1 <0>         0.1345
     29 H6          5.4764    0.0233   -6.5836 H         1 <0>         0.1447
     30 H7          4.8209    1.6754   -6.4888 H         1 <0>         0.1444
     31 H8          6.1484    3.4883   -5.5752 H         1 <0>         0.1319
     32 H9          8.4093    4.3604   -5.1384 H         1 <0>         0.1357
     33 H10        10.3254    2.8173   -5.0349 H         1 <0>         0.1381
     34 H11         9.9796    0.4015   -5.3623 H         1 <0>         0.1389
     35 H12         7.7176   -0.4715   -5.7918 H         1 <0>         0.1301
     36 H13        -0.5233    1.9232   -0.8783 H         1 <0>         0.0941
     37 H14        -0.5062    1.9136    0.9129 H         1 <0>         0.1160
     38 H15         0.1874   -0.3934    1.0031 H         1 <0>         0.0995
     39 H16        -0.9307   -0.4009   -0.3986 H         1 <0>         0.1049
     40 H17         1.5797   -1.3211   -0.7355 H         1 <0>         0.1070
     41 H18         0.8811   -0.2427   -1.9824 H         1 <0>         0.0898
     42 H19         2.7928    5.1431   -4.1434 H         1 <0>         0.1420
     43 H20         1.3017    4.7806   -3.2415 H         1 <0>         0.1115
     44 H21         2.7633    5.3041   -2.3709 H         1 <0>         0.1115
     45 N4          1.6726    3.0274   -0.9782 N.pl3     1 <0>        -0.5966
     46 H22         1.2905    3.9765   -0.8917 H         1 <0>         0.4877
     47 N5          4.1158   -0.5261   -2.9461 N.pl3     1 <0>        -0.4882
     48 H23         3.9922   -1.2958   -2.2779 H         1 <0>         0.4905
@<TRIPOS>BOND
     1    1    2 1
     2    1   26 1
     3    1   27 1
     4    1   28 1
     5    2    5 1
     6    2   47 2
     7    3   24 1
     8    3    4 2
     9    3   47 1
    10    4    5 1
    11    4   13 1
    12    5    6 1
    13    6    7 1
    14    6   29 1
    15    6   30 1
    16    7   12 ar
    17    7    8 ar
    18    8    9 ar
    19    8   31 1
    20    9   10 ar
    21    9   32 1
    22   10   11 ar
    23   10   33 1
    24   11   12 ar
    25   11   34 1
    26   12   35 1
    27   13   14 2
    28   13   15 am
    29   15   16 1
    30   15   25 1
    31   16   24 1
    32   16   45 2
    33   17   18 1
    34   17   22 1
    35   17   19 1
    36   17   45 1
    37   19   20 1
    38   19   36 1
    39   19   37 1
    40   20   21 1
    41   20   38 1
    42   20   39 1
    43   21   22 1
    44   21   40 1
    45   21   41 1
    46   22   23 1
    47   22   24 1
    48   25   42 1
    49   25   43 1
    50   25   44 1
    51   45   46 1
    52   47   48 1
@<TRIPOS>MOLECULE
ZINC03824369
   52    55     0     0     0
SMALL
USER_CHARGES

@<TRIPOS>ATOM
      1 C1         -1.8725    0.6341   -6.4515 C.3       1 <0>        -0.1790
      2 C2         -0.9459    1.7431   -5.9489 C.3       1 <0>         0.1104
      3 N1         -0.4908    1.4224   -4.5938 N.pl3     1 <0>        -0.3730
      4 C3         -1.1241    1.7922   -3.4365 C.ar      1 <0>         0.3990
      5 C4         -0.3475    1.2763   -2.3749 C.ar      1 <0>        -0.2671
      6 C5          0.7806    0.5812   -2.9874 C.2       1 <0>         0.1371
      7 N2          0.6577    0.6910   -4.2784 N.2       1 <0>        -0.2048
      8 C6         -0.7478    1.4951   -1.0512 C.ar      1 <0>         0.3981
      9 C7         -1.9361    2.2312   -0.8375 C.ar      1 <0>        -0.1233
     10 C8         -2.3953    2.4945    0.4583 C.ar      1 <0>         0.0400
     11 C9         -3.5614    3.2251    0.6333 C.ar      1 <0>        -0.0245
     12 C10        -4.2743    3.7034   -0.4826 C.ar      1 <0>         0.0252
     13 C11        -3.8393    3.4613   -1.7436 C.ar      1 <0>        -0.1624
     14 C12        -2.6577    2.7218   -1.9568 C.ar      1 <0>         0.2368
     15 C13        -4.0426    3.4937    1.9550 C.1       1 <0>         0.2274
     16 N3         -4.4244    3.7068    3.0035 N.1       1 <0>        -0.3614
     17 N4         -0.0116    1.0048    0.0076 N.pl3     1 <0>        -0.6558
     18 C14         1.3525    1.5499   -0.0025 C.3       1 <0>         0.0856
     19 H1          1.6870    1.6728   -1.0326 H         1 <0>         0.0661
     20 C15         1.3645    2.9074    0.7030 C.3       1 <0>        -0.1561
     21 C16         2.2917    0.5875    0.7273 C.3       1 <0>        -0.0902
     22 C17         1.8221    0.4150    2.1732 C.3       1 <0>        -0.1135
     23 C18         2.7612   -0.5474    2.9031 C.3       1 <0>        -0.1230
     24 C19         4.1820    0.0203    2.8925 C.3       1 <0>        -0.1241
     25 C20         4.6516    0.1928    1.4466 C.3       1 <0>        -0.1205
     26 C21         3.7124    1.1552    0.7168 C.3       1 <0>        -0.1151
     27 H2         -2.7340    0.5522   -5.7887 H         1 <0>         0.0612
     28 H3         -2.2111    0.8728   -7.4597 H         1 <0>         0.0986
     29 H4         -1.3325   -0.3126   -6.4641 H         1 <0>         0.0783
     30 H5         -1.4859    2.6898   -5.9362 H         1 <0>         0.1028
     31 H6         -0.0845    1.8250   -6.6116 H         1 <0>         0.1256
     32 H7          1.5737    0.0682   -2.4638 H         1 <0>         0.2249
     33 H8         -1.8488    2.1279    1.3147 H         1 <0>         0.1783
     34 H9         -5.1807    4.2710   -0.3319 H         1 <0>         0.1651
     35 H10        -4.3997    3.8356   -2.5876 H         1 <0>         0.1660
     36 H11         0.0021   -0.0041    0.0020 H         1 <0>         0.3918
     37 H12         0.6954    3.5931    0.1831 H         1 <0>         0.0516
     38 H13         1.0300    2.7845    1.7331 H         1 <0>         0.0796
     39 H14         2.3767    3.3119    0.6955 H         1 <0>         0.0787
     40 H15         2.2831   -0.3797    0.2247 H         1 <0>         0.0774
     41 H16         1.8306    1.3821    2.6759 H         1 <0>         0.0710
     42 H17         0.8099    0.0105    2.1807 H         1 <0>         0.0692
     43 H18         2.7527   -1.5146    2.4004 H         1 <0>         0.0617
     44 H19         2.4267   -0.6703    3.9331 H         1 <0>         0.0657
     45 H20         4.8511   -0.6654    3.4125 H         1 <0>         0.0644
     46 H21         4.1905    0.9874    3.3952 H         1 <0>         0.0631
     47 H22         4.6430   -0.7744    0.9440 H         1 <0>         0.0629
     48 H23         5.6637    0.5972    1.4391 H         1 <0>         0.0667
     49 H24         4.0469    1.2781   -0.3133 H         1 <0>         0.0634
     50 H25         3.7210    2.1223    1.2194 H         1 <0>         0.0720
     51 N5         -2.2717    2.5111   -3.2606 N.ar      1 <0>        -0.5383
     52 H26        -2.8141    2.8727   -4.0538 H         1 <0>         0.4664
@<TRIPOS>BOND
     1    1    2 1
     2    1   27 1
     3    1   28 1
     4    1   29 1
     5    2    3 1
     6    2   30 1
     7    2   31 1
     8    3    7 1
     9    3    4 1
    10    4    5 ar
    11    4   51 ar
    12    5    6 1
    13    5    8 ar
    14    6    7 2
    15    6   32 1
    16    8    9 ar
    17    8   17 1
    18    9   14 ar
    19    9   10 ar
    20   10   11 ar
    21   10   33 1
    22   11   12 ar
    23   11   15 1
    24   12   13 ar
    25   12   34 1
    26   13   14 ar
    27   13   35 1
    28   14   51 ar
    29   15   16 3
    30   17   18 1
    31   17   36 1
    32   18   19 1
    33   18   20 1
    34   18   21 1
    35   20   37 1
    36   20   38 1
    37   20   39 1
    38   21   26 1
    39   21   22 1
    40   21   40 1
    41   22   23 1
    42   22   41 1
    43   22   42 1
    44   23   24 1
    45   23   43 1
    46   23   44 1
    47   24   25 1
    48   24   45 1
    49   24   46 1
    50   25   26 1
    51   25   47 1
    52   25   48 1
    53   26   49 1
    54   26   50 1
    55   51   52 1
@<TRIPOS>MOLECULE
ZINC03831447
   64    67     0     0     0
SMALL
USER_CHARGES

@<TRIPOS>ATOM
      1 C1          6.8303   -1.9001    9.2885 C.3       1 <0>        -0.1524
      2 C2          6.3870   -2.6509    8.0312 C.3       1 <0>        -0.1160
      3 C3          6.9674   -1.9620    6.7945 C.3       1 <0>        -0.0383
      4 C4          6.5308   -2.7015    5.5562 C.2       1 <0>         0.1119
      5 C5          5.3622   -2.4413    4.8143 C.2       1 <0>         0.0376
      6 C6          5.3430   -3.3518    3.7498 C.2       1 <0>        -0.0317
      7 C7          4.2641   -3.3101    2.8365 C.2       1 <0>         0.5730
      8 O1          4.2109   -4.0853    1.8975 O.2       1 <0>        -0.5203
      9 N1          3.2915   -2.3924    3.0325 N.am      1 <0>        -0.6373
     10 H1          2.5151   -2.3480    2.4038 H         1 <0>         0.4240
     11 C8          3.3642   -1.5235    4.0874 C.2       1 <0>         0.3865
     12 N2          4.3577   -1.5510    4.9423 N.2       1 <0>        -0.4217
     13 C9          2.2882   -0.5295    4.2718 C.ar      1 <0>        -0.1033
     14 C10         1.2159   -0.4818    3.3786 C.ar      1 <0>         0.0368
     15 C11         0.2170    0.4521    3.5532 C.ar      1 <0>        -0.7249
     16 C12         0.2666    1.3373    4.6172 C.ar      1 <0>         0.0399
     17 C13         1.3194    1.2973    5.5104 C.ar      1 <0>        -0.2285
     18 C14         2.3349    0.3679    5.3465 C.ar      1 <0>         0.2485
     19 O2          3.3702    0.3278    6.2233 O.3       1 <0>        -0.2540
     20 C15         3.3505    1.2740    7.2940 C.3       1 <0>         0.0409
     21 C16         4.5885    1.0772    8.1713 C.3       1 <0>        -0.1541
     22 S1         -1.1323    0.5151    2.4218 S.o2      1 <0>         2.6940
     23 O3         -2.2175    1.1139    3.1169 O.2       1 <0>        -0.9359
     24 O4         -1.2254   -0.7728    1.8286 O.2       1 <0>        -0.9379
     25 N3         -0.7086    1.5639    1.2123 N.pl3     1 <0>        -1.0141
     26 C17        -0.0127    1.0858    0.0080 C.3       1 <0>         0.0876
     27 C18        -0.7616    1.5973   -1.2272 C.3       1 <0>        -0.0140
     28 C19        -1.7318    3.4342    0.0240 C.3       1 <0>        -0.0142
     29 C20        -1.0227    2.9981    1.3105 C.3       1 <0>         0.0893
     30 C21        -1.4718    3.6062   -2.3771 C.3       1 <0>        -0.0423
     31 N4          6.4665   -4.1226    3.8643 N.pl3     1 <0>        -0.3264
     32 N5          7.1735   -3.6887    4.9933 N.2       1 <0>        -0.2295
     33 C22         6.8612   -5.2099    2.9653 C.3       1 <0>         0.0972
     34 H2          7.9187   -1.9026    9.3484 H         1 <0>         0.0574
     35 H3          6.4713   -0.8719    9.2432 H         1 <0>         0.0572
     36 H4          6.4168   -2.3909   10.1695 H         1 <0>         0.0578
     37 H5          5.2987   -2.6484    7.9714 H         1 <0>         0.0655
     38 H6          6.7460   -3.6791    8.0765 H         1 <0>         0.0641
     39 H7          8.0558   -1.9645    6.8544 H         1 <0>         0.0852
     40 H8          6.6084   -0.9338    6.7493 H         1 <0>         0.0934
     41 H9          1.1713   -1.1729    2.5499 H         1 <0>         0.1441
     42 H10        -0.5221    2.0631    4.7490 H         1 <0>         0.1490
     43 H11         1.3513    1.9907    6.3377 H         1 <0>         0.1519
     44 H12         3.3513    2.2847    6.8859 H         1 <0>         0.0685
     45 H13         2.4527    1.1251    7.8939 H         1 <0>         0.0701
     46 H14         4.5878    0.0666    8.5794 H         1 <0>         0.0738
     47 H15         5.4863    1.2261    7.5713 H         1 <0>         0.0705
     48 H16         4.5735    1.7989    8.9880 H         1 <0>         0.0826
     49 H17         0.0021   -0.0041    0.0020 H         1 <0>         0.1391
     50 H18         1.0089    1.4659    0.0003 H         1 <0>         0.1011
     51 H19        -0.1966    1.3461   -2.1249 H         1 <0>         0.1449
     52 H20        -1.7458    1.1314   -1.2747 H         1 <0>         0.1384
     53 H21        -1.8705    4.5153    0.0337 H         1 <0>         0.1449
     54 H22        -2.7029    2.9435   -0.0408 H         1 <0>         0.1380
     55 H23        -0.0993    3.5648    1.4298 H         1 <0>         0.1007
     56 H24        -1.6744    3.1757    2.1660 H         1 <0>         0.1398
     57 H25        -2.4508    3.1643   -2.5622 H         1 <0>         0.1245
     58 H26        -1.5733    4.6873   -2.2819 H         1 <0>         0.1243
     59 H27        -0.8060    3.3757   -3.2088 H         1 <0>         0.1240
     60 H28         7.4777   -4.8100    2.1603 H         1 <0>         0.0843
     61 H29         7.4297   -5.9541    3.5230 H         1 <0>         0.0993
     62 H30         5.9698   -5.6745    2.5438 H         1 <0>         0.1010
     63 N6         -0.8852    3.0681   -1.1323 N.4       1 <0>        -0.3960
     64 H31         0.0493    3.4729   -1.0019 H         1 <0>         0.4300
@<TRIPOS>BOND
     1    1    2 1
     2    1   34 1
     3    1   35 1
     4    1   36 1
     5    2    3 1
     6    2   37 1
     7    2   38 1
     8    3    4 1
     9    3   39 1
    10    3   40 1
    11    4   32 2
    12    4    5 1
    13    5   12 1
    14    5    6 2
    15    6    7 1
    16    6   31 1
    17    7    8 2
    18    7    9 am
    19    9   10 1
    20    9   11 1
    21   11   12 2
    22   11   13 1
    23   13   18 ar
    24   13   14 ar
    25   14   15 ar
    26   14   41 1
    27   15   16 ar
    28   15   22 1
    29   16   17 ar
    30   16   42 1
    31   17   18 ar
    32   17   43 1
    33   18   19 1
    34   19   20 1
    35   20   21 1
    36   20   44 1
    37   20   45 1
    38   21   46 1
    39   21   47 1
    40   21   48 1
    41   22   23 2
    42   22   24 2
    43   22   25 1
    44   25   29 1
    45   25   26 1
    46   26   27 1
    47   26   49 1
    48   26   50 1
    49   27   51 1
    50   27   52 1
    51   27   63 1
    52   28   29 1
    53   28   53 1
    54   28   54 1
    55   28   63 1
    56   29   55 1
    57   29   56 1
    58   30   57 1
    59   30   58 1
    60   30   59 1
    61   30   63 1
    62   31   32 1
    63   31   33 1
    64   33   60 1
    65   33   61 1
    66   33   62 1
    67   63   64 1
@<TRIPOS>MOLECULE
ZINC03831447
   64    67     0     0     0
SMALL
USER_CHARGES

@<TRIPOS>ATOM
      1 C1          6.8303   -1.9001    9.2885 C.3       1 <0>        -0.1524
      2 C2          6.3870   -2.6509    8.0312 C.3       1 <0>        -0.1160
      3 C3          6.9674   -1.9620    6.7945 C.3       1 <0>        -0.0383
      4 C4          6.5308   -2.7015    5.5562 C.2       1 <0>         0.1119
      5 C5          5.3622   -2.4413    4.8143 C.2       1 <0>         0.0376
      6 C6          5.3430   -3.3518    3.7498 C.2       1 <0>        -0.0317
      7 C7          4.2641   -3.3101    2.8365 C.2       1 <0>         0.5730
      8 O1          4.2109   -4.0853    1.8975 O.2       1 <0>        -0.5203
      9 N1          3.2915   -2.3924    3.0325 N.am      1 <0>        -0.6373
     10 H1          2.5151   -2.3480    2.4038 H         1 <0>         0.4240
     11 C8          3.3642   -1.5235    4.0874 C.2       1 <0>         0.3865
     12 N2          4.3577   -1.5510    4.9423 N.2       1 <0>        -0.4217
     13 C9          2.2882   -0.5295    4.2718 C.ar      1 <0>        -0.1033
     14 C10         1.2159   -0.4818    3.3786 C.ar      1 <0>         0.0368
     15 C11         0.2170    0.4521    3.5532 C.ar      1 <0>        -0.7249
     16 C12         0.2666    1.3373    4.6172 C.ar      1 <0>         0.0399
     17 C13         1.3194    1.2973    5.5104 C.ar      1 <0>        -0.2285
     18 C14         2.3349    0.3679    5.3465 C.ar      1 <0>         0.2485
     19 O2          3.3702    0.3278    6.2233 O.3       1 <0>        -0.2540
     20 C15         3.3505    1.2740    7.2940 C.3       1 <0>         0.0409
     21 C16         4.5885    1.0772    8.1713 C.3       1 <0>        -0.1541
     22 S1         -1.1323    0.5151    2.4218 S.o2      1 <0>         2.6940
     23 O3         -2.2175    1.1139    3.1169 O.2       1 <0>        -0.9359
     24 O4         -1.2254   -0.7728    1.8286 O.2       1 <0>        -0.9379
     25 N3         -0.7086    1.5639    1.2123 N.pl3     1 <0>        -1.0141
     26 C17        -0.0127    1.0858    0.0080 C.3       1 <0>         0.0876
     27 C18        -0.7616    1.5973   -1.2272 C.3       1 <0>        -0.0140
     28 C19        -1.7318    3.4342    0.0240 C.3       1 <0>        -0.0142
     29 C20        -1.0227    2.9981    1.3105 C.3       1 <0>         0.0893
     30 C21        -1.4718    3.6062   -2.3771 C.3       1 <0>        -0.0423
     31 N4          6.4665   -4.1226    3.8643 N.pl3     1 <0>        -0.3264
     32 N5          7.1735   -3.6887    4.9933 N.2       1 <0>        -0.2295
     33 C22         6.8612   -5.2099    2.9653 C.3       1 <0>         0.0972
     34 H2          7.9187   -1.9026    9.3484 H         1 <0>         0.0574
     35 H3          6.4713   -0.8719    9.2432 H         1 <0>         0.0572
     36 H4          6.4168   -2.3909   10.1695 H         1 <0>         0.0578
     37 H5          5.2987   -2.6484    7.9714 H         1 <0>         0.0655
     38 H6          6.7460   -3.6791    8.0765 H         1 <0>         0.0641
     39 H7          8.0558   -1.9645    6.8544 H         1 <0>         0.0852
     40 H8          6.6084   -0.9338    6.7493 H         1 <0>         0.0934
     41 H9          1.1713   -1.1729    2.5499 H         1 <0>         0.1441
     42 H10        -0.5221    2.0631    4.7490 H         1 <0>         0.1490
     43 H11         1.3513    1.9907    6.3377 H         1 <0>         0.1519
     44 H12         3.3513    2.2847    6.8859 H         1 <0>         0.0685
     45 H13         2.4527    1.1251    7.8939 H         1 <0>         0.0701
     46 H14         4.5878    0.0666    8.5794 H         1 <0>         0.0738
     47 H15         5.4863    1.2261    7.5713 H         1 <0>         0.0705
     48 H16         4.5735    1.7989    8.9880 H         1 <0>         0.0826
     49 H17         0.0021   -0.0041    0.0020 H         1 <0>         0.1391
     50 H18         1.0089    1.4659    0.0003 H         1 <0>         0.1011
     51 H19        -0.1966    1.3461   -2.1249 H         1 <0>         0.1449
     52 H20        -1.7458    1.1314   -1.2747 H         1 <0>         0.1384
     53 H21        -1.8705    4.5153    0.0337 H         1 <0>         0.1449
     54 H22        -2.7029    2.9435   -0.0408 H         1 <0>         0.1380
     55 H23        -0.0993    3.5648    1.4298 H         1 <0>         0.1007
     56 H24        -1.6744    3.1757    2.1660 H         1 <0>         0.1398
     57 H25        -2.4508    3.1643   -2.5622 H         1 <0>         0.1245
     58 H26        -1.5733    4.6873   -2.2819 H         1 <0>         0.1243
     59 H27        -0.8060    3.3757   -3.2088 H         1 <0>         0.1240
     60 H28         7.4777   -4.8100    2.1603 H         1 <0>         0.0843
     61 H29         7.4297   -5.9541    3.5230 H         1 <0>         0.0993
     62 H30         5.9698   -5.6745    2.5438 H         1 <0>         0.1010
     63 N6         -0.8852    3.0681   -1.1323 N.4       1 <0>        -0.3960
     64 H31         0.0493    3.4729   -1.0019 H         1 <0>         0.4300
@<TRIPOS>BOND
     1    1    2 1
     2    1   34 1
     3    1   35 1
     4    1   36 1
     5    2    3 1
     6    2   37 1
     7    2   38 1
     8    3    4 1
     9    3   39 1
    10    3   40 1
    11    4   32 2
    12    4    5 1
    13    5   12 1
    14    5    6 2
    15    6    7 1
    16    6   31 1
    17    7    8 2
    18    7    9 am
    19    9   10 1
    20    9   11 1
    21   11   12 2
    22   11   13 1
    23   13   18 ar
    24   13   14 ar
    25   14   15 ar
    26   14   41 1
    27   15   16 ar
    28   15   22 1
    29   16   17 ar
    30   16   42 1
    31   17   18 ar
    32   17   43 1
    33   18   19 1
    34   19   20 1
    35   20   21 1
    36   20   44 1
    37   20   45 1
    38   21   46 1
    39   21   47 1
    40   21   48 1
    41   22   23 2
    42   22   24 2
    43   22   25 1
    44   25   29 1
    45   25   26 1
    46   26   27 1
    47   26   49 1
    48   26   50 1
    49   27   51 1
    50   27   52 1
    51   27   63 1
    52   28   29 1
    53   28   53 1
    54   28   54 1
    55   28   63 1
    56   29   55 1
    57   29   56 1
    58   30   57 1
    59   30   58 1
    60   30   59 1
    61   30   63 1
    62   31   32 1
    63   31   33 1
    64   33   60 1
    65   33   61 1
    66   33   62 1
    67   63   64 1
@<TRIPOS>MOLECULE
ZINC03940657
   66    69     0     0     0
SMALL
USER_CHARGES

@<TRIPOS>ATOM
      1 C1         -0.8785   -0.9267    3.8215 C.3       1 <0>         0.0199
      2 O1          0.3698   -1.4047    4.3266 O.3       1 <0>        -0.2953
      3 C2          1.4984   -0.9187    3.7438 C.ar      1 <0>         0.1252
      4 C3          1.4045    0.0001    2.7153 C.ar      1 <0>        -0.1618
      5 C4          2.5650    0.4920    2.1140 C.ar      1 <0>        -0.0444
      6 C5          3.8161    0.0632    2.5627 C.ar      1 <0>        -0.0898
      7 C6          3.9034   -0.8488    3.5940 C.ar      1 <0>        -0.0782
      8 C7          2.7493   -1.3424    4.1874 C.ar      1 <0>         0.1107
      9 O2          2.8400   -2.2412    5.2029 O.3       1 <0>        -0.3143
     10 C8          2.9083   -1.7158    6.5300 C.3       1 <0>         0.0338
     11 Br1         5.5983   -1.4284    4.2002 Br        1 <0>        -0.0095
     12 C9          2.4695    1.4690    1.0094 C.ar      1 <0>         0.0316
     13 C10         2.9663    2.7852    1.1775 C.ar      1 <0>        -0.0115
     14 C11         3.5526    3.1739    2.3913 C.ar      1 <0>        -0.0935
     15 C12         4.0224    4.4445    2.5420 C.ar      1 <0>        -0.0837
     16 C13         3.9296    5.3684    1.5053 C.ar      1 <0>        -0.0810
     17 C14         3.3662    5.0264    0.3120 C.ar      1 <0>        -0.0289
     18 C15         2.8705    3.7228    0.1210 C.ar      1 <0>        -0.0392
     19 C16         2.2865    3.3566   -1.1048 C.ar      1 <0>        -0.0678
     20 C17         1.8010    2.0774   -1.2893 C.ar      1 <0>        -0.1011
     21 C18         1.8939    1.0988   -0.2068 C.ar      1 <0>        -0.0512
     22 C19         1.3777   -0.2668   -0.3967 C.2       1 <0>         0.5226
     23 O3          2.1060   -1.1366   -0.8326 O.2       1 <0>        -0.4878
     24 O4          0.0956   -0.5512   -0.0923 O.3       1 <0>        -0.3381
     25 C20        -0.3464   -1.9169   -0.3106 C.3       1 <0>         0.0350
     26 C21         1.1880    1.6978   -2.5788 C.2       1 <0>         0.5711
     27 O5          0.2368    0.9410   -2.6003 O.2       1 <0>        -0.4878
     28 N1          1.6832    2.1906   -3.7314 N.am      1 <0>        -0.6262
     29 C22         2.8839    3.0401   -3.7350 C.3       1 <0>         0.0638
     30 C23         3.8763    2.4676   -4.7595 C.3       1 <0>        -0.0167
     31 C24         2.0957    1.3754   -5.9916 C.3       1 <0>        -0.0185
     32 C25         1.0338    1.8981   -5.0183 C.3       1 <0>         0.0897
     33 C26         4.1639    1.9563   -7.1087 C.3       1 <0>        -0.0014
     34 C27         3.5843    2.3101   -8.4797 C.3       1 <0>         0.0441
     35 O6          3.4215    3.7265   -8.5770 O.3       1 <0>        -0.5819
     36 Cl1         3.2610    6.1943   -0.9681 Cl        1 <0>        -0.0517
     37 H1         -0.9291    0.1554    3.9426 H         1 <0>         0.0598
     38 H2         -0.9631   -1.1784    2.7643 H         1 <0>         0.0601
     39 H3         -1.6957   -1.3925    4.3724 H         1 <0>         0.1100
     40 H4          0.4354    0.3328    2.3739 H         1 <0>         0.1490
     41 H5          4.7152    0.4458    2.1026 H         1 <0>         0.1450
     42 H6          3.7875   -1.0784    6.6237 H         1 <0>         0.0508
     43 H7          2.0119   -1.1309    6.7359 H         1 <0>         0.0513
     44 H8          2.9776   -2.5375    7.2429 H         1 <0>         0.1033
     45 H9          3.6319    2.4677    3.2045 H         1 <0>         0.1446
     46 H10         4.4725    4.7384    3.4787 H         1 <0>         0.1478
     47 H11         4.3091    6.3694    1.6480 H         1 <0>         0.1478
     48 H12         2.2178    4.0786   -1.9049 H         1 <0>         0.1517
     49 H13        -0.2321   -2.1718   -1.3642 H         1 <0>         0.0666
     50 H14         0.2556   -2.5948    0.2946 H         1 <0>         0.0658
     51 H15        -1.3945   -2.0094   -0.0261 H         1 <0>         0.1077
     52 H16         2.6114    4.0580   -4.0139 H         1 <0>         0.1050
     53 H17         3.3369    3.0379   -2.7436 H         1 <0>         0.1396
     54 H18         4.2231    1.4893   -4.4267 H         1 <0>         0.1386
     55 H19         4.7274    3.1417   -4.8561 H         1 <0>         0.1462
     56 H20         2.4673    0.4123   -5.6417 H         1 <0>         0.1378
     57 H21         1.6550    1.2573   -6.9816 H         1 <0>         0.1421
     58 H22         0.2632    1.1405   -4.8757 H         1 <0>         0.1390
     59 H23         0.5840    2.8076   -5.4165 H         1 <0>         0.1006
     60 H24         5.0987    2.4966   -6.9589 H         1 <0>         0.1392
     61 H25         4.3522    0.8838   -7.0595 H         1 <0>         0.1448
     62 H26         4.2636    1.9680   -9.2606 H         1 <0>         0.0967
     63 H27         2.6164    1.8239   -8.6015 H         1 <0>         0.0715
     64 H28         3.0574    4.0234   -9.4222 H         1 <0>         0.4110
     65 N2          3.1957    2.3612   -6.0684 N.4       1 <0>        -0.3949
     66 H29         2.8046    3.2777   -6.3157 H         1 <0>         0.4355
@<TRIPOS>BOND
     1    1    2 1
     2    1   37 1
     3    1   38 1
     4    1   39 1
     5    2    3 1
     6    3    8 ar
     7    3    4 ar
     8    4    5 ar
     9    4   40 1
    10    5    6 ar
    11    5   12 1
    12    6    7 ar
    13    6   41 1
    14    7    8 ar
    15    7   11 1
    16    8    9 1
    17    9   10 1
    18   10   42 1
    19   10   43 1
    20   10   44 1
    21   12   21 ar
    22   12   13 ar
    23   13   18 ar
    24   13   14 ar
    25   14   15 ar
    26   14   45 1
    27   15   16 ar
    28   15   46 1
    29   16   17 ar
    30   16   47 1
    31   17   18 ar
    32   17   36 1
    33   18   19 ar
    34   19   20 ar
    35   19   48 1
    36   20   21 ar
    37   20   26 1
    38   21   22 1
    39   22   23 2
    40   22   24 1
    41   24   25 1
    42   25   49 1
    43   25   50 1
    44   25   51 1
    45   26   27 2
    46   26   28 am
    47   28   32 1
    48   28   29 1
    49   29   30 1
    50   29   52 1
    51   29   53 1
    52   30   54 1
    53   30   55 1
    54   30   65 1
    55   31   32 1
    56   31   56 1
    57   31   57 1
    58   31   65 1
    59   32   58 1
    60   32   59 1
    61   33   34 1
    62   33   60 1
    63   33   61 1
    64   33   65 1
    65   34   35 1
    66   34   62 1
    67   34   63 1
    68   35   64 1
    69   65   66 1
@<TRIPOS>MOLECULE
ZINC03973126
   46    51     0     0     0
SMALL
USER_CHARGES

@<TRIPOS>ATOM
      1 C1         -1.2236    2.2988    0.0206 C.3       1 <0>         0.1217
      2 N1         -0.0179    1.4667    0.0101 N.am      1 <0>        -0.6381
      3 C2          0.0021   -0.0041    0.0020 C.3       1 <0>         0.0967
      4 C3          1.5006   -0.3565   -0.0339 C.3       1 <0>         0.1210
      5 H1          1.7613   -0.9076   -0.9375 H         1 <0>         0.1056
      6 C4          1.8757   -1.1217    1.2408 C.3       1 <0>        -0.0521
      7 C5          3.3473   -0.9413    1.5163 C.2       1 <0>        -0.1510
      8 C6          4.1942   -1.7604    2.3636 C.ar      1 <0>        -0.1024
      9 C7          3.9424   -2.9018    3.1307 C.ar      1 <0>        -0.0656
     10 C8          5.0030   -3.4271    3.8268 C.ar      1 <0>        -0.1486
     11 C9          6.2670   -2.8621    3.7791 C.ar      1 <0>        -0.0967
     12 C10         6.5439   -1.7332    3.0277 C.ar      1 <0>        -0.1304
     13 C11         5.4861   -1.1783    2.3101 C.ar      1 <0>         0.1058
     14 N2          5.4080   -0.0927    1.4866 N.pl3     1 <0>        -0.5742
     15 H2          6.1467    0.4970    1.2683 H         1 <0>         0.4179
     16 C12         4.1286    0.0387    1.0155 C.2       1 <0>         0.0606
     17 C13         3.6291    1.1123    0.0701 C.3       1 <0>         0.3031
     18 H3          4.0607    0.9707   -0.9207 H         1 <0>         0.1026
     19 N3          2.1650    0.9636    0.0095 N.am      1 <0>        -0.6256
     20 C14         1.2421    1.9252    0.0005 C.2       1 <0>         0.7029
     21 O1          1.5174    3.1094   -0.0149 O.2       1 <0>        -0.5655
     22 C15         3.9889    2.4763    0.6002 C.ar      1 <0>        -0.0944
     23 C16         3.2608    3.0269    1.6386 C.ar      1 <0>        -0.0263
     24 C17         3.5873    4.2776    2.1285 C.ar      1 <0>        -0.1031
     25 C18         4.6462    4.9826    1.5797 C.ar      1 <0>         0.0464
     26 C19         5.3796    4.4280    0.5337 C.ar      1 <0>         0.0231
     27 C20         5.0497    3.1719    0.0509 C.ar      1 <0>        -0.0853
     28 O2          6.3583    5.3082    0.1724 O.3       1 <0>        -0.3095
     29 C21         5.9616    6.5747    0.7307 C.3       1 <0>         0.2139
     30 O3          5.1655    6.2102    1.8738 O.3       1 <0>        -0.3091
     31 H4         -1.5175    2.4996    1.0508 H         1 <0>         0.0554
     32 H5         -1.0196    3.2404   -0.4891 H         1 <0>         0.0775
     33 H6         -2.0307    1.7755   -0.4921 H         1 <0>         0.0728
     34 H7         -0.4614   -0.3975    0.9068 H         1 <0>         0.0869
     35 H8         -0.5021   -0.3882   -0.8847 H         1 <0>         0.0854
     36 H9          1.2983   -0.7349    2.0805 H         1 <0>         0.0804
     37 H10         1.6580   -2.1813    1.1064 H         1 <0>         0.0894
     38 H11         2.9603   -3.3490    3.1737 H         1 <0>         0.1294
     39 H12         4.8470   -4.3090    4.4304 H         1 <0>         0.1189
     40 H13         7.0639   -3.3185    4.3476 H         1 <0>         0.1217
     41 H14         7.5338   -1.3023    2.9991 H         1 <0>         0.1283
     42 H15         2.4351    2.4788    2.0676 H         1 <0>         0.1254
     43 H16         3.0168    4.7052    2.9398 H         1 <0>         0.1337
     44 H17         5.6195    2.7375   -0.7572 H         1 <0>         0.1340
     45 H18         5.3660    7.1396    0.0136 H         1 <0>         0.0850
     46 H19         6.8358    7.1477    1.0398 H         1 <0>         0.1323
@<TRIPOS>BOND
     1    1    2 1
     2    1   31 1
     3    1   32 1
     4    1   33 1
     5    2   20 am
     6    2    3 1
     7    3    4 1
     8    3   34 1
     9    3   35 1
    10    4    5 1
    11    4   19 1
    12    4    6 1
    13    6    7 1
    14    6   36 1
    15    6   37 1
    16    7   16 2
    17    7    8 1
    18    8   13 ar
    19    8    9 ar
    20    9   10 ar
    21    9   38 1
    22   10   11 ar
    23   10   39 1
    24   11   12 ar
    25   11   40 1
    26   12   13 ar
    27   12   41 1
    28   13   14 1
    29   14   15 1
    30   14   16 1
    31   16   17 1
    32   17   18 1
    33   17   19 1
    34   17   22 1
    35   19   20 am
    36   20   21 2
    37   22   27 ar
    38   22   23 ar
    39   23   24 ar
    40   23   42 1
    41   24   25 ar
    42   24   43 1
    43   25   30 1
    44   25   26 ar
    45   26   27 ar
    46   26   28 1
    47   27   44 1
    48   28   29 1
    49   29   30 1
    50   29   45 1
    51   29   46 1
@<TRIPOS>MOLECULE
ZINC03977827
   33    35     0     0     0
SMALL
USER_CHARGES

@<TRIPOS>ATOM
      1 C1          7.2719    1.4056   -0.0633 C.3       1 <0>        -0.1502
      2 C2          5.9865    2.2353   -0.0455 C.3       1 <0>        -0.1207
      3 C3          4.7758    1.2998   -0.0385 C.3       1 <0>         0.0502
      4 O1          3.5752    2.0747   -0.0219 O.3       1 <0>        -0.2640
      5 C4          2.4019    1.3928   -0.0137 C.ar      1 <0>         0.2020
      6 C5          2.4022    0.0064   -0.0216 C.ar      1 <0>        -0.2186
      7 C6          1.2074   -0.6864   -0.0135 C.ar      1 <0>        -0.0414
      8 C7          0.0021   -0.0041    0.0023 C.ar      1 <0>        -0.1611
      9 C8         -0.0166    1.3741    0.0099 C.ar      1 <0>        -0.0489
     10 C9          1.1846    2.0869    0.0017 C.ar      1 <0>        -0.1198
     11 C10         1.1719    3.5623    0.0092 C.2       1 <0>         0.4688
     12 N1         -0.0319    4.2084    0.0187 N.am      1 <0>        -0.6427
     13 H1         -0.8809    3.6801    0.0172 H         1 <0>         0.4325
     14 C11        -0.0794    5.5603    0.0301 C.2       1 <0>         0.5897
     15 O2         -1.1437    6.1532    0.0423 O.2       1 <0>        -0.5125
     16 C12         1.1922    6.2870    0.0218 C.2       1 <0>        -0.1638
     17 C13         2.3777    5.5386    0.0070 C.2       1 <0>         0.2748
     18 N2          2.3174    4.2028    0.0010 N.2       1 <0>        -0.4576
     19 N3          3.3962    6.4459    0.0017 N.2       1 <0>        -0.2520
     20 H2          0.8682    8.3436    0.0345 H         1 <0>         0.4683
     21 N4          2.8025    7.7170    0.0146 N.2       1 <0>        -0.0449
     22 N5          1.5215    7.5866    0.0252 N.pl3     1 <0>        -0.2873
     23 H3          8.1344    2.0721   -0.0683 H         1 <0>         0.0652
     24 H4          7.3076    0.7718    0.8227 H         1 <0>         0.0563
     25 H5          7.2895    0.7820   -0.9571 H         1 <0>         0.0563
     26 H6          5.9508    2.8691   -0.9315 H         1 <0>         0.0763
     27 H7          5.9689    2.8589    0.8483 H         1 <0>         0.0763
     28 H8          4.8115    0.6660    0.8476 H         1 <0>         0.0636
     29 H9          4.7933    0.6762   -0.9323 H         1 <0>         0.0636
     30 H10         3.3380   -0.5326   -0.0339 H         1 <0>         0.1393
     31 H11         1.2129   -1.7663   -0.0197 H         1 <0>         0.1343
     32 H12        -0.9272   -0.5544    0.0083 H         1 <0>         0.1360
     33 H13        -0.9587    1.9021    0.0176 H         1 <0>         0.1321
@<TRIPOS>BOND
     1    1    2 1
     2    1   23 1
     3    1   24 1
     4    1   25 1
     5    2    3 1
     6    2   26 1
     7    2   27 1
     8    3    4 1
     9    3   28 1
    10    3   29 1
    11    4    5 1
    12    5   10 ar
    13    5    6 ar
    14    6    7 ar
    15    6   30 1
    16    7    8 ar
    17    7   31 1
    18    8    9 ar
    19    8   32 1
    20    9   10 ar
    21    9   33 1
    22   10   11 1
    23   11   18 2
    24   11   12 1
    25   12   13 1
    26   12   14 am
    27   14   15 2
    28   14   16 1
    29   16   17 2
    30   16   22 1
    31   17   18 1
    32   17   19 1
    33   19   21 2
    34   20   22 1
    35   21   22 1
@<TRIPOS>MOLECULE
ZINC03977827
   33    35     0     0     0
SMALL
USER_CHARGES

@<TRIPOS>ATOM
      1 C1          7.2719    1.4056   -0.0633 C.3       1 <0>        -0.1517
      2 C2          5.9865    2.2353   -0.0455 C.3       1 <0>        -0.1201
      3 C3          4.7758    1.2998   -0.0385 C.3       1 <0>         0.0482
      4 O1          3.5752    2.0747   -0.0219 O.3       1 <0>        -0.2689
      5 C4          2.4019    1.3928   -0.0137 C.ar      1 <0>         0.2036
      6 C5          2.4022    0.0064   -0.0216 C.ar      1 <0>        -0.2191
      7 C6          1.2074   -0.6864   -0.0135 C.ar      1 <0>        -0.0379
      8 C7          0.0021   -0.0041    0.0023 C.ar      1 <0>        -0.1593
      9 C8         -0.0166    1.3741    0.0099 C.ar      1 <0>        -0.0449
     10 C9          1.1846    2.0869    0.0017 C.ar      1 <0>        -0.1245
     11 C10         1.1719    3.5623    0.0092 C.2       1 <0>         0.4997
     12 N1         -0.0319    4.2084    0.0187 N.am      1 <0>        -0.6473
     13 H1         -0.8809    3.6801    0.0172 H         1 <0>         0.4323
     14 C11        -0.0794    5.5603    0.0301 C.2       1 <0>         0.5942
     15 O2         -1.1437    6.1532    0.0423 O.2       1 <0>        -0.4883
     16 C12         1.1922    6.2870    0.0218 C.2       1 <0>        -0.1634
     17 C13         2.3777    5.5386    0.0070 C.2       1 <0>         0.3244
     18 N2          2.3174    4.2028    0.0010 N.2       1 <0>        -0.5003
     19 N3          3.3962    6.4459    0.0017 N.pl3     1 <0>        -0.4582
     20 H2          4.3756    6.2443   -0.0093 H         1 <0>         0.4609
     21 N4          2.8025    7.7170    0.0146 N.2       1 <0>        -0.0309
     22 N5          1.5215    7.5866    0.0252 N.2       1 <0>        -0.1572
     23 H3          8.1344    2.0721   -0.0683 H         1 <0>         0.0656
     24 H4          7.3076    0.7718    0.8227 H         1 <0>         0.0581
     25 H5          7.2895    0.7820   -0.9571 H         1 <0>         0.0580
     26 H6          5.9508    2.8691   -0.9315 H         1 <0>         0.0737
     27 H7          5.9689    2.8589    0.8483 H         1 <0>         0.0738
     28 H8          4.8115    0.6660    0.8476 H         1 <0>         0.0654
     29 H9          4.7933    0.6762   -0.9323 H         1 <0>         0.0653
     30 H10         3.3380   -0.5326   -0.0339 H         1 <0>         0.1397
     31 H11         1.2129   -1.7663   -0.0197 H         1 <0>         0.1358
     32 H12        -0.9272   -0.5544    0.0083 H         1 <0>         0.1382
     33 H13        -0.9587    1.9021    0.0176 H         1 <0>         0.1350
@<TRIPOS>BOND
     1    1    2 1
     2    1   23 1
     3    1   24 1
     4    1   25 1
     5    2    3 1
     6    2   26 1
     7    2   27 1
     8    3    4 1
     9    3   28 1
    10    3   29 1
    11    4    5 1
    12    5   10 ar
    13    5    6 ar
    14    6    7 ar
    15    6   30 1
    16    7    8 ar
    17    7   31 1
    18    8    9 ar
    19    8   32 1
    20    9   10 ar
    21    9   33 1
    22   10   11 1
    23   11   18 2
    24   11   12 1
    25   12   13 1
    26   12   14 am
    27   14   15 2
    28   14   16 1
    29   16   17 2
    30   16   22 1
    31   17   18 1
    32   17   19 1
    33   19   20 1
    34   19   21 1
    35   21   22 2
@<TRIPOS>MOLECULE
ZINC03977827
   33    35     0     0     0
SMALL
USER_CHARGES

@<TRIPOS>ATOM
      1 C1          7.2719    1.4056   -0.0633 C.3       1 <0>        -0.1502
      2 C2          5.9865    2.2353   -0.0455 C.3       1 <0>        -0.1207
      3 C3          4.7758    1.2998   -0.0385 C.3       1 <0>         0.0502
      4 O1          3.5752    2.0747   -0.0219 O.3       1 <0>        -0.2640
      5 C4          2.4019    1.3928   -0.0137 C.ar      1 <0>         0.2020
      6 C5          2.4022    0.0064   -0.0216 C.ar      1 <0>        -0.2186
      7 C6          1.2074   -0.6864   -0.0135 C.ar      1 <0>        -0.0414
      8 C7          0.0021   -0.0041    0.0023 C.ar      1 <0>        -0.1611
      9 C8         -0.0166    1.3741    0.0099 C.ar      1 <0>        -0.0489
     10 C9          1.1846    2.0869    0.0017 C.ar      1 <0>        -0.1198
     11 C10         1.1719    3.5623    0.0092 C.2       1 <0>         0.4688
     12 N1         -0.0319    4.2084    0.0187 N.am      1 <0>        -0.6427
     13 H1         -0.8809    3.6801    0.0172 H         1 <0>         0.4325
     14 C11        -0.0794    5.5603    0.0301 C.2       1 <0>         0.5897
     15 O2         -1.1437    6.1532    0.0423 O.2       1 <0>        -0.5125
     16 C12         1.1922    6.2870    0.0218 C.2       1 <0>        -0.1638
     17 C13         2.3777    5.5386    0.0070 C.2       1 <0>         0.2748
     18 N2          2.3174    4.2028    0.0010 N.2       1 <0>        -0.4576
     19 N3          3.3962    6.4459    0.0017 N.2       1 <0>        -0.2520
     20 H2          0.8682    8.3436    0.0345 H         1 <0>         0.4683
     21 N4          2.8025    7.7170    0.0146 N.2       1 <0>        -0.0449
     22 N5          1.5215    7.5866    0.0252 N.pl3     1 <0>        -0.2873
     23 H3          8.1344    2.0721   -0.0683 H         1 <0>         0.0652
     24 H4          7.3076    0.7718    0.8227 H         1 <0>         0.0563
     25 H5          7.2895    0.7820   -0.9571 H         1 <0>         0.0563
     26 H6          5.9508    2.8691   -0.9315 H         1 <0>         0.0763
     27 H7          5.9689    2.8589    0.8483 H         1 <0>         0.0763
     28 H8          4.8115    0.6660    0.8476 H         1 <0>         0.0636
     29 H9          4.7933    0.6762   -0.9323 H         1 <0>         0.0636
     30 H10         3.3380   -0.5326   -0.0339 H         1 <0>         0.1393
     31 H11         1.2129   -1.7663   -0.0197 H         1 <0>         0.1343
     32 H12        -0.9272   -0.5544    0.0083 H         1 <0>         0.1360
     33 H13        -0.9587    1.9021    0.0176 H         1 <0>         0.1321
@<TRIPOS>BOND
     1    1    2 1
     2    1   23 1
     3    1   24 1
     4    1   25 1
     5    2    3 1
     6    2   26 1
     7    2   27 1
     8    3    4 1
     9    3   28 1
    10    3   29 1
    11    4    5 1
    12    5   10 ar
    13    5    6 ar
    14    6    7 ar
    15    6   30 1
    16    7    8 ar
    17    7   31 1
    18    8    9 ar
    19    8   32 1
    20    9   10 ar
    21    9   33 1
    22   10   11 1
    23   11   18 2
    24   11   12 1
    25   12   13 1
    26   12   14 am
    27   14   15 2
    28   14   16 1
    29   16   17 2
    30   16   22 1
    31   17   18 1
    32   17   19 1
    33   19   21 2
    34   20   22 1
    35   21   22 1
@<TRIPOS>MOLECULE
ZINC03998803
   50    54     0     0     0
SMALL
USER_CHARGES

@<TRIPOS>ATOM
      1 C1          2.2719   -3.9420   -7.2837 C.3       1 <0>        -0.1524
      2 C2          1.6512   -4.2614   -5.9222 C.3       1 <0>        -0.1205
      3 C3          2.5349   -3.6892   -4.8120 C.3       1 <0>        -0.1359
      4 C4          1.9143   -4.0087   -3.4505 C.3       1 <0>         0.1189
      5 N1          2.7604   -3.4608   -2.3875 N.am      1 <0>        -0.5843
      6 C5          3.7932   -4.1502   -1.7974 C.2       1 <0>         0.5331
      7 O1          4.1696   -5.2798   -2.0255 O.2       1 <0>        -0.4478
      8 C6          4.3702   -3.1819   -0.7849 C.3       1 <0>         0.0912
      9 H1          5.4110   -2.9427   -1.0034 H         1 <0>         0.1398
     10 C7          4.2076   -3.7559    0.6276 C.3       1 <0>        -0.0408
     11 C8          4.2025   -2.6271    1.6278 C.2       1 <0>        -0.1479
     12 C9          4.4558   -2.7113    3.0544 C.ar      1 <0>        -0.1009
     13 C10         4.7730   -3.7817    3.8960 C.ar      1 <0>        -0.0640
     14 C11         4.9504   -3.4924    5.2266 C.ar      1 <0>        -0.1466
     15 C12         4.8232   -2.2055    5.7232 C.ar      1 <0>        -0.0938
     16 C13         4.5094   -1.1283    4.9127 C.ar      1 <0>        -0.1306
     17 C14         4.3242   -1.3920    3.5569 C.ar      1 <0>         0.1075
     18 N2          4.0140   -0.5848    2.5009 N.pl3     1 <0>        -0.5725
     19 H2          3.8636    0.3720    2.5546 H         1 <0>         0.4177
     20 C15         3.9473   -1.3302    1.3542 C.2       1 <0>         0.0566
     21 C16         3.6375   -0.8102   -0.0357 C.3       1 <0>         0.3049
     22 H3          4.4536   -0.1804   -0.3901 H         1 <0>         0.1099
     23 N3          3.4999   -1.9898   -0.8986 N.am      1 <0>        -0.6182
     24 C17         2.6257   -2.2279   -1.8781 C.2       1 <0>         0.7093
     25 O2          1.8031   -1.4207   -2.2641 O.2       1 <0>        -0.5252
     26 C18         2.3499   -0.0274   -0.0202 C.ar      1 <0>        -0.1612
     27 C19         2.3711    1.3591   -0.0129 C.ar      1 <0>        -0.0594
     28 C20         1.1622    2.0375    0.0019 C.ar      1 <0>        -0.1770
     29 C21        -0.0158    1.3143    0.0093 C.ar      1 <0>         0.1127
     30 N4          0.0021   -0.0041    0.0020 N.ar      1 <0>        -0.4823
     31 C22         1.1331   -0.6822   -0.0125 C.ar      1 <0>         0.1690
     32 H4          2.3506   -2.8613   -7.4026 H         1 <0>         0.0543
     33 H5          3.2649   -4.3874   -7.3439 H         1 <0>         0.0544
     34 H6          1.6423   -4.3496   -8.0747 H         1 <0>         0.0573
     35 H7          1.5725   -5.3420   -5.8034 H         1 <0>         0.0660
     36 H8          0.6582   -3.8160   -5.8621 H         1 <0>         0.0665
     37 H9          2.6137   -2.6086   -4.9309 H         1 <0>         0.0701
     38 H10         3.5279   -4.1347   -4.8721 H         1 <0>         0.0673
     39 H11         1.8356   -5.0893   -3.3317 H         1 <0>         0.0953
     40 H12         0.9213   -3.5632   -3.3904 H         1 <0>         0.0972
     41 H13         5.0365   -4.4298    0.8441 H         1 <0>         0.1023
     42 H14         3.2671   -4.3031    0.6919 H         1 <0>         0.0839
     43 H15         4.8741   -4.7882    3.5175 H         1 <0>         0.1315
     44 H16         5.1966   -4.2937    5.9076 H         1 <0>         0.1207
     45 H17         4.9739   -2.0369    6.7792 H         1 <0>         0.1232
     46 H18         4.4132   -0.1295    5.3123 H         1 <0>         0.1293
     47 H19         3.3072    1.8978   -0.0190 H         1 <0>         0.1355
     48 H20         1.1411    3.1172    0.0076 H         1 <0>         0.1387
     49 H21        -0.9618    1.8353    0.0166 H         1 <0>         0.1574
     50 H22         1.1080   -1.7619   -0.0180 H         1 <0>         0.1396
@<TRIPOS>BOND
     1    1    2 1
     2    1   32 1
     3    1   33 1
     4    1   34 1
     5    2    3 1
     6    2   35 1
     7    2   36 1
     8    3    4 1
     9    3   37 1
    10    3   38 1
    11    4    5 1
    12    4   39 1
    13    4   40 1
    14    5   24 am
    15    5    6 am
    16    6    7 2
    17    6    8 1
    18    8    9 1
    19    8   23 1
    20    8   10 1
    21   10   11 1
    22   10   41 1
    23   10   42 1
    24   11   20 2
    25   11   12 1
    26   12   17 ar
    27   12   13 ar
    28   13   14 ar
    29   13   43 1
    30   14   15 ar
    31   14   44 1
    32   15   16 ar
    33   15   45 1
    34   16   17 ar
    35   16   46 1
    36   17   18 1
    37   18   19 1
    38   18   20 1
    39   20   21 1
    40   21   22 1
    41   21   23 1
    42   21   26 1
    43   23   24 am
    44   24   25 2
    45   26   31 ar
    46   26   27 ar
    47   27   28 ar
    48   27   47 1
    49   28   29 ar
    50   28   48 1
    51   29   30 ar
    52   29   49 1
    53   30   31 ar
    54   31   50 1
@<TRIPOS>MOLECULE
ZINC04199919
   63    67     0     0     0
SMALL
USER_CHARGES

@<TRIPOS>ATOM
      1 C1         -7.2500    4.8413   -1.3787 C.3       1 <0>        -0.1512
      2 C2         -6.7822    3.3846   -1.3893 C.3       1 <0>        -0.1143
      3 C3         -6.6192    2.8908    0.0496 C.3       1 <0>        -0.0393
      4 C4         -6.1584    1.4560    0.0391 C.2       1 <0>         0.1132
      5 C5         -4.8176    1.0247    0.0301 C.2       1 <0>         0.0332
      6 C6         -4.8391   -0.3759    0.0222 C.2       1 <0>        -0.0277
      7 C7         -3.6107   -1.0764    0.0122 C.2       1 <0>         0.5727
      8 O1         -3.5871   -2.2950    0.0055 O.2       1 <0>        -0.5168
      9 N1         -2.4636   -0.3618    0.0063 N.am      1 <0>        -0.6365
     10 H1         -1.5827   -0.8348   -0.0077 H         1 <0>         0.4250
     11 C8         -2.5020    1.0062    0.0194 C.2       1 <0>         0.3814
     12 N2         -3.6331    1.6689    0.0284 N.2       1 <0>        -0.4182
     13 C9         -1.2314    1.7583    0.0174 C.ar      1 <0>        -0.0651
     14 C10        -0.0126    1.0758    0.0080 C.ar      1 <0>        -0.0025
     15 C11         1.1712    1.7816    0.0004 C.ar      1 <0>        -0.6862
     16 C12         1.1593    3.1659    0.0088 C.ar      1 <0>        -0.0030
     17 C13        -0.0426    3.8571    0.0256 C.ar      1 <0>         0.0372
     18 C14        -1.2433    3.1585    0.0307 C.ar      1 <0>         0.1675
     19 O2         -2.4326    3.8161    0.0426 O.3       1 <0>        -0.2473
     20 C15        -2.4023    5.1938    0.4310 C.3       1 <0>         0.0077
     21 C16        -1.2492    5.8778   -0.3159 C.3       1 <0>         0.0173
     22 O3         -0.0297    5.2183    0.0418 O.3       1 <0>        -0.2962
     23 S1          2.7069    0.9179   -0.0193 S.o2      1 <0>         2.6931
     24 O4          3.6766    1.8013    0.5272 O.2       1 <0>        -0.9274
     25 O5          2.4557   -0.3697    0.5268 O.2       1 <0>        -0.9297
     26 N3          3.1183    0.6868   -1.6066 N.pl3     1 <0>        -1.0120
     27 C17         2.6922   -0.5217   -2.3286 C.3       1 <0>         0.0935
     28 C18         2.0218   -0.0874   -3.6417 C.3       1 <0>        -0.0203
     29 C19         3.2106    2.0264   -3.6414 C.3       1 <0>        -0.0185
     30 C20         3.9246    1.6817   -2.3300 C.3       1 <0>         0.0933
     31 C21         2.4079    1.0869   -5.7236 C.3       1 <0>        -0.0425
     32 N4         -6.1529   -0.7544    0.0265 N.pl3     1 <0>        -0.3243
     33 N5         -6.9361    0.4073    0.0370 N.2       1 <0>        -0.2287
     34 C22        -6.6534   -2.1313    0.0211 C.3       1 <0>         0.0959
     35 H2         -6.5112    5.4564   -0.8650 H         1 <0>         0.0554
     36 H3         -7.3661    5.1931   -2.4039 H         1 <0>         0.0573
     37 H4         -8.2059    4.9121   -0.8598 H         1 <0>         0.0584
     38 H5         -5.8263    3.3137   -1.9083 H         1 <0>         0.0638
     39 H6         -7.5210    2.7694   -1.9031 H         1 <0>         0.0642
     40 H7         -7.5751    2.9616    0.5685 H         1 <0>         0.0867
     41 H8         -5.8804    3.5059    0.5633 H         1 <0>         0.0931
     42 H9          0.0021   -0.0041    0.0020 H         1 <0>         0.1476
     43 H10         2.0918    3.7107    0.0025 H         1 <0>         0.1584
     44 H11        -3.3460    5.6711    0.1667 H         1 <0>         0.1366
     45 H12        -2.2408    5.2692    1.5063 H         1 <0>         0.0899
     46 H13        -1.4089    5.7977   -1.3911 H         1 <0>         0.0845
     47 H14        -1.1974    6.9282   -0.0293 H         1 <0>         0.1342
     48 H15         3.5605   -1.1438   -2.5456 H         1 <0>         0.1082
     49 H16         1.9810   -1.0801   -1.7200 H         1 <0>         0.1356
     50 H17         1.0996    0.4506   -3.4219 H         1 <0>         0.1358
     51 H18         1.7947   -0.9685   -4.2418 H         1 <0>         0.1447
     52 H19         2.2719    2.5349   -3.4216 H         1 <0>         0.1359
     53 H20         3.8458    2.6784   -4.2409 H         1 <0>         0.1453
     54 H21         4.0285    2.5806   -1.7224 H         1 <0>         0.1368
     55 H22         4.9103    1.2685   -2.5441 H         1 <0>         0.1073
     56 H23         3.1381    1.6746   -6.2800 H         1 <0>         0.1246
     57 H24         2.2132    0.1541   -6.2527 H         1 <0>         0.1242
     58 H25         1.4808    1.6526   -5.6312 H         1 <0>         0.1229
     59 H26        -6.7724   -2.4786    1.0474 H         1 <0>         0.0864
     60 H27        -7.6164   -2.1658   -0.4882 H         1 <0>         0.1000
     61 H28        -5.9435   -2.7738   -0.4999 H         1 <0>         0.1013
     62 N6          2.9620    0.7751   -4.3898 N.4       1 <0>        -0.3946
     63 H29         3.8512    0.2751   -4.5068 H         1 <0>         0.4321
@<TRIPOS>BOND
     1    1    2 1
     2    1   35 1
     3    1   36 1
     4    1   37 1
     5    2    3 1
     6    2   38 1
     7    2   39 1
     8    3    4 1
     9    3   40 1
    10    3   41 1
    11    4   33 2
    12    4    5 1
    13    5   12 1
    14    5    6 2
    15    6    7 1
    16    6   32 1
    17    7    8 2
    18    7    9 am
    19    9   10 1
    20    9   11 1
    21   11   12 2
    22   11   13 1
    23   13   18 ar
    24   13   14 ar
    25   14   15 ar
    26   14   42 1
    27   15   16 ar
    28   15   23 1
    29   16   17 ar
    30   16   43 1
    31   17   22 1
    32   17   18 ar
    33   18   19 1
    34   19   20 1
    35   20   21 1
    36   20   44 1
    37   20   45 1
    38   21   22 1
    39   21   46 1
    40   21   47 1
    41   23   24 2
    42   23   25 2
    43   23   26 1
    44   26   30 1
    45   26   27 1
    46   27   28 1
    47   27   48 1
    48   27   49 1
    49   28   50 1
    50   28   51 1
    51   28   62 1
    52   29   30 1
    53   29   52 1
    54   29   53 1
    55   29   62 1
    56   30   54 1
    57   30   55 1
    58   31   56 1
    59   31   57 1
    60   31   58 1
    61   31   62 1
    62   32   33 1
    63   32   34 1
    64   34   59 1
    65   34   60 1
    66   34   61 1
    67   62   63 1
@<TRIPOS>MOLECULE
ZINC04199919
   63    67     0     0     0
SMALL
USER_CHARGES

@<TRIPOS>ATOM
      1 C1         -7.2567    4.8409   -1.3567 C.3       1 <0>        -0.1533
      2 C2         -6.7889    3.3842   -1.3693 C.3       1 <0>        -0.1187
      3 C3         -6.6191    2.8906    0.0689 C.3       1 <0>        -0.0453
      4 C4         -6.1583    1.4558    0.0564 C.2       1 <0>         0.0829
      5 C5         -4.8175    1.0246    0.0411 C.2       1 <0>         0.0030
      6 C6         -4.8390   -0.3760    0.0335 C.2       1 <0>        -0.0126
      7 C7         -3.6107   -1.0764    0.0122 C.2       1 <0>         0.5425
      8 O1         -3.5871   -2.2950    0.0055 O.2       1 <0>        -0.5027
      9 N1         -2.4636   -0.3618    0.0062 N.2       1 <0>        -0.5800
     10 H1         -3.6171    2.6687    0.0391 H         1 <0>         0.4287
     11 C8         -2.5020    1.0062    0.0193 C.2       1 <0>         0.4556
     12 N2         -3.6331    1.6688    0.0336 N.pl3     1 <0>        -0.5256
     13 C9         -1.2314    1.7583    0.0173 C.ar      1 <0>        -0.0803
     14 C10        -0.0126    1.0758    0.0078 C.ar      1 <0>         0.0516
     15 C11         1.1712    1.7816    0.0002 C.ar      1 <0>        -0.6901
     16 C12         1.1593    3.1659    0.0086 C.ar      1 <0>         0.0075
     17 C13        -0.0426    3.8571    0.0254 C.ar      1 <0>         0.0450
     18 C14        -1.2433    3.1585    0.0306 C.ar      1 <0>         0.1351
     19 O2         -2.4326    3.8161    0.0425 O.3       1 <0>        -0.3198
     20 C15        -2.4023    5.1938    0.4309 C.3       1 <0>         0.0156
     21 C16        -1.2492    5.8778   -0.3160 C.3       1 <0>         0.0200
     22 O3         -0.0297    5.2183    0.0416 O.3       1 <0>        -0.2927
     23 S1          2.7069    0.9179   -0.0196 S.o2      1 <0>         2.6925
     24 O4          3.6766    1.8013    0.5269 O.2       1 <0>        -0.9276
     25 O5          2.4557   -0.3697    0.5265 O.2       1 <0>        -0.9199
     26 N3          3.1182    0.6868   -1.6069 N.pl3     1 <0>        -1.0113
     27 C17         2.6921   -0.5217   -2.3289 C.3       1 <0>         0.0925
     28 C18         2.0217   -0.0874   -3.6420 C.3       1 <0>        -0.0197
     29 C19         3.2105    2.0264   -3.6417 C.3       1 <0>        -0.0183
     30 C20         3.9245    1.6817   -2.3303 C.3       1 <0>         0.0929
     31 C21         2.4077    1.0869   -5.7239 C.3       1 <0>        -0.0422
     32 N4         -6.1527   -0.7546    0.0440 N.pl3     1 <0>        -0.3226
     33 N5         -6.9359    0.4071    0.0581 N.2       1 <0>        -0.2273
     34 C22        -6.6532   -2.1315    0.0412 C.3       1 <0>         0.0986
     35 H2         -6.5155    5.4561   -0.8466 H         1 <0>         0.0542
     36 H3         -7.3777    5.1926   -2.3814 H         1 <0>         0.0604
     37 H4         -8.2102    4.9117   -0.8333 H         1 <0>         0.0618
     38 H5         -5.8355    3.3133   -1.8928 H         1 <0>         0.0592
     39 H6         -7.5301    2.7689   -1.8795 H         1 <0>         0.0718
     40 H7         -7.5725    2.9614    0.5923 H         1 <0>         0.0963
     41 H8         -5.8779    3.5058    0.5790 H         1 <0>         0.0812
     42 H9          0.0021   -0.0041    0.0018 H         1 <0>         0.1766
     43 H10         2.0918    3.7107    0.0022 H         1 <0>         0.1630
     44 H11        -3.3460    5.6711    0.1666 H         1 <0>         0.1424
     45 H12        -2.2407    5.2692    1.5062 H         1 <0>         0.0994
     46 H13        -1.4090    5.7977   -1.3912 H         1 <0>         0.0880
     47 H14        -1.1974    6.9282   -0.0294 H         1 <0>         0.1401
     48 H15         3.5604   -1.1438   -2.5459 H         1 <0>         0.1086
     49 H16         1.9809   -1.0801   -1.7203 H         1 <0>         0.1402
     50 H17         1.0995    0.4506   -3.4221 H         1 <0>         0.1361
     51 H18         1.7945   -0.9685   -4.2421 H         1 <0>         0.1458
     52 H19         2.2718    2.5349   -3.4219 H         1 <0>         0.1345
     53 H20         3.8456    2.6784   -4.2412 H         1 <0>         0.1447
     54 H21         4.0284    2.5806   -1.7227 H         1 <0>         0.1360
     55 H22         4.9102    1.2685   -2.5445 H         1 <0>         0.1077
     56 H23         3.1379    1.6746   -6.2803 H         1 <0>         0.1240
     57 H24         2.2130    0.1541   -6.2530 H         1 <0>         0.1246
     58 H25         1.4806    1.6526   -5.6314 H         1 <0>         0.1221
     59 H26        -6.7673   -2.4787    1.0681 H         1 <0>         0.0869
     60 H27        -7.6186   -2.1661   -0.4635 H         1 <0>         0.0986
     61 H28        -5.9457   -2.7740   -0.4831 H         1 <0>         0.1049
     62 N6          2.9618    0.7751   -4.3901 N.4       1 <0>        -0.3949
     63 H29         3.8510    0.2751   -4.5071 H         1 <0>         0.4322
@<TRIPOS>BOND
     1    1    2 1
     2    1   35 1
     3    1   36 1
     4    1   37 1
     5    2    3 1
     6    2   38 1
     7    2   39 1
     8    3    4 1
     9    3   40 1
    10    3   41 1
    11    4   33 2
    12    4    5 1
    13    5    6 2
    14    5   12 1
    15    6   32 1
    16    6    7 1
    17    7    9 1
    18    7    8 2
    19    9   11 2
    20   10   12 1
    21   11   13 1
    22   11   12 1
    23   13   18 ar
    24   13   14 ar
    25   14   15 ar
    26   14   42 1
    27   15   16 ar
    28   15   23 1
    29   16   17 ar
    30   16   43 1
    31   17   22 1
    32   17   18 ar
    33   18   19 1
    34   19   20 1
    35   20   21 1
    36   20   44 1
    37   20   45 1
    38   21   22 1
    39   21   46 1
    40   21   47 1
    41   23   24 2
    42   23   25 2
    43   23   26 1
    44   26   30 1
    45   26   27 1
    46   27   28 1
    47   27   48 1
    48   27   49 1
    49   28   50 1
    50   28   51 1
    51   28   62 1
    52   29   30 1
    53   29   52 1
    54   29   53 1
    55   29   62 1
    56   30   54 1
    57   30   55 1
    58   31   56 1
    59   31   57 1
    60   31   58 1
    61   31   62 1
    62   32   33 1
    63   32   34 1
    64   34   59 1
    65   34   60 1
    66   34   61 1
    67   62   63 1
@<TRIPOS>MOLECULE
ZINC04199919
   63    67     0     0     0
SMALL
USER_CHARGES

@<TRIPOS>ATOM
      1 C1         -7.2580    4.8407   -1.3530 C.3       1 <0>        -0.1512
      2 C2         -6.7902    3.3841   -1.3659 C.3       1 <0>        -0.1139
      3 C3         -6.6191    2.8906    0.0722 C.3       1 <0>        -0.0398
      4 C4         -6.1583    1.4558    0.0594 C.2       1 <0>         0.1102
      5 C5         -4.8175    1.0246    0.0429 C.ar      1 <0>         0.0996
      6 C6         -4.8390   -0.3760    0.0349 C.ar      1 <0>        -0.1020
      7 C7         -3.6107   -1.0764    0.0111 C.ar      1 <0>         0.4481
      8 O1         -3.5871   -2.2950    0.0074 O.3       1 <0>        -0.3911
      9 N1         -2.4636   -0.3618    0.0053 N.ar      1 <0>        -0.5368
     10 H1         -4.5232   -2.6465    0.0129 H         1 <0>         0.4222
     11 C8         -2.5020    1.0062    0.0193 C.ar      1 <0>         0.3667
     12 N2         -3.6331    1.6688    0.0345 N.ar      1 <0>        -0.4555
     13 C9         -1.2314    1.7583    0.0172 C.ar      1 <0>        -0.0482
     14 C10        -0.0126    1.0758    0.0078 C.ar      1 <0>         0.0282
     15 C11         1.1712    1.7816    0.0002 C.ar      1 <0>        -0.6979
     16 C12         1.1593    3.1659    0.0085 C.ar      1 <0>        -0.0054
     17 C13        -0.0426    3.8571    0.0253 C.ar      1 <0>         0.0272
     18 C14        -1.2433    3.1585    0.0305 C.ar      1 <0>         0.1586
     19 O2         -2.4326    3.8161    0.0424 O.3       1 <0>        -0.2507
     20 C15        -2.4023    5.1938    0.4307 C.3       1 <0>         0.0081
     21 C16        -1.2492    5.8778   -0.3163 C.3       1 <0>         0.0185
     22 O3         -0.0297    5.2183    0.0414 O.3       1 <0>        -0.2988
     23 S1          2.7069    0.9179   -0.0195 S.o2      1 <0>         2.6939
     24 O4          3.6766    1.8013    0.5269 O.2       1 <0>        -0.9325
     25 O5          2.4557   -0.3697    0.5266 O.2       1 <0>        -0.9288
     26 N3          3.1183    0.6867   -1.6068 N.pl3     1 <0>        -1.0124
     27 C17         2.6921   -0.5218   -2.3288 C.3       1 <0>         0.0945
     28 C18         2.0217   -0.0876   -3.6419 C.3       1 <0>        -0.0194
     29 C19         3.2105    2.0262   -3.6417 C.3       1 <0>        -0.0185
     30 C20         3.9245    1.6816   -2.3303 C.3       1 <0>         0.0939
     31 C21         2.4078    1.0866   -5.7238 C.3       1 <0>        -0.0421
     32 N4         -6.1527   -0.7546    0.0467 N.pl3     1 <0>        -0.3783
     33 N5         -6.9359    0.4071    0.0620 N.2       1 <0>        -0.2116
     34 C22        -6.6532   -2.1315    0.0439 C.3       1 <0>         0.0924
     35 H2         -6.5163    5.4560   -0.8436 H         1 <0>         0.0561
     36 H3         -7.3798    5.1923   -2.3776 H         1 <0>         0.0578
     37 H4         -8.2110    4.9116   -0.8288 H         1 <0>         0.0585
     38 H5         -5.8372    3.3131   -1.8902 H         1 <0>         0.0638
     39 H6         -7.5318    2.7687   -1.8754 H         1 <0>         0.0637
     40 H7         -7.5721    2.9614    0.5964 H         1 <0>         0.0872
     41 H8         -5.8774    3.5058    0.5816 H         1 <0>         0.0943
     42 H9          0.0021   -0.0041    0.0019 H         1 <0>         0.1633
     43 H10         2.0918    3.7107    0.0021 H         1 <0>         0.1546
     44 H11        -3.3460    5.6711    0.1664 H         1 <0>         0.1331
     45 H12        -2.2408    5.2693    1.5060 H         1 <0>         0.0870
     46 H13        -1.4089    5.7976   -1.3915 H         1 <0>         0.0818
     47 H14        -1.1974    6.9282   -0.0297 H         1 <0>         0.1315
     48 H15         3.5604   -1.1439   -2.5458 H         1 <0>         0.1062
     49 H16         1.9810   -1.0802   -1.7201 H         1 <0>         0.1377
     50 H17         1.0995    0.4504   -3.4221 H         1 <0>         0.1363
     51 H18         1.7946   -0.9687   -4.2419 H         1 <0>         0.1436
     52 H19         2.2718    2.5347   -3.4219 H         1 <0>         0.1358
     53 H20         3.8457    2.6782   -4.2413 H         1 <0>         0.1442
     54 H21         4.0285    2.5805   -1.7228 H         1 <0>         0.1361
     55 H22         4.9102    1.2684   -2.5444 H         1 <0>         0.1059
     56 H23         3.1379    1.6743   -6.2803 H         1 <0>         0.1239
     57 H24         2.2130    0.1538   -6.2529 H         1 <0>         0.1236
     58 H25         1.4807    1.6524   -5.6315 H         1 <0>         0.1224
     59 H26        -6.7662   -2.4791    1.0708 H         1 <0>         0.0915
     60 H27        -7.6191   -2.1660   -0.4598 H         1 <0>         0.1127
     61 H28        -5.9462   -2.7739   -0.4814 H         1 <0>         0.0833
     62 N6          2.9619    0.7749   -4.3900 N.4       1 <0>        -0.3945
     63 H29         3.8511    0.2749   -4.5070 H         1 <0>         0.4313
@<TRIPOS>BOND
     1    1    2 1
     2    1   35 1
     3    1   36 1
     4    1   37 1
     5    2    3 1
     6    2   38 1
     7    2   39 1
     8    3    4 1
     9    3   40 1
    10    3   41 1
    11    4   33 2
    12    4    5 1
    13    5    6 ar
    14    5   12 ar
    15    6   32 1
    16    6    7 ar
    17    7    9 ar
    18    7    8 1
    19    8   10 1
    20    9   11 ar
    21   11   13 1
    22   11   12 ar
    23   13   18 ar
    24   13   14 ar
    25   14   15 ar
    26   14   42 1
    27   15   16 ar
    28   15   23 1
    29   16   17 ar
    30   16   43 1
    31   17   22 1
    32   17   18 ar
    33   18   19 1
    34   19   20 1
    35   20   21 1
    36   20   44 1
    37   20   45 1
    38   21   22 1
    39   21   46 1
    40   21   47 1
    41   23   24 2
    42   23   25 2
    43   23   26 1
    44   26   30 1
    45   26   27 1
    46   27   28 1
    47   27   48 1
    48   27   49 1
    49   28   50 1
    50   28   51 1
    51   28   62 1
    52   29   30 1
    53   29   52 1
    54   29   53 1
    55   29   62 1
    56   30   54 1
    57   30   55 1
    58   31   56 1
    59   31   57 1
    60   31   58 1
    61   31   62 1
    62   32   33 1
    63   32   34 1
    64   34   59 1
    65   34   60 1
    66   34   61 1
    67   62   63 1
@<TRIPOS>MOLECULE
ZINC04199920
   53    55     0     0     0
SMALL
USER_CHARGES

@<TRIPOS>ATOM
      1 C1         -0.0411    1.2947   -2.7363 C.3       1 <0>        -0.1515
      2 C2         -0.8486    1.8644   -1.5683 C.3       1 <0>        -0.1153
      3 C3         -0.3052    1.3053   -0.2518 C.3       1 <0>        -0.0363
      4 C4         -1.1006    1.8664    0.8986 C.2       1 <0>         0.1063
      5 C5         -0.8030    3.0496    1.6023 C.2       1 <0>         0.0476
      6 C6         -1.7920    3.2016    2.5827 C.2       1 <0>        -0.0397
      7 C7         -1.7350    4.3248    3.4400 C.2       1 <0>         0.5709
      8 O1         -2.5738    4.4903    4.3086 O.2       1 <0>        -0.5283
      9 N1         -0.7280    5.2105    3.2725 N.am      1 <0>        -0.6333
     10 H1         -0.6667    6.0125    3.8666 H         1 <0>         0.4287
     11 C8          0.2083    5.0149    2.2936 C.2       1 <0>         0.4057
     12 N2          0.1681    3.9786    1.4917 N.2       1 <0>        -0.4320
     13 C9          1.2959    6.0009    2.1356 C.ar      1 <0>        -0.0798
     14 C10         1.3580    7.1164    2.9724 C.ar      1 <0>        -0.0604
     15 C11         2.3832    8.0346    2.8214 C.ar      1 <0>         0.1047
     16 C12         3.3437    7.8523    1.8325 C.ar      1 <0>        -0.0746
     17 C13         3.2849    6.7539    0.9983 C.ar      1 <0>        -0.1948
     18 C14         2.2667    5.8242    1.1416 C.ar      1 <0>         0.1800
     19 O2          2.2108    4.7442    0.3203 O.3       1 <0>        -0.2644
     20 C15         3.2342    4.6289   -0.6704 C.3       1 <0>         0.0492
     21 C16         3.0065    3.3595   -1.4936 C.3       1 <0>        -0.1215
     22 C17         4.1023    3.2360   -2.5542 C.3       1 <0>        -0.1510
     23 N3          2.4504    9.1524    3.6638 N.am      1 <0>        -0.6719
     24 C18         2.0394    9.0572    4.9438 C.2       1 <0>         0.5102
     25 O3          1.7015    7.9827    5.3940 O.2       1 <0>        -0.5281
     26 C19         1.9996   10.2856    5.8158 C.3       1 <0>        -0.1710
     27 N4         -2.6385    2.1345    2.4636 N.pl3     1 <0>        -0.3328
     28 N5         -2.1763    1.3331    1.4115 N.2       1 <0>        -0.2345
     29 C20        -3.8199    1.8750    3.2902 C.3       1 <0>         0.1009
     30 H2          1.0059    1.5774   -2.6262 H         1 <0>         0.0584
     31 H3         -0.1255    0.2080   -2.7406 H         1 <0>         0.0552
     32 H4         -0.4283    1.6930   -3.6741 H         1 <0>         0.0556
     33 H5         -1.8956    1.5817   -1.6783 H         1 <0>         0.0618
     34 H6         -0.7642    2.9511   -1.5639 H         1 <0>         0.0669
     35 H7         -0.3896    0.2186   -0.2561 H         1 <0>         0.0819
     36 H8          0.7418    1.5880   -0.1417 H         1 <0>         0.0941
     37 H9          0.6101    7.2611    3.7380 H         1 <0>         0.1407
     38 H10         4.1392    8.5735    1.7164 H         1 <0>         0.1361
     39 H11         4.0338    6.6188    0.2319 H         1 <0>         0.1425
     40 H12         3.2037    5.4982   -1.3272 H         1 <0>         0.0621
     41 H13         4.2076    4.5760   -0.1827 H         1 <0>         0.0618
     42 H14         3.0371    2.4901   -0.8367 H         1 <0>         0.0751
     43 H15         2.0331    3.4124   -1.9812 H         1 <0>         0.0776
     44 H16         3.9401    2.3317   -3.1407 H         1 <0>         0.0647
     45 H17         4.0717    4.1054   -3.2111 H         1 <0>         0.0564
     46 H18         5.0757    3.1831   -2.0666 H         1 <0>         0.0563
     47 H19         2.7928    9.9946    3.3257 H         1 <0>         0.4140
     48 H20         2.3362   11.1493    5.2424 H         1 <0>         0.0796
     49 H21         0.9793   10.4537    6.1605 H         1 <0>         0.1010
     50 H22         2.6545   10.1425    6.6753 H         1 <0>         0.1002
     51 H23        -3.5335    1.2778    4.1559 H         1 <0>         0.0809
     52 H24        -4.2436    2.8215    3.6258 H         1 <0>         0.0991
     53 H25        -4.5615    1.3325    2.7038 H         1 <0>         0.0951
@<TRIPOS>BOND
     1    1    2 1
     2    1   30 1
     3    1   31 1
     4    1   32 1
     5    2    3 1
     6    2   33 1
     7    2   34 1
     8    3    4 1
     9    3   35 1
    10    3   36 1
    11    4   28 2
    12    4    5 1
    13    5   12 1
    14    5    6 2
    15    6    7 1
    16    6   27 1
    17    7    8 2
    18    7    9 am
    19    9   10 1
    20    9   11 1
    21   11   12 2
    22   11   13 1
    23   13   18 ar
    24   13   14 ar
    25   14   15 ar
    26   14   37 1
    27   15   16 ar
    28   15   23 1
    29   16   17 ar
    30   16   38 1
    31   17   18 ar
    32   17   39 1
    33   18   19 1
    34   19   20 1
    35   20   21 1
    36   20   40 1
    37   20   41 1
    38   21   22 1
    39   21   42 1
    40   21   43 1
    41   22   44 1
    42   22   45 1
    43   22   46 1
    44   23   24 am
    45   23   47 1
    46   24   25 2
    47   24   26 1
    48   26   48 1
    49   26   49 1
    50   26   50 1
    51   27   28 1
    52   27   29 1
    53   29   51 1
    54   29   52 1
    55   29   53 1
@<TRIPOS>MOLECULE
ZINC04199920
   53    55     0     0     0
SMALL
USER_CHARGES

@<TRIPOS>ATOM
      1 C1         -0.1417    1.4464   -2.8432 C.3       1 <0>        -0.1516
      2 C2         -0.9351    2.0056   -1.6605 C.3       1 <0>        -0.1149
      3 C3         -0.4081    1.3969   -0.3594 C.3       1 <0>        -0.0373
      4 C4         -1.1895    1.9477    0.8054 C.2       1 <0>         0.1079
      5 C5         -0.8613    3.1032    1.5409 C.ar      1 <0>         0.1036
      6 C6         -1.8352    3.2431    2.5382 C.ar      1 <0>        -0.1102
      7 C7         -1.7106    4.3028    3.4670 C.ar      1 <0>         0.4389
      8 O1         -2.5384    4.4584    4.3479 O.3       1 <0>        -0.3931
      9 N1         -0.7044    5.1891    3.2984 N.ar      1 <0>        -0.5267
     10 H1         -3.2003    3.7093    4.3194 H         1 <0>         0.4170
     11 C8          0.2011    5.0215    2.2854 C.ar      1 <0>         0.3848
     12 N2          0.1342    4.0087    1.4558 N.ar      1 <0>        -0.4589
     13 C9          1.2847    6.0111    2.1229 C.ar      1 <0>        -0.0597
     14 C10         1.3468    7.1266    2.9597 C.ar      1 <0>        -0.0320
     15 C11         2.3683    8.0482    2.8045 C.ar      1 <0>         0.0915
     16 C12         3.3251    7.8693    1.8115 C.ar      1 <0>        -0.0798
     17 C13         3.2663    6.7709    0.9773 C.ar      1 <0>        -0.2036
     18 C14         2.2518    5.8378    1.1247 C.ar      1 <0>         0.1674
     19 O2          2.1959    4.7578    0.3034 O.3       1 <0>        -0.2683
     20 C15         3.2154    4.6461   -0.6917 C.3       1 <0>         0.0500
     21 C16         2.9884    3.3761   -1.5142 C.3       1 <0>        -0.1208
     22 C17         4.0800    3.2565   -2.5795 C.3       1 <0>        -0.1506
     23 N3          2.4354    9.1661    3.6469 N.am      1 <0>        -0.6723
     24 C18         2.0303    9.0693    4.9286 C.2       1 <0>         0.5061
     25 O3          1.6978    7.9936    5.3800 O.2       1 <0>        -0.5203
     26 C19         1.9902   10.2973    5.8010 C.3       1 <0>        -0.1696
     27 N4         -2.7154    2.2084    2.3836 N.pl3     1 <0>        -0.3844
     28 N5         -2.2842    1.4342    1.2985 N.2       1 <0>        -0.2197
     29 C20        -3.8991    1.9532    3.2083 C.3       1 <0>         0.0951
     30 H2          0.9123    1.6981   -2.7252 H         1 <0>         0.0590
     31 H3         -0.2550    0.3628   -2.8769 H         1 <0>         0.0553
     32 H4         -0.5172    1.8800   -3.7701 H         1 <0>         0.0562
     33 H5         -1.9891    1.7539   -1.7785 H         1 <0>         0.0615
     34 H6         -0.8218    3.0892   -1.6268 H         1 <0>         0.0672
     35 H7         -0.5213    0.3134   -0.3931 H         1 <0>         0.0826
     36 H8          0.6459    1.6486   -0.2414 H         1 <0>         0.0954
     37 H9          0.6017    7.2687    3.7286 H         1 <0>         0.1566
     38 H10         4.1177    8.5931    1.6921 H         1 <0>         0.1316
     39 H11         4.0124    6.6384    0.2076 H         1 <0>         0.1379
     40 H12         3.1793    5.5154   -1.3481 H         1 <0>         0.0602
     41 H13         4.1911    4.5963   -0.2082 H         1 <0>         0.0597
     42 H14         3.0246    2.5067   -0.8576 H         1 <0>         0.0734
     43 H15         2.0127    3.4259   -1.9976 H         1 <0>         0.0763
     44 H16         3.9182    2.3518   -3.1655 H         1 <0>         0.0638
     45 H17         4.0437    4.1259   -3.2361 H         1 <0>         0.0564
     46 H18         5.0556    3.2066   -2.0961 H         1 <0>         0.0562
     47 H19         2.7736   10.0095    3.3075 H         1 <0>         0.4109
     48 H20         2.3215   11.1623    5.2264 H         1 <0>         0.0777
     49 H21         0.9708   10.4620    6.1502 H         1 <0>         0.0992
     50 H22         2.6493   10.1562    6.6577 H         1 <0>         0.0980
     51 H23        -3.6260    1.3136    4.0476 H         1 <0>         0.0858
     52 H24        -4.2908    2.8984    3.5841 H         1 <0>         0.0829
     53 H25        -4.6610    1.4576    2.6067 H         1 <0>         0.1078
@<TRIPOS>BOND
     1    1    2 1
     2    1   30 1
     3    1   31 1
     4    1   32 1
     5    2    3 1
     6    2   33 1
     7    2   34 1
     8    3    4 1
     9    3   35 1
    10    3   36 1
    11    4   28 2
    12    4    5 1
    13    5    6 ar
    14    5   12 ar
    15    6   27 1
    16    6    7 ar
    17    7    9 ar
    18    7    8 1
    19    8   10 1
    20    9   11 ar
    21   11   13 1
    22   11   12 ar
    23   13   18 ar
    24   13   14 ar
    25   14   15 ar
    26   14   37 1
    27   15   16 ar
    28   15   23 1
    29   16   17 ar
    30   16   38 1
    31   17   18 ar
    32   17   39 1
    33   18   19 1
    34   19   20 1
    35   20   21 1
    36   20   40 1
    37   20   41 1
    38   21   22 1
    39   21   42 1
    40   21   43 1
    41   22   44 1
    42   22   45 1
    43   22   46 1
    44   23   24 am
    45   23   47 1
    46   24   25 2
    47   24   26 1
    48   26   48 1
    49   26   49 1
    50   26   50 1
    51   27   28 1
    52   27   29 1
    53   29   51 1
    54   29   52 1
    55   29   53 1
@<TRIPOS>MOLECULE
ZINC04199920
   53    55     0     0     0
SMALL
USER_CHARGES

@<TRIPOS>ATOM
      1 C1         -0.0402    1.2930   -2.7351 C.3       1 <0>        -0.1536
      2 C2         -0.8478    1.8628   -1.5672 C.3       1 <0>        -0.1198
      3 C3         -0.3041    1.3043   -0.2505 C.3       1 <0>        -0.0429
      4 C4         -1.0996    1.8655    0.8997 C.2       1 <0>         0.0789
      5 C5         -0.8024    3.0490    1.6030 C.2       1 <0>         0.0112
      6 C6         -1.7914    3.2010    2.5834 C.2       1 <0>        -0.0177
      7 C7         -1.7378    4.3274    3.4368 C.2       1 <0>         0.5409
      8 O1         -2.5767    4.4930    4.3052 O.2       1 <0>        -0.5136
      9 N1         -0.7334    5.2155    3.2663 N.2       1 <0>        -0.5761
     10 H1          0.8669    3.8775    0.7835 H         1 <0>         0.4307
     11 C8          0.2030    5.0197    2.2875 C.2       1 <0>         0.4680
     12 N2          0.1657    3.9808    1.4890 N.pl3     1 <0>        -0.5317
     13 C9          1.2877    6.0084    2.1262 C.ar      1 <0>        -0.0885
     14 C10         1.3470    7.1264    2.9598 C.ar      1 <0>        -0.0119
     15 C11         2.3696    8.0471    2.8057 C.ar      1 <0>         0.1085
     16 C12         3.3301    7.8647    1.8169 C.ar      1 <0>        -0.0725
     17 C13         3.2741    6.7637    0.9859 C.ar      1 <0>        -0.1845
     18 C14         2.2586    5.8316    1.1323 C.ar      1 <0>         0.1431
     19 O2          2.2054    4.7491    0.3141 O.3       1 <0>        -0.3370
     20 C15         3.2287    4.6338   -0.6767 C.3       1 <0>         0.0594
     21 C16         3.0043    3.3614   -1.4962 C.3       1 <0>        -0.1327
     22 C17         4.0999    3.2380   -2.5569 C.3       1 <0>        -0.1506
     23 N3          2.4339    9.1675    3.6449 N.am      1 <0>        -0.6746
     24 C18         2.0238    9.0748    4.9253 C.2       1 <0>         0.5070
     25 O3          1.6891    8.0006    5.3787 O.2       1 <0>        -0.5134
     26 C19         1.9809   10.3056    5.7938 C.3       1 <0>        -0.1696
     27 N4         -2.6375    2.1336    2.4647 N.pl3     1 <0>        -0.3283
     28 N5         -2.1751    1.3320    1.4129 N.2       1 <0>        -0.2349
     29 C20        -3.8187    1.8739    3.2915 C.3       1 <0>         0.1025
     30 H2          1.0068    1.5761   -2.6251 H         1 <0>         0.0571
     31 H3         -0.1242    0.2062   -2.7390 H         1 <0>         0.0587
     32 H4         -0.4276    1.6908   -3.6730 H         1 <0>         0.0590
     33 H5         -1.8947    1.5797   -1.6770 H         1 <0>         0.0697
     34 H6         -0.7638    2.9495   -1.5631 H         1 <0>         0.0623
     35 H7         -0.3881    0.2176   -0.2545 H         1 <0>         0.0922
     36 H8          0.7428    1.5874   -0.1406 H         1 <0>         0.0822
     37 H9          0.5991    7.2712    3.7253 H         1 <0>         0.1690
     38 H10         4.1235    8.5878    1.6984 H         1 <0>         0.1399
     39 H11         4.0230    6.6286    0.2195 H         1 <0>         0.1450
     40 H12         3.1954    5.5012   -1.3360 H         1 <0>         0.0749
     41 H13         4.2025    4.5851   -0.1893 H         1 <0>         0.0746
     42 H14         3.0376    2.4940   -0.8368 H         1 <0>         0.0768
     43 H15         2.0305    3.4102   -1.9835 H         1 <0>         0.0790
     44 H16         3.9401    2.3316   -3.1407 H         1 <0>         0.0686
     45 H17         4.0666    4.1054   -3.2163 H         1 <0>         0.0601
     46 H18         5.0737    3.1893   -2.0696 H         1 <0>         0.0600
     47 H19         2.7738   10.0097    3.3042 H         1 <0>         0.4139
     48 H20         2.3148   11.1686    5.2178 H         1 <0>         0.0787
     49 H21         0.9602   10.4718    6.1385 H         1 <0>         0.1020
     50 H22         2.6365   10.1668    6.6534 H         1 <0>         0.0997
     51 H23        -3.5321    1.2771    4.1574 H         1 <0>         0.0824
     52 H24        -4.2427    2.8204    3.6268 H         1 <0>         0.1034
     53 H25        -4.5602    1.3310    2.7053 H         1 <0>         0.0945
@<TRIPOS>BOND
     1    1    2 1
     2    1   30 1
     3    1   31 1
     4    1   32 1
     5    2    3 1
     6    2   33 1
     7    2   34 1
     8    3    4 1
     9    3   35 1
    10    3   36 1
    11    4   28 2
    12    4    5 1
    13    5    6 2
    14    5   12 1
    15    6   27 1
    16    6    7 1
    17    7    9 1
    18    7    8 2
    19    9   11 2
    20   10   12 1
    21   11   13 1
    22   11   12 1
    23   13   18 ar
    24   13   14 ar
    25   14   15 ar
    26   14   37 1
    27   15   16 ar
    28   15   23 1
    29   16   17 ar
    30   16   38 1
    31   17   18 ar
    32   17   39 1
    33   18   19 1
    34   19   20 1
    35   20   21 1
    36   20   40 1
    37   20   41 1
    38   21   22 1
    39   21   42 1
    40   21   43 1
    41   22   44 1
    42   22   45 1
    43   22   46 1
    44   23   24 am
    45   23   47 1
    46   24   25 2
    47   24   26 1
    48   26   48 1
    49   26   49 1
    50   26   50 1
    51   27   28 1
    52   27   29 1
    53   29   51 1
    54   29   52 1
    55   29   53 1
@<TRIPOS>MOLECULE
ZINC04199921
   69    72     0     0     0
SMALL
USER_CHARGES

@<TRIPOS>ATOM
      1 C1          5.9280    0.0548   10.5829 C.3       1 <0>        -0.1518
      2 C2          5.5374   -0.8952    9.4489 C.3       1 <0>        -0.1159
      3 C3          6.2134   -0.4463    8.1519 C.3       1 <0>        -0.0371
      4 C4          5.8286   -1.3820    7.0349 C.2       1 <0>         0.1091
      5 C5          4.7161   -1.2311    6.1846 C.2       1 <0>         0.0417
      6 C6          4.7317   -2.3135    5.2955 C.2       1 <0>        -0.0342
      7 C7          3.7119   -2.4096    4.3205 C.2       1 <0>         0.5722
      8 O1          3.6904   -3.3361    3.5288 O.2       1 <0>        -0.5212
      9 N1          2.7595   -1.4512    4.2904 N.am      1 <0>        -0.6366
     10 H1          2.0244   -1.5012    3.6143 H         1 <0>         0.4267
     11 C8          2.7963   -0.4126    5.1809 C.2       1 <0>         0.3959
     12 N2          3.7350   -0.3109    6.0904 N.2       1 <0>        -0.4280
     13 C9          1.7439    0.6211    5.1194 C.ar      1 <0>        -0.1090
     14 C10         0.7297    0.5343    4.1636 C.ar      1 <0>         0.0392
     15 C11        -0.2472    1.5054    4.1079 C.ar      1 <0>        -0.7206
     16 C12        -0.2334    2.5621    5.0030 C.ar      1 <0>         0.0425
     17 C13         0.7617    2.6570    5.9562 C.ar      1 <0>        -0.2303
     18 C14         1.7546    1.6918    6.0227 C.ar      1 <0>         0.2445
     19 O2          2.7333    1.7840    6.9587 O.3       1 <0>        -0.2561
     20 C15         2.6796    2.9034    7.8453 C.3       1 <0>         0.0442
     21 C16         3.8553    2.8372    8.8221 C.3       1 <0>        -0.1217
     22 C17         3.7978    4.0357    9.7714 C.3       1 <0>        -0.1517
     23 S1         -1.5230    1.3978    2.8974 S.o2      1 <0>         2.6957
     24 O3         -2.6282    2.1322    3.4058 O.2       1 <0>        -0.9372
     25 O4         -1.6217    0.0282    2.5320 O.2       1 <0>        -0.9394
     26 N3         -0.9933    2.2090    1.5544 N.pl3     1 <0>        -1.0072
     27 C18        -0.2418    1.5125    0.4993 C.3       1 <0>         0.0953
     28 C19        -0.8977    1.8153   -0.8521 C.3       1 <0>        -0.0224
     29 C20        -1.8818    3.8635   -0.0047 C.3       1 <0>        -0.0230
     30 C21        -1.2662    3.6446    1.3814 C.3       1 <0>         0.0973
     31 C22        -1.4718    3.6062   -2.3771 C.3       1 <0>        -0.0530
     32 C23        -2.8743    3.0895   -2.5692 C.2       1 <0>         0.4560
     33 O5         -3.3916    2.4129   -1.7121 O.co2     1 <0>        -0.6138
     34 N4          5.8207   -3.0760    5.6150 N.pl3     1 <0>        -0.3291
     35 N5          6.4720   -2.4660    6.6951 N.2       1 <0>        -0.2322
     36 C24         6.2336   -4.3122    4.9460 C.3       1 <0>         0.0987
     37 H2          7.0101    0.0396   10.7130 H         1 <0>         0.0561
     38 H3          5.6058    1.0665   10.3365 H         1 <0>         0.0577
     39 H4          5.4464   -0.2650   11.5069 H         1 <0>         0.0568
     40 H5          4.4553   -0.8800    9.3187 H         1 <0>         0.0662
     41 H6          5.8595   -1.9069    9.6953 H         1 <0>         0.0631
     42 H7          7.2955   -0.4615    8.2820 H         1 <0>         0.0835
     43 H8          5.8912    0.5655    7.9055 H         1 <0>         0.0934
     44 H9          0.7129   -0.2902    3.4663 H         1 <0>         0.1450
     45 H10        -1.0047    3.3165    4.9552 H         1 <0>         0.1502
     46 H11         0.7660    3.4839    6.6509 H         1 <0>         0.1499
     47 H12         2.7377    3.8267    7.2688 H         1 <0>         0.0678
     48 H13         1.7428    2.8812    8.4022 H         1 <0>         0.0688
     49 H14         3.7972    1.9140    9.3986 H         1 <0>         0.0796
     50 H15         4.7920    2.8594    8.2652 H         1 <0>         0.0766
     51 H16         3.8559    4.9590    9.1949 H         1 <0>         0.0572
     52 H17         2.8610    4.0135   10.3283 H         1 <0>         0.0580
     53 H18         4.6354    3.9886   10.4673 H         1 <0>         0.0672
     54 H19        -0.2619    0.4384    0.6836 H         1 <0>         0.1313
     55 H20         0.7902    1.8635    0.4922 H         1 <0>         0.0913
     56 H21        -0.2880    1.3987   -1.6539 H         1 <0>         0.1302
     57 H22        -1.8919    1.3694   -0.8820 H         1 <0>         0.1654
     58 H23        -1.9858    4.9322   -0.1919 H         1 <0>         0.1307
     59 H24        -2.8626    3.3897   -0.0465 H         1 <0>         0.1644
     60 H25        -0.3338    4.2036    1.4604 H         1 <0>         0.0911
     61 H26        -1.9623    3.9833    2.1488 H         1 <0>         0.1323
     62 H27        -1.4625    4.6886   -2.5059 H         1 <0>         0.1307
     63 H28        -0.8115    3.1471   -3.1129 H         1 <0>         0.1305
     64 H29         6.9103   -4.0729    4.1257 H         1 <0>         0.0829
     65 H30         6.7431   -4.9591    5.6603 H         1 <0>         0.0971
     66 H31         5.3548   -4.8244    4.5545 H         1 <0>         0.1006
     67 N6         -0.9792    3.2823   -1.0223 N.4       1 <0>        -0.3690
     68 H32        -0.0416    3.6837   -0.9036 H         1 <0>         0.4087
     69 O6         -3.5490    3.3808   -3.6925 O.co2     1 <0>        -0.7031
@<TRIPOS>BOND
     1    1    2 1
     2    1   37 1
     3    1   38 1
     4    1   39 1
     5    2    3 1
     6    2   40 1
     7    2   41 1
     8    3    4 1
     9    3   42 1
    10    3   43 1
    11    4   35 2
    12    4    5 1
    13    5   12 1
    14    5    6 2
    15    6    7 1
    16    6   34 1
    17    7    8 2
    18    7    9 am
    19    9   10 1
    20    9   11 1
    21   11   12 2
    22   11   13 1
    23   13   18 ar
    24   13   14 ar
    25   14   15 ar
    26   14   44 1
    27   15   16 ar
    28   15   23 1
    29   16   17 ar
    30   16   45 1
    31   17   18 ar
    32   17   46 1
    33   18   19 1
    34   19   20 1
    35   20   21 1
    36   20   47 1
    37   20   48 1
    38   21   22 1
    39   21   49 1
    40   21   50 1
    41   22   51 1
    42   22   52 1
    43   22   53 1
    44   23   24 2
    45   23   25 2
    46   23   26 1
    47   26   30 1
    48   26   27 1
    49   27   28 1
    50   27   54 1
    51   27   55 1
    52   28   56 1
    53   28   57 1
    54   28   67 1
    55   29   30 1
    56   29   58 1
    57   29   59 1
    58   29   67 1
    59   30   60 1
    60   30   61 1
    61   31   32 1
    62   31   62 1
    63   31   63 1
    64   31   67 1
    65   32   33 2
    66   32   69 1
    67   34   35 1
    68   34   36 1
    69   36   64 1
    70   36   65 1
    71   36   66 1
    72   67   68 1
@<TRIPOS>MOLECULE
ZINC04199921
   69    72     0     0     0
SMALL
USER_CHARGES

@<TRIPOS>ATOM
      1 C1          5.9465    0.0641   10.5713 C.3       1 <0>        -0.1539
      2 C2          5.5547   -0.8870    9.4387 C.3       1 <0>        -0.1203
      3 C3          6.2245   -0.4358    8.1392 C.3       1 <0>        -0.0435
      4 C4          5.8385   -1.3726    7.0235 C.2       1 <0>         0.0806
      5 C5          4.7224   -1.2251    6.1774 C.2       1 <0>         0.0074
      6 C6          4.7381   -2.3074    5.2881 C.2       1 <0>        -0.0147
      7 C7          3.7119   -2.4096    4.3205 C.2       1 <0>         0.5423
      8 O1          3.6904   -3.3361    3.5288 O.2       1 <0>        -0.5068
      9 N1          2.7594   -1.4513    4.2905 N.2       1 <0>        -0.5810
     10 H1          3.7261    0.4647    6.7216 H         1 <0>         0.4298
     11 C8          2.7962   -0.4127    5.1810 C.2       1 <0>         0.4641
     12 N2          3.7380   -0.3081    6.0870 N.pl3     1 <0>        -0.5308
     13 C9          1.7438    0.6210    5.1195 C.ar      1 <0>        -0.1241
     14 C10         0.7296    0.5342    4.1637 C.ar      1 <0>         0.0913
     15 C11        -0.2474    1.5053    4.1081 C.ar      1 <0>        -0.7230
     16 C12        -0.2336    2.5620    5.0032 C.ar      1 <0>         0.0494
     17 C13         0.7616    2.6569    5.9563 C.ar      1 <0>        -0.2220
     18 C14         1.7545    1.6917    6.0228 C.ar      1 <0>         0.2140
     19 O2          2.7332    1.7839    6.9588 O.3       1 <0>        -0.3301
     20 C15         2.6795    2.9033    7.8454 C.3       1 <0>         0.0541
     21 C16         3.8553    2.8372    8.8221 C.3       1 <0>        -0.1326
     22 C17         3.7978    4.0357    9.7714 C.3       1 <0>        -0.1513
     23 S1         -1.5232    1.3976    2.8976 S.o2      1 <0>         2.6951
     24 O3         -2.6284    2.1320    3.4061 O.2       1 <0>        -0.9375
     25 O4         -1.6219    0.0280    2.5322 O.2       1 <0>        -0.9297
     26 N3         -0.9936    2.2088    1.5546 N.pl3     1 <0>        -1.0065
     27 C18        -0.2421    1.5124    0.4995 C.3       1 <0>         0.0947
     28 C19        -0.8980    1.8151   -0.8519 C.3       1 <0>        -0.0222
     29 C20        -1.8822    3.8633   -0.0045 C.3       1 <0>        -0.0228
     30 C21        -1.2665    3.6444    1.3816 C.3       1 <0>         0.0971
     31 C22        -1.4723    3.6060   -2.3769 C.3       1 <0>        -0.0528
     32 C23        -2.8747    3.0893   -2.5689 C.2       1 <0>         0.4560
     33 O5         -3.3920    2.4127   -1.7118 O.co2     1 <0>        -0.6133
     34 N4          5.8307   -3.0664    5.6034 N.pl3     1 <0>        -0.3256
     35 N5          6.4841   -2.4545    6.6812 N.2       1 <0>        -0.2319
     36 C24         6.2451   -4.3012    4.9327 C.3       1 <0>         0.1007
     37 H2          7.0291    0.0523   10.6974 H         1 <0>         0.0596
     38 H3          5.6202    1.0748   10.3263 H         1 <0>         0.0564
     39 H4          5.4693   -0.2574   11.4971 H         1 <0>         0.0600
     40 H5          4.4721   -0.8753    9.3125 H         1 <0>         0.0616
     41 H6          5.8809   -1.8977    9.6837 H         1 <0>         0.0709
     42 H7          7.3071   -0.4476    8.2653 H         1 <0>         0.0936
     43 H8          5.8981    0.5750    7.8942 H         1 <0>         0.0814
     44 H9          0.7128   -0.2903    3.4664 H         1 <0>         0.1738
     45 H10        -1.0049    3.3163    4.9554 H         1 <0>         0.1546
     46 H11         0.7659    3.4838    6.6510 H         1 <0>         0.1531
     47 H12         2.7376    3.8266    7.2689 H         1 <0>         0.0800
     48 H13         1.7428    2.8811    8.4023 H         1 <0>         0.0810
     49 H14         3.7972    1.9140    9.3986 H         1 <0>         0.0810
     50 H15         4.7920    2.8594    8.2652 H         1 <0>         0.0783
     51 H16         3.8558    4.9590    9.1949 H         1 <0>         0.0609
     52 H17         2.8610    4.0134   10.3284 H         1 <0>         0.0616
     53 H18         4.6354    3.9886   10.4673 H         1 <0>         0.0711
     54 H19        -0.2621    0.4382    0.6838 H         1 <0>         0.1350
     55 H20         0.7899    1.8634    0.4923 H         1 <0>         0.0919
     56 H21        -0.2884    1.3985   -1.6537 H         1 <0>         0.1309
     57 H22        -1.8922    1.3692   -0.8818 H         1 <0>         0.1655
     58 H23        -1.9862    4.9320   -0.1917 H         1 <0>         0.1301
     59 H24        -2.8630    3.3895   -0.0462 H         1 <0>         0.1645
     60 H25        -0.3341    4.2034    1.4606 H         1 <0>         0.0903
     61 H26        -1.9626    3.9831    2.1490 H         1 <0>         0.1316
     62 H27        -1.4630    4.6884   -2.5057 H         1 <0>         0.1302
     63 H28        -0.8120    3.1469   -3.1127 H         1 <0>         0.1306
     64 H29         6.9180   -4.0597    4.1100 H         1 <0>         0.0840
     65 H30         6.7592   -4.9466    5.6451 H         1 <0>         0.0962
     66 H31         5.3664   -4.8162    4.5444 H         1 <0>         0.1047
     67 N6         -0.9796    3.2821   -1.0221 N.4       1 <0>        -0.3692
     68 H32        -0.0420    3.6836   -0.9034 H         1 <0>         0.4085
     69 O6         -3.5495    3.3806   -3.6922 O.co2     1 <0>        -0.7039
@<TRIPOS>BOND
     1    1    2 1
     2    1   37 1
     3    1   38 1
     4    1   39 1
     5    2    3 1
     6    2   40 1
     7    2   41 1
     8    3    4 1
     9    3   42 1
    10    3   43 1
    11    4   35 2
    12    4    5 1
    13    5    6 2
    14    5   12 1
    15    6   34 1
    16    6    7 1
    17    7    9 1
    18    7    8 2
    19    9   11 2
    20   10   12 1
    21   11   13 1
    22   11   12 1
    23   13   18 ar
    24   13   14 ar
    25   14   15 ar
    26   14   44 1
    27   15   16 ar
    28   15   23 1
    29   16   17 ar
    30   16   45 1
    31   17   18 ar
    32   17   46 1
    33   18   19 1
    34   19   20 1
    35   20   21 1
    36   20   47 1
    37   20   48 1
    38   21   22 1
    39   21   49 1
    40   21   50 1
    41   22   51 1
    42   22   52 1
    43   22   53 1
    44   23   24 2
    45   23   25 2
    46   23   26 1
    47   26   30 1
    48   26   27 1
    49   27   28 1
    50   27   54 1
    51   27   55 1
    52   28   56 1
    53   28   57 1
    54   28   67 1
    55   29   30 1
    56   29   58 1
    57   29   59 1
    58   29   67 1
    59   30   60 1
    60   30   61 1
    61   31   32 1
    62   31   62 1
    63   31   63 1
    64   31   67 1
    65   32   33 2
    66   32   69 1
    67   34   35 1
    68   34   36 1
    69   36   64 1
    70   36   65 1
    71   36   66 1
    72   67   68 1
@<TRIPOS>MOLECULE
ZINC04199921
   69    72     0     0     0
SMALL
USER_CHARGES

@<TRIPOS>ATOM
      1 C1          5.9508    0.0660   10.5687 C.3       1 <0>        -0.1519
      2 C2          5.5587   -0.8853    9.4363 C.3       1 <0>        -0.1154
      3 C3          6.2270   -0.4334    8.1363 C.3       1 <0>        -0.0378
      4 C4          5.8408   -1.3704    7.0209 C.2       1 <0>         0.1084
      5 C5          4.7238   -1.2238    6.1757 C.ar      1 <0>         0.1033
      6 C6          4.7392   -2.3063    5.2868 C.ar      1 <0>        -0.1073
      7 C7          3.7111   -2.4104    4.3214 C.ar      1 <0>         0.4454
      8 O1          3.6911   -3.3354    3.5279 O.3       1 <0>        -0.3912
      9 N1          2.7587   -1.4519    4.2913 N.ar      1 <0>        -0.5352
     10 H1          4.4684   -3.9401    3.7014 H         1 <0>         0.4193
     11 C8          2.7962   -0.4127    5.1810 C.ar      1 <0>         0.3785
     12 N2          3.7387   -0.3074    6.0862 N.ar      1 <0>        -0.4600
     13 C9          1.7438    0.6210    5.1195 C.ar      1 <0>        -0.0910
     14 C10         0.7296    0.5342    4.1637 C.ar      1 <0>         0.0667
     15 C11        -0.2474    1.5052    4.1081 C.ar      1 <0>        -0.7306
     16 C12        -0.2336    2.5619    5.0032 C.ar      1 <0>         0.0385
     17 C13         0.7615    2.6568    5.9564 C.ar      1 <0>        -0.2382
     18 C14         1.7544    1.6916    6.0229 C.ar      1 <0>         0.2338
     19 O2          2.7331    1.7838    6.9589 O.3       1 <0>        -0.2600
     20 C15         2.6794    2.9032    7.8455 C.3       1 <0>         0.0449
     21 C16         3.8551    2.8370    8.8223 C.3       1 <0>        -0.1208
     22 C17         3.7975    4.0355    9.7717 C.3       1 <0>        -0.1514
     23 S1         -1.5232    1.3976    2.8976 S.o2      1 <0>         2.6966
     24 O3         -2.6284    2.1320    3.4060 O.2       1 <0>        -0.9423
     25 O4         -1.6218    0.0281    2.5321 O.2       1 <0>        -0.9384
     26 N3         -0.9935    2.2089    1.5546 N.pl3     1 <0>        -1.0074
     27 C18        -0.2420    1.5125    0.4995 C.3       1 <0>         0.0966
     28 C19        -0.8979    1.8153   -0.8519 C.3       1 <0>        -0.0219
     29 C20        -1.8821    3.8635   -0.0044 C.3       1 <0>        -0.0227
     30 C21        -1.2665    3.6445    1.3817 C.3       1 <0>         0.0976
     31 C22        -1.4721    3.6063   -2.3768 C.3       1 <0>        -0.0528
     32 C23        -2.8746    3.0895   -2.5689 C.2       1 <0>         0.4561
     33 O5         -3.3918    2.4129   -1.7119 O.co2     1 <0>        -0.6129
     34 N4          5.8328   -3.0645    5.6010 N.pl3     1 <0>        -0.3819
     35 N5          6.4871   -2.4517    6.6777 N.2       1 <0>        -0.2161
     36 C24         6.2471   -4.2993    4.9303 C.3       1 <0>         0.0948
     37 H2          7.0335    0.0551   10.6938 H         1 <0>         0.0562
     38 H3          5.6234    1.0765   10.3240 H         1 <0>         0.0585
     39 H4          5.4747   -0.2559   11.4948 H         1 <0>         0.0572
     40 H5          4.4760   -0.8743    9.3110 H         1 <0>         0.0664
     41 H6          5.8860   -1.8957    9.6810 H         1 <0>         0.0626
     42 H7          7.3097   -0.4444    8.2614 H         1 <0>         0.0841
     43 H8          5.8997    0.5771    7.8916 H         1 <0>         0.0946
     44 H9          0.7128   -0.2903    3.4664 H         1 <0>         0.1605
     45 H10        -1.0049    3.3163    4.9555 H         1 <0>         0.1462
     46 H11         0.7658    3.4837    6.6512 H         1 <0>         0.1456
     47 H12         2.7374    3.8265    7.2691 H         1 <0>         0.0658
     48 H13         1.7426    2.8809    8.4024 H         1 <0>         0.0668
     49 H14         3.7970    1.9138    9.3988 H         1 <0>         0.0780
     50 H15         4.7918    2.8593    8.2654 H         1 <0>         0.0751
     51 H16         3.8556    4.9588    9.1952 H         1 <0>         0.0571
     52 H17         2.8607    4.0132   10.3286 H         1 <0>         0.0579
     53 H18         4.6352    3.9884   10.4676 H         1 <0>         0.0663
     54 H19        -0.2620    0.4384    0.6837 H         1 <0>         0.1327
     55 H20         0.7900    1.8635    0.4924 H         1 <0>         0.0902
     56 H21        -0.2882    1.3988   -1.6537 H         1 <0>         0.1293
     57 H22        -1.8921    1.3694   -0.8818 H         1 <0>         0.1648
     58 H23        -1.9861    4.9322   -0.1915 H         1 <0>         0.1297
     59 H24        -2.8629    3.3896   -0.0462 H         1 <0>         0.1640
     60 H25        -0.3341    4.2036    1.4607 H         1 <0>         0.0899
     61 H26        -1.9626    3.9832    2.1491 H         1 <0>         0.1316
     62 H27        -1.4628    4.6887   -2.5056 H         1 <0>         0.1301
     63 H28        -0.8118    3.1472   -3.1126 H         1 <0>         0.1300
     64 H29         6.9188   -4.0576    4.1066 H         1 <0>         0.0881
     65 H30         6.7627   -4.9440    5.6422 H         1 <0>         0.1099
     66 H31         5.3684   -4.8150    4.5433 H         1 <0>         0.0829
     67 N6         -0.9795    3.2823   -1.0220 N.4       1 <0>        -0.3691
     68 H32        -0.0419    3.6838   -0.9033 H         1 <0>         0.4086
     69 O6         -3.5493    3.3808   -3.6922 O.co2     1 <0>        -0.7047
@<TRIPOS>BOND
     1    1    2 1
     2    1   37 1
     3    1   38 1
     4    1   39 1
     5    2    3 1
     6    2   40 1
     7    2   41 1
     8    3    4 1
     9    3   42 1
    10    3   43 1
    11    4   35 2
    12    4    5 1
    13    5    6 ar
    14    5   12 ar
    15    6   34 1
    16    6    7 ar
    17    7    9 ar
    18    7    8 1
    19    8   10 1
    20    9   11 ar
    21   11   13 1
    22   11   12 ar
    23   13   18 ar
    24   13   14 ar
    25   14   15 ar
    26   14   44 1
    27   15   16 ar
    28   15   23 1
    29   16   17 ar
    30   16   45 1
    31   17   18 ar
    32   17   46 1
    33   18   19 1
    34   19   20 1
    35   20   21 1
    36   20   47 1
    37   20   48 1
    38   21   22 1
    39   21   49 1
    40   21   50 1
    41   22   51 1
    42   22   52 1
    43   22   53 1
    44   23   24 2
    45   23   25 2
    46   23   26 1
    47   26   30 1
    48   26   27 1
    49   27   28 1
    50   27   54 1
    51   27   55 1
    52   28   56 1
    53   28   57 1
    54   28   67 1
    55   29   30 1
    56   29   58 1
    57   29   59 1
    58   29   67 1
    59   30   60 1
    60   30   61 1
    61   31   32 1
    62   31   62 1
    63   31   63 1
    64   31   67 1
    65   32   33 2
    66   32   69 1
    67   34   35 1
    68   34   36 1
    69   36   64 1
    70   36   65 1
    71   36   66 1
    72   67   68 1
@<TRIPOS>MOLECULE
ZINC04199922
   43    45     0     0     0
SMALL
USER_CHARGES

@<TRIPOS>ATOM
      1 C1         -0.0366    1.0992   -2.4903 C.3       1 <0>        -0.1513
      2 C2         -0.7527    1.5927   -1.2315 C.3       1 <0>        -0.1161
      3 C3         -0.0127    1.0858    0.0080 C.3       1 <0>        -0.0374
      4 C4         -0.7181    1.5718    1.2479 C.2       1 <0>         0.2916
      5 N1         -1.6792    0.9333    1.8731 N.2       1 <0>        -0.4782
      6 C5         -2.0791    1.6416    2.9301 C.2       1 <0>         0.1312
      7 C6         -1.3236    2.7873    2.9653 C.2       1 <0>        -0.1680
      8 N2         -0.4575    2.7212    1.8873 N.pl3     1 <0>        -0.2802
      9 N3          0.4363    3.7734    1.6691 N.2       1 <0>        -0.2699
     10 C7          0.4733    4.8020    2.4664 C.2       1 <0>         0.4200
     11 N4         -0.3605    4.9215    3.5598 N.am      1 <0>        -0.6726
     12 H1         -0.2981    5.7294    4.1457 H         1 <0>         0.4275
     13 C8         -1.2610    3.9540    3.8443 C.2       1 <0>         0.6004
     14 O1         -2.0005    4.0519    4.8066 O.2       1 <0>        -0.4912
     15 C9          1.4435    5.8816    2.1903 C.ar      1 <0>        -0.1102
     16 C10         1.5078    6.9976    3.0258 C.ar      1 <0>        -0.0467
     17 C11         2.4158    8.0018    2.7633 C.ar      1 <0>        -0.1566
     18 C12         3.2647    7.9078    1.6735 C.ar      1 <0>        -0.0434
     19 C13         3.2106    6.8080    0.8391 C.ar      1 <0>        -0.2141
     20 C14         2.3074    5.7877    1.0922 C.ar      1 <0>         0.1915
     21 O2          2.2572    4.7037    0.2762 O.3       1 <0>        -0.2774
     22 C15         3.1688    4.6771   -0.8240 C.3       1 <0>         0.0476
     23 C16         2.9655    3.3888   -1.6238 C.3       1 <0>        -0.1528
     24 C17        -3.1605    1.2552    3.9061 C.3       1 <0>        -0.0779
     25 H2          0.9860    1.4765   -2.4981 H         1 <0>         0.0571
     26 H3         -0.0218    0.0093   -2.4963 H         1 <0>         0.0585
     27 H4         -0.5637    1.4603   -3.3734 H         1 <0>         0.0579
     28 H5         -1.7753    1.2154   -1.2238 H         1 <0>         0.0691
     29 H6         -0.7675    2.6825   -1.2255 H         1 <0>         0.0624
     30 H7          0.0021   -0.0041    0.0020 H         1 <0>         0.0997
     31 H8          1.0099    1.4631    0.0003 H         1 <0>         0.0905
     32 H9          0.8471    7.0749    3.8766 H         1 <0>         0.1334
     33 H10         2.4651    8.8649    3.4105 H         1 <0>         0.1379
     34 H11         3.9732    8.6983    1.4749 H         1 <0>         0.1359
     35 H12         3.8756    6.7415   -0.0093 H         1 <0>         0.1401
     36 H13         2.9862    5.5373   -1.4680 H         1 <0>         0.0650
     37 H14         4.1917    4.7145   -0.4492 H         1 <0>         0.0648
     38 H15         3.1481    2.5286   -0.9798 H         1 <0>         0.0677
     39 H16         1.9426    3.3514   -1.9985 H         1 <0>         0.0702
     40 H17         3.6608    3.3685   -2.4630 H         1 <0>         0.0797
     41 H18        -2.7235    0.6841    4.7252 H         1 <0>         0.0811
     42 H19        -3.6316    2.1552    4.3014 H         1 <0>         0.0829
     43 H20        -3.9085    0.6470    3.3975 H         1 <0>         0.0806
@<TRIPOS>BOND
     1    1    2 1
     2    1   25 1
     3    1   26 1
     4    1   27 1
     5    2    3 1
     6    2   28 1
     7    2   29 1
     8    3    4 1
     9    3   30 1
    10    3   31 1
    11    4    8 1
    12    4    5 2
    13    5    6 1
    14    6    7 2
    15    6   24 1
    16    7   13 1
    17    7    8 1
    18    8    9 1
    19    9   10 2
    20   10   11 1
    21   10   15 1
    22   11   12 1
    23   11   13 am
    24   13   14 2
    25   15   20 ar
    26   15   16 ar
    27   16   17 ar
    28   16   32 1
    29   17   18 ar
    30   17   33 1
    31   18   19 ar
    32   18   34 1
    33   19   20 ar
    34   19   35 1
    35   20   21 1
    36   21   22 1
    37   22   23 1
    38   22   36 1
    39   22   37 1
    40   23   38 1
    41   23   39 1
    42   23   40 1
    43   24   41 1
    44   24   42 1
    45   24   43 1
@<TRIPOS>MOLECULE
ZINC04199922
   43    45     0     0     0
SMALL
USER_CHARGES

@<TRIPOS>ATOM
      1 C1         -0.0366    1.0992   -2.4903 C.3       1 <0>        -0.1513
      2 C2         -0.7527    1.5927   -1.2315 C.3       1 <0>        -0.1161
      3 C3         -0.0127    1.0858    0.0080 C.3       1 <0>        -0.0374
      4 C4         -0.7181    1.5718    1.2479 C.2       1 <0>         0.2916
      5 N1         -1.6792    0.9333    1.8731 N.2       1 <0>        -0.4782
      6 C5         -2.0791    1.6416    2.9301 C.2       1 <0>         0.1312
      7 C6         -1.3236    2.7873    2.9653 C.2       1 <0>        -0.1680
      8 N2         -0.4575    2.7212    1.8873 N.pl3     1 <0>        -0.2802
      9 N3          0.4363    3.7734    1.6691 N.2       1 <0>        -0.2699
     10 C7          0.4733    4.8020    2.4664 C.2       1 <0>         0.4200
     11 N4         -0.3605    4.9215    3.5598 N.am      1 <0>        -0.6726
     12 H1         -0.2981    5.7294    4.1457 H         1 <0>         0.4275
     13 C8         -1.2610    3.9540    3.8443 C.2       1 <0>         0.6004
     14 O1         -2.0005    4.0519    4.8066 O.2       1 <0>        -0.4912
     15 C9          1.4435    5.8816    2.1903 C.ar      1 <0>        -0.1102
     16 C10         1.5078    6.9976    3.0258 C.ar      1 <0>        -0.0467
     17 C11         2.4158    8.0018    2.7633 C.ar      1 <0>        -0.1566
     18 C12         3.2647    7.9078    1.6735 C.ar      1 <0>        -0.0434
     19 C13         3.2106    6.8080    0.8391 C.ar      1 <0>        -0.2141
     20 C14         2.3074    5.7877    1.0922 C.ar      1 <0>         0.1915
     21 O2          2.2572    4.7037    0.2762 O.3       1 <0>        -0.2774
     22 C15         3.1688    4.6771   -0.8240 C.3       1 <0>         0.0476
     23 C16         2.9655    3.3888   -1.6238 C.3       1 <0>        -0.1528
     24 C17        -3.1605    1.2552    3.9061 C.3       1 <0>        -0.0779
     25 H2          0.9860    1.4765   -2.4981 H         1 <0>         0.0571
     26 H3         -0.0218    0.0093   -2.4963 H         1 <0>         0.0585
     27 H4         -0.5637    1.4603   -3.3734 H         1 <0>         0.0579
     28 H5         -1.7753    1.2154   -1.2238 H         1 <0>         0.0691
     29 H6         -0.7675    2.6825   -1.2255 H         1 <0>         0.0624
     30 H7          0.0021   -0.0041    0.0020 H         1 <0>         0.0997
     31 H8          1.0099    1.4631    0.0003 H         1 <0>         0.0905
     32 H9          0.8471    7.0749    3.8766 H         1 <0>         0.1334
     33 H10         2.4651    8.8649    3.4105 H         1 <0>         0.1379
     34 H11         3.9732    8.6983    1.4749 H         1 <0>         0.1359
     35 H12         3.8756    6.7415   -0.0093 H         1 <0>         0.1401
     36 H13         2.9862    5.5373   -1.4680 H         1 <0>         0.0650
     37 H14         4.1917    4.7145   -0.4492 H         1 <0>         0.0648
     38 H15         3.1481    2.5286   -0.9798 H         1 <0>         0.0677
     39 H16         1.9426    3.3514   -1.9985 H         1 <0>         0.0702
     40 H17         3.6608    3.3685   -2.4630 H         1 <0>         0.0797
     41 H18        -2.7235    0.6841    4.7252 H         1 <0>         0.0811
     42 H19        -3.6316    2.1552    4.3014 H         1 <0>         0.0829
     43 H20        -3.9085    0.6470    3.3975 H         1 <0>         0.0806
@<TRIPOS>BOND
     1    1    2 1
     2    1   25 1
     3    1   26 1
     4    1   27 1
     5    2    3 1
     6    2   28 1
     7    2   29 1
     8    3    4 1
     9    3   30 1
    10    3   31 1
    11    4    8 1
    12    4    5 2
    13    5    6 1
    14    6    7 2
    15    6   24 1
    16    7   13 1
    17    7    8 1
    18    8    9 1
    19    9   10 2
    20   10   11 1
    21   10   15 1
    22   11   12 1
    23   11   13 am
    24   13   14 2
    25   15   20 ar
    26   15   16 ar
    27   16   17 ar
    28   16   32 1
    29   17   18 ar
    30   17   33 1
    31   18   19 ar
    32   18   34 1
    33   19   20 ar
    34   19   35 1
    35   20   21 1
    36   21   22 1
    37   22   23 1
    38   22   36 1
    39   22   37 1
    40   23   38 1
    41   23   39 1
    42   23   40 1
    43   24   41 1
    44   24   42 1
    45   24   43 1
@<TRIPOS>MOLECULE
ZINC04199923
   50    52     0     0     0
SMALL
USER_CHARGES

@<TRIPOS>ATOM
      1 C1         -1.2058    6.8838    2.9357 C.3       1 <0>        -0.1420
      2 C2         -1.0084    5.3666    2.9300 C.3       1 <0>        -0.1112
      3 C3         -0.7648    4.8787    4.3595 C.3       1 <0>        -0.1397
      4 C4         -2.2607    4.6915    2.3671 C.3       1 <0>         0.1245
      5 N1         -2.0276    3.2499    2.2502 N.am      1 <0>        -0.5055
      6 C5         -2.3339    2.4109    3.3106 C.2       1 <0>         0.3281
      7 C6         -2.1023    1.0458    3.1734 C.2       1 <0>        -0.1512
      8 C7         -1.5649    0.5581    1.9643 C.2       1 <0>         0.5935
      9 O1         -1.3530   -0.6329    1.8205 O.2       1 <0>        -0.5168
     10 N2         -1.2877    1.4252    0.9686 N.am      1 <0>        -0.5519
     11 C8         -1.5109    2.7425    1.1153 C.2       1 <0>         0.7067
     12 O2         -1.2440    3.4945    0.1978 O.2       1 <0>        -0.5308
     13 C9         -0.7294    0.9241   -0.2897 C.3       1 <0>         0.0834
     14 N3         -2.4924    0.4607    4.3636 N.pl3     1 <0>        -0.5231
     15 H1         -2.4544   -0.5125    4.5903 H         1 <0>         0.4405
     16 C10        -2.9385    1.4653    5.1680 C.2       1 <0>         0.3490
     17 N4         -2.8371    2.6139    4.5274 N.2       1 <0>        -0.4552
     18 C11        -3.4547    1.2952    6.5407 C.ar      1 <0>        -0.0792
     19 C12        -3.5150    0.0242    7.1156 C.ar      1 <0>        -0.0583
     20 C13        -3.9981   -0.1280    8.3978 C.ar      1 <0>        -0.1574
     21 C14        -4.4243    0.9748    9.1190 C.ar      1 <0>        -0.0531
     22 C15        -4.3699    2.2375    8.5616 C.ar      1 <0>        -0.2154
     23 C16        -3.8815    2.4089    7.2756 C.ar      1 <0>         0.1881
     24 O3         -3.8219    3.6500    6.7289 O.3       1 <0>        -0.2690
     25 C17        -4.3886    4.7207    7.4869 C.3       1 <0>         0.0722
     26 C18        -3.3546    5.2401    8.4878 C.3       1 <0>        -0.1810
     27 C19        -4.7981    5.8529    6.5428 C.3       1 <0>        -0.1460
     28 H2         -2.0650    7.1361    3.5571 H         1 <0>         0.0585
     29 H3         -0.3136    7.3648    3.3367 H         1 <0>         0.0602
     30 H4         -1.3793    7.2314    1.9173 H         1 <0>         0.0583
     31 H5         -0.1492    5.1143    2.3086 H         1 <0>         0.0731
     32 H6         -0.6242    3.7978    4.3555 H         1 <0>         0.0469
     33 H7          0.1274    5.3596    4.7605 H         1 <0>         0.0501
     34 H8         -1.6241    5.1310    4.9809 H         1 <0>         0.0677
     35 H9         -2.4851    5.1042    1.3836 H         1 <0>         0.0984
     36 H10        -3.1020    4.8703    3.0367 H         1 <0>         0.1001
     37 H11        -0.6119   -0.1579   -0.2297 H         1 <0>         0.1030
     38 H12         0.2422    1.3858   -0.4655 H         1 <0>         0.0819
     39 H13        -1.4030    1.1714   -1.1102 H         1 <0>         0.0821
     40 H14        -3.1839   -0.8384    6.5565 H         1 <0>         0.1285
     41 H15        -4.0440   -1.1114    8.8419 H         1 <0>         0.1335
     42 H16        -4.8018    0.8468   10.1228 H         1 <0>         0.1321
     43 H17        -4.7041    3.0928    9.1300 H         1 <0>         0.1394
     44 H18        -5.2658    4.3607    8.0245 H         1 <0>         0.0727
     45 H19        -2.4774    5.6001    7.9502 H         1 <0>         0.0698
     46 H20        -3.7869    6.0568    9.0659 H         1 <0>         0.0726
     47 H21        -3.0628    4.4335    9.1604 H         1 <0>         0.0616
     48 H22        -5.5347    5.4828    5.8297 H         1 <0>         0.0652
     49 H23        -5.2304    6.6696    7.1209 H         1 <0>         0.0756
     50 H24        -3.9209    6.2129    6.0052 H         1 <0>         0.0694
@<TRIPOS>BOND
     1    1    2 1
     2    1   28 1
     3    1   29 1
     4    1   30 1
     5    2    3 1
     6    2    4 1
     7    2   31 1
     8    3   32 1
     9    3   33 1
    10    3   34 1
    11    4    5 1
    12    4   35 1
    13    4   36 1
    14    5   11 am
    15    5    6 1
    16    6   17 1
    17    6    7 2
    18    7    8 1
    19    7   14 1
    20    8    9 2
    21    8   10 am
    22   10   11 am
    23   10   13 1
    24   11   12 2
    25   13   37 1
    26   13   38 1
    27   13   39 1
    28   14   15 1
    29   14   16 1
    30   16   17 2
    31   16   18 1
    32   18   23 ar
    33   18   19 ar
    34   19   20 ar
    35   19   40 1
    36   20   21 ar
    37   20   41 1
    38   21   22 ar
    39   21   42 1
    40   22   23 ar
    41   22   43 1
    42   23   24 1
    43   24   25 1
    44   25   26 1
    45   25   27 1
    46   25   44 1
    47   26   45 1
    48   26   46 1
    49   26   47 1
    50   27   48 1
    51   27   49 1
    52   27   50 1
@<TRIPOS>MOLECULE
ZINC04199923
   50    52     0     0     0
SMALL
USER_CHARGES

@<TRIPOS>ATOM
      1 C1         -1.2058    6.8838    2.9357 C.3       1 <0>        -0.1420
      2 C2         -1.0084    5.3666    2.9300 C.3       1 <0>        -0.1112
      3 C3         -0.7648    4.8787    4.3595 C.3       1 <0>        -0.1397
      4 C4         -2.2607    4.6915    2.3671 C.3       1 <0>         0.1245
      5 N1         -2.0276    3.2499    2.2502 N.am      1 <0>        -0.5055
      6 C5         -2.3339    2.4109    3.3106 C.2       1 <0>         0.3281
      7 C6         -2.1023    1.0458    3.1734 C.2       1 <0>        -0.1512
      8 C7         -1.5649    0.5581    1.9643 C.2       1 <0>         0.5935
      9 O1         -1.3530   -0.6329    1.8205 O.2       1 <0>        -0.5168
     10 N2         -1.2877    1.4252    0.9686 N.am      1 <0>        -0.5519
     11 C8         -1.5109    2.7425    1.1153 C.2       1 <0>         0.7067
     12 O2         -1.2440    3.4945    0.1978 O.2       1 <0>        -0.5308
     13 C9         -0.7294    0.9241   -0.2897 C.3       1 <0>         0.0834
     14 N3         -2.4924    0.4607    4.3636 N.pl3     1 <0>        -0.5231
     15 H1         -2.4544   -0.5125    4.5903 H         1 <0>         0.4405
     16 C10        -2.9385    1.4653    5.1680 C.2       1 <0>         0.3490
     17 N4         -2.8371    2.6139    4.5274 N.2       1 <0>        -0.4552
     18 C11        -3.4547    1.2952    6.5407 C.ar      1 <0>        -0.0792
     19 C12        -3.5150    0.0242    7.1156 C.ar      1 <0>        -0.0583
     20 C13        -3.9981   -0.1280    8.3978 C.ar      1 <0>        -0.1574
     21 C14        -4.4243    0.9748    9.1190 C.ar      1 <0>        -0.0531
     22 C15        -4.3699    2.2375    8.5616 C.ar      1 <0>        -0.2154
     23 C16        -3.8815    2.4089    7.2756 C.ar      1 <0>         0.1881
     24 O3         -3.8219    3.6500    6.7289 O.3       1 <0>        -0.2690
     25 C17        -4.3886    4.7207    7.4869 C.3       1 <0>         0.0722
     26 C18        -3.3546    5.2401    8.4878 C.3       1 <0>        -0.1810
     27 C19        -4.7981    5.8529    6.5428 C.3       1 <0>        -0.1460
     28 H2         -2.0650    7.1361    3.5571 H         1 <0>         0.0585
     29 H3         -0.3136    7.3648    3.3367 H         1 <0>         0.0602
     30 H4         -1.3793    7.2314    1.9173 H         1 <0>         0.0583
     31 H5         -0.1492    5.1143    2.3086 H         1 <0>         0.0731
     32 H6         -0.6242    3.7978    4.3555 H         1 <0>         0.0469
     33 H7          0.1274    5.3596    4.7605 H         1 <0>         0.0501
     34 H8         -1.6241    5.1310    4.9809 H         1 <0>         0.0677
     35 H9         -2.4851    5.1042    1.3836 H         1 <0>         0.0984
     36 H10        -3.1020    4.8703    3.0367 H         1 <0>         0.1001
     37 H11        -0.6119   -0.1579   -0.2297 H         1 <0>         0.1030
     38 H12         0.2422    1.3858   -0.4655 H         1 <0>         0.0819
     39 H13        -1.4030    1.1714   -1.1102 H         1 <0>         0.0821
     40 H14        -3.1839   -0.8384    6.5565 H         1 <0>         0.1285
     41 H15        -4.0440   -1.1114    8.8419 H         1 <0>         0.1335
     42 H16        -4.8018    0.8468   10.1228 H         1 <0>         0.1321
     43 H17        -4.7041    3.0928    9.1300 H         1 <0>         0.1394
     44 H18        -5.2658    4.3607    8.0245 H         1 <0>         0.0727
     45 H19        -2.4774    5.6001    7.9502 H         1 <0>         0.0698
     46 H20        -3.7869    6.0568    9.0659 H         1 <0>         0.0726
     47 H21        -3.0628    4.4335    9.1604 H         1 <0>         0.0616
     48 H22        -5.5347    5.4828    5.8297 H         1 <0>         0.0652
     49 H23        -5.2304    6.6696    7.1209 H         1 <0>         0.0756
     50 H24        -3.9209    6.2129    6.0052 H         1 <0>         0.0694
@<TRIPOS>BOND
     1    1    2 1
     2    1   28 1
     3    1   29 1
     4    1   30 1
     5    2    3 1
     6    2    4 1
     7    2   31 1
     8    3   32 1
     9    3   33 1
    10    3   34 1
    11    4    5 1
    12    4   35 1
    13    4   36 1
    14    5   11 am
    15    5    6 1
    16    6   17 1
    17    6    7 2
    18    7    8 1
    19    7   14 1
    20    8    9 2
    21    8   10 am
    22   10   11 am
    23   10   13 1
    24   11   12 2
    25   13   37 1
    26   13   38 1
    27   13   39 1
    28   14   15 1
    29   14   16 1
    30   16   17 2
    31   16   18 1
    32   18   23 ar
    33   18   19 ar
    34   19   20 ar
    35   19   40 1
    36   20   21 ar
    37   20   41 1
    38   21   22 ar
    39   21   42 1
    40   22   23 ar
    41   22   43 1
    42   23   24 1
    43   24   25 1
    44   25   26 1
    45   25   27 1
    46   25   44 1
    47   26   45 1
    48   26   46 1
    49   26   47 1
    50   27   48 1
    51   27   49 1
    52   27   50 1
@<TRIPOS>MOLECULE
ZINC04199924
   55    57     0     0     0
SMALL
USER_CHARGES

@<TRIPOS>ATOM
      1 C1         -0.0366    1.0992   -2.4903 C.3       1 <0>        -0.1515
      2 C2         -0.7527    1.5927   -1.2315 C.3       1 <0>        -0.1198
      3 C3         -0.0127    1.0858    0.0080 C.3       1 <0>         0.0467
      4 O1         -0.6816    1.5467    1.1837 O.3       1 <0>        -0.2659
      5 C4         -0.1494    1.1825    2.3782 C.ar      1 <0>         0.2396
      6 C5          0.9894    0.3934    2.4213 C.ar      1 <0>        -0.2305
      7 C6          1.5333    0.0283    3.6375 C.ar      1 <0>         0.0463
      8 C7          0.9405    0.4369    4.8205 C.ar      1 <0>        -0.7162
      9 C8         -0.1957    1.2173    4.7955 C.ar      1 <0>         0.0382
     10 C9         -0.7521    1.5979    3.5727 C.ar      1 <0>        -0.0894
     11 C10        -1.9690    2.4332    3.5389 C.2       1 <0>         0.3415
     12 N1         -2.6420    2.8901    4.6313 N.pl3     1 <0>        -0.5201
     13 H1         -2.4081    2.7226    5.5890 H         1 <0>         0.4433
     14 C11        -3.7109    3.6300    4.1609 C.2       1 <0>        -0.1427
     15 C12        -3.6435    3.5810    2.7720 C.2       1 <0>         0.3258
     16 N2         -2.5788    2.8495    2.4459 N.2       1 <0>        -0.4570
     17 N3         -4.6115    4.2435    2.0329 N.am      1 <0>        -0.5056
     18 C13        -5.5935    4.9194    2.6584 C.2       1 <0>         0.7071
     19 O2         -6.4334    5.4946    1.9933 O.2       1 <0>        -0.5247
     20 N4         -5.6694    4.9741    3.9992 N.am      1 <0>        -0.5518
     21 C14        -4.7576    4.3498    4.7731 C.2       1 <0>         0.5929
     22 O3         -4.8375    4.4075    5.9874 O.2       1 <0>        -0.5120
     23 C15        -6.7587    5.7237    4.6299 C.3       1 <0>         0.0832
     24 C16        -4.5651    4.2087    0.5690 C.3       1 <0>         0.1240
     25 C17        -5.3649    3.0071    0.0618 C.3       1 <0>        -0.1095
     26 C18        -6.8419    3.1914    0.4157 C.3       1 <0>        -0.1418
     27 C19        -5.2140    2.8983   -1.4568 C.3       1 <0>        -0.1423
     28 S1          1.6419   -0.0423    6.3643 S.o2      1 <0>         2.7055
     29 O4          3.0143   -0.3171    6.1190 O.2       1 <0>        -0.9581
     30 O5          1.2165    0.9198    7.3197 O.2       1 <0>        -0.9581
     31 N5          0.9411   -1.4794    6.7955 N.pl3     1 <0>        -1.2475
     32 H2         -0.0218    0.0093   -2.4963 H         1 <0>         0.0578
     33 H3         -0.5637    1.4603   -3.3734 H         1 <0>         0.0670
     34 H4          0.9860    1.4765   -2.4981 H         1 <0>         0.0580
     35 H5         -1.7753    1.2154   -1.2238 H         1 <0>         0.0768
     36 H6         -0.7675    2.6825   -1.2255 H         1 <0>         0.0764
     37 H7          0.0021   -0.0041    0.0020 H         1 <0>         0.0689
     38 H8          1.0099    1.4631    0.0003 H         1 <0>         0.0691
     39 H9          1.4546    0.0673    1.5028 H         1 <0>         0.1504
     40 H10         2.4230   -0.5832    3.6659 H         1 <0>         0.1536
     41 H11        -0.6546    1.5340    5.7205 H         1 <0>         0.1482
     42 H12        -6.6631    5.6607    5.7138 H         1 <0>         0.1034
     43 H13        -6.7078    6.7677    4.3208 H         1 <0>         0.0827
     44 H14        -7.7155    5.3005    4.3242 H         1 <0>         0.0824
     45 H15        -4.9963    5.1268    0.1700 H         1 <0>         0.1001
     46 H16        -3.5295    4.1209    0.2403 H         1 <0>         0.0989
     47 H17        -4.9898    2.0971    0.5303 H         1 <0>         0.0744
     48 H18        -7.2169    4.1014   -0.0527 H         1 <0>         0.0645
     49 H19        -7.4117    2.3354    0.0544 H         1 <0>         0.0527
     50 H20        -6.9494    3.2689    1.4976 H         1 <0>         0.0457
     51 H21        -4.1617    2.7670   -1.7089 H         1 <0>         0.0584
     52 H22        -5.7838    2.0423   -1.8182 H         1 <0>         0.0606
     53 H23        -5.5890    3.8083   -1.9253 H         1 <0>         0.0591
     54 H24         1.4374   -2.1206    7.3279 H         1 <0>         0.4235
     55 H25         0.0343   -1.6800    6.5156 H         1 <0>         0.4175
@<TRIPOS>BOND
     1    1    2 1
     2    1   32 1
     3    1   33 1
     4    1   34 1
     5    2    3 1
     6    2   35 1
     7    2   36 1
     8    3    4 1
     9    3   37 1
    10    3   38 1
    11    4    5 1
    12    5   10 ar
    13    5    6 ar
    14    6    7 ar
    15    6   39 1
    16    7    8 ar
    17    7   40 1
    18    8    9 ar
    19    8   28 1
    20    9   10 ar
    21    9   41 1
    22   10   11 1
    23   11   16 2
    24   11   12 1
    25   12   13 1
    26   12   14 1
    27   14   21 1
    28   14   15 2
    29   15   16 1
    30   15   17 1
    31   17   18 am
    32   17   24 1
    33   18   19 2
    34   18   20 am
    35   20   21 am
    36   20   23 1
    37   21   22 2
    38   23   42 1
    39   23   43 1
    40   23   44 1
    41   24   25 1
    42   24   45 1
    43   24   46 1
    44   25   26 1
    45   25   27 1
    46   25   47 1
    47   26   48 1
    48   26   49 1
    49   26   50 1
    50   27   51 1
    51   27   52 1
    52   27   53 1
    53   28   29 2
    54   28   30 2
    55   28   31 1
    56   31   54 1
    57   31   55 1
@<TRIPOS>MOLECULE
ZINC04199924
   55    57     0     0     0
SMALL
USER_CHARGES

@<TRIPOS>ATOM
      1 C1         -0.0366    1.0992   -2.4903 C.3       1 <0>        -0.1515
      2 C2         -0.7527    1.5927   -1.2315 C.3       1 <0>        -0.1198
      3 C3         -0.0127    1.0858    0.0080 C.3       1 <0>         0.0467
      4 O1         -0.6816    1.5467    1.1837 O.3       1 <0>        -0.2659
      5 C4         -0.1494    1.1825    2.3782 C.ar      1 <0>         0.2396
      6 C5          0.9894    0.3934    2.4213 C.ar      1 <0>        -0.2305
      7 C6          1.5333    0.0283    3.6375 C.ar      1 <0>         0.0463
      8 C7          0.9405    0.4369    4.8205 C.ar      1 <0>        -0.7162
      9 C8         -0.1957    1.2173    4.7955 C.ar      1 <0>         0.0382
     10 C9         -0.7521    1.5979    3.5727 C.ar      1 <0>        -0.0894
     11 C10        -1.9690    2.4332    3.5389 C.2       1 <0>         0.3415
     12 N1         -2.6420    2.8901    4.6313 N.pl3     1 <0>        -0.5201
     13 H1         -2.4081    2.7226    5.5890 H         1 <0>         0.4433
     14 C11        -3.7109    3.6300    4.1609 C.2       1 <0>        -0.1427
     15 C12        -3.6435    3.5810    2.7720 C.2       1 <0>         0.3258
     16 N2         -2.5788    2.8495    2.4459 N.2       1 <0>        -0.4570
     17 N3         -4.6115    4.2435    2.0329 N.am      1 <0>        -0.5056
     18 C13        -5.5935    4.9194    2.6584 C.2       1 <0>         0.7071
     19 O2         -6.4334    5.4946    1.9933 O.2       1 <0>        -0.5247
     20 N4         -5.6694    4.9741    3.9992 N.am      1 <0>        -0.5518
     21 C14        -4.7576    4.3498    4.7731 C.2       1 <0>         0.5929
     22 O3         -4.8375    4.4075    5.9874 O.2       1 <0>        -0.5120
     23 C15        -6.7587    5.7237    4.6299 C.3       1 <0>         0.0832
     24 C16        -4.5651    4.2087    0.5690 C.3       1 <0>         0.1240
     25 C17        -5.3649    3.0071    0.0618 C.3       1 <0>        -0.1095
     26 C18        -6.8419    3.1914    0.4157 C.3       1 <0>        -0.1418
     27 C19        -5.2140    2.8983   -1.4568 C.3       1 <0>        -0.1423
     28 S1          1.6419   -0.0423    6.3643 S.o2      1 <0>         2.7055
     29 O4          3.0143   -0.3171    6.1190 O.2       1 <0>        -0.9581
     30 O5          1.2165    0.9198    7.3197 O.2       1 <0>        -0.9581
     31 N5          0.9411   -1.4794    6.7955 N.pl3     1 <0>        -1.2475
     32 H2         -0.0218    0.0093   -2.4963 H         1 <0>         0.0578
     33 H3         -0.5637    1.4603   -3.3734 H         1 <0>         0.0670
     34 H4          0.9860    1.4765   -2.4981 H         1 <0>         0.0580
     35 H5         -1.7753    1.2154   -1.2238 H         1 <0>         0.0768
     36 H6         -0.7675    2.6825   -1.2255 H         1 <0>         0.0764
     37 H7          0.0021   -0.0041    0.0020 H         1 <0>         0.0689
     38 H8          1.0099    1.4631    0.0003 H         1 <0>         0.0691
     39 H9          1.4546    0.0673    1.5028 H         1 <0>         0.1504
     40 H10         2.4230   -0.5832    3.6659 H         1 <0>         0.1536
     41 H11        -0.6546    1.5340    5.7205 H         1 <0>         0.1482
     42 H12        -6.6631    5.6607    5.7138 H         1 <0>         0.1034
     43 H13        -6.7078    6.7677    4.3208 H         1 <0>         0.0827
     44 H14        -7.7155    5.3005    4.3242 H         1 <0>         0.0824
     45 H15        -4.9963    5.1268    0.1700 H         1 <0>         0.1001
     46 H16        -3.5295    4.1209    0.2403 H         1 <0>         0.0989
     47 H17        -4.9898    2.0971    0.5303 H         1 <0>         0.0744
     48 H18        -7.2169    4.1014   -0.0527 H         1 <0>         0.0645
     49 H19        -7.4117    2.3354    0.0544 H         1 <0>         0.0527
     50 H20        -6.9494    3.2689    1.4976 H         1 <0>         0.0457
     51 H21        -4.1617    2.7670   -1.7089 H         1 <0>         0.0584
     52 H22        -5.7838    2.0423   -1.8182 H         1 <0>         0.0606
     53 H23        -5.5890    3.8083   -1.9253 H         1 <0>         0.0591
     54 H24         1.4374   -2.1206    7.3279 H         1 <0>         0.4235
     55 H25         0.0343   -1.6800    6.5156 H         1 <0>         0.4175
@<TRIPOS>BOND
     1    1    2 1
     2    1   32 1
     3    1   33 1
     4    1   34 1
     5    2    3 1
     6    2   35 1
     7    2   36 1
     8    3    4 1
     9    3   37 1
    10    3   38 1
    11    4    5 1
    12    5   10 ar
    13    5    6 ar
    14    6    7 ar
    15    6   39 1
    16    7    8 ar
    17    7   40 1
    18    8    9 ar
    19    8   28 1
    20    9   10 ar
    21    9   41 1
    22   10   11 1
    23   11   16 2
    24   11   12 1
    25   12   13 1
    26   12   14 1
    27   14   21 1
    28   14   15 2
    29   15   16 1
    30   15   17 1
    31   17   18 am
    32   17   24 1
    33   18   19 2
    34   18   20 am
    35   20   21 am
    36   20   23 1
    37   21   22 2
    38   23   42 1
    39   23   43 1
    40   23   44 1
    41   24   25 1
    42   24   45 1
    43   24   46 1
    44   25   26 1
    45   25   27 1
    46   25   47 1
    47   26   48 1
    48   26   49 1
    49   26   50 1
    50   27   51 1
    51   27   52 1
    52   27   53 1
    53   28   29 2
    54   28   30 2
    55   28   31 1
    56   31   54 1
    57   31   55 1
@<TRIPOS>MOLECULE
ZINC04199925
   58    61     0     0     0
SMALL
USER_CHARGES

@<TRIPOS>ATOM
      1 C1         -0.1381   -1.3534    7.0169 C.3       1 <0>        -0.1664
      2 C2          1.2801   -1.7782    6.6306 C.3       1 <0>         0.1165
      3 N1          1.2298   -3.0569    5.9176 N.am      1 <0>        -0.5070
      4 C3          1.0974   -3.0757    4.5384 C.2       1 <0>         0.3561
      5 C4          1.0517   -4.3033    3.8864 C.2       1 <0>        -0.1765
      6 C5          1.1412   -5.4857    4.6420 C.2       1 <0>         0.5962
      7 O1          1.1033   -6.5725    4.0917 O.2       1 <0>        -0.5244
      8 N2          1.2690   -5.4046    5.9825 N.am      1 <0>        -0.5498
      9 C6          1.3117   -4.2129    6.6030 C.2       1 <0>         0.7076
     10 O2          1.4276   -4.1780    7.8130 O.2       1 <0>        -0.5356
     11 C7          1.3621   -6.6338    6.7741 C.3       1 <0>         0.1121
     12 C8         -0.0413   -7.0819    7.1873 C.3       1 <0>        -0.1657
     13 N3          0.9115   -4.0225    2.5338 N.pl3     1 <0>        -0.4421
     14 C9          0.8864   -2.6686    2.4157 C.2       1 <0>         0.5625
     15 N4          0.9942   -2.1231    3.6103 N.2       1 <0>        -0.5354
     16 N5          0.7619   -1.9757    1.2335 N.pl3     1 <0>        -0.6967
     17 C10         0.7421   -0.5109    1.2415 C.3       1 <0>         0.1686
     18 C11         0.0021   -0.0041    0.0020 C.3       1 <0>        -0.1282
     19 C12        -0.0187    1.5258    0.0104 C.3       1 <0>        -0.1146
     20 C13         1.4167    2.0553   -0.0004 C.3       1 <0>        -0.1235
     21 C14         2.1567    1.5485    1.2391 C.3       1 <0>        -0.1165
     22 C15         2.1775    0.0187    1.2307 C.3       1 <0>        -0.1298
     23 C16         0.8131   -4.9970    1.4444 C.3       1 <0>         0.1529
     24 C17         2.1932   -5.3177    0.9310 C.ar      1 <0>        -0.1209
     25 C18         2.7372   -4.5745   -0.0999 C.ar      1 <0>        -0.1007
     26 C19         4.0050   -4.8655   -0.5675 C.ar      1 <0>        -0.1227
     27 C20         4.7248   -5.9064   -0.0113 C.ar      1 <0>        -0.1066
     28 C21         4.1788   -6.6529    1.0161 C.ar      1 <0>        -0.1219
     29 C22         2.9130   -6.3585    1.4872 C.ar      1 <0>        -0.0879
     30 H1         -0.5815   -2.1119    7.6620 H         1 <0>         0.0607
     31 H2         -0.1006   -0.4020    7.5474 H         1 <0>         0.0766
     32 H3         -0.7425   -1.2438    6.1165 H         1 <0>         0.0608
     33 H4          1.8846   -1.8878    7.5310 H         1 <0>         0.0985
     34 H5          1.7236   -1.0197    5.9855 H         1 <0>         0.0973
     35 H6          1.8321   -7.4155    6.1773 H         1 <0>         0.1000
     36 H7          1.9611   -6.4474    7.6655 H         1 <0>         0.1003
     37 H8         -0.6403   -7.2682    6.2959 H         1 <0>         0.0604
     38 H9          0.0280   -7.9965    7.7762 H         1 <0>         0.0776
     39 H10        -0.5113   -6.3002    7.7840 H         1 <0>         0.0613
     40 H11         0.6873   -2.4572    0.3947 H         1 <0>         0.4082
     41 H12         0.2319   -0.1594    2.1383 H         1 <0>         0.0950
     42 H13        -1.0205   -0.3814    0.0098 H         1 <0>         0.0702
     43 H14         0.5123   -0.3556   -0.8948 H         1 <0>         0.0683
     44 H15        -0.5459    1.8868   -0.8726 H         1 <0>         0.0686
     45 H16        -0.5289    1.8773    0.9072 H         1 <0>         0.0671
     46 H17         1.9269    1.7038   -0.8972 H         1 <0>         0.0624
     47 H18         1.4019    3.1452    0.0056 H         1 <0>         0.0650
     48 H19         1.6465    1.9000    2.1359 H         1 <0>         0.0661
     49 H20         3.1793    1.9258    1.2314 H         1 <0>         0.0652
     50 H21         2.7046   -0.3424    2.1137 H         1 <0>         0.0698
     51 H22         2.6876   -0.3328    0.3339 H         1 <0>         0.0621
     52 H23         0.3419   -5.9081    1.8133 H         1 <0>         0.1153
     53 H24         0.2129   -4.5791    0.6362 H         1 <0>         0.0969
     54 H25         2.1730   -3.7641   -0.5374 H         1 <0>         0.1160
     55 H26         4.4315   -4.2825   -1.3704 H         1 <0>         0.1246
     56 H27         5.7136   -6.1366   -0.3796 H         1 <0>         0.1244
     57 H28         4.7410   -7.4664    1.4504 H         1 <0>         0.1250
     58 H29         2.4863   -6.9420    2.2897 H         1 <0>         0.1366
@<TRIPOS>BOND
     1    1    2 1
     2    1   30 1
     3    1   31 1
     4    1   32 1
     5    2    3 1
     6    2   33 1
     7    2   34 1
     8    3    9 am
     9    3    4 1
    10    4   15 1
    11    4    5 2
    12    5    6 1
    13    5   13 1
    14    6    7 2
    15    6    8 am
    16    8    9 am
    17    8   11 1
    18    9   10 2
    19   11   12 1
    20   11   35 1
    21   11   36 1
    22   12   37 1
    23   12   38 1
    24   12   39 1
    25   13   14 1
    26   13   23 1
    27   14   15 2
    28   14   16 1
    29   16   17 1
    30   16   40 1
    31   17   22 1
    32   17   18 1
    33   17   41 1
    34   18   19 1
    35   18   42 1
    36   18   43 1
    37   19   20 1
    38   19   44 1
    39   19   45 1
    40   20   21 1
    41   20   46 1
    42   20   47 1
    43   21   22 1
    44   21   48 1
    45   21   49 1
    46   22   50 1
    47   22   51 1
    48   23   24 1
    49   23   52 1
    50   23   53 1
    51   24   29 ar
    52   24   25 ar
    53   25   26 ar
    54   25   54 1
    55   26   27 ar
    56   26   55 1
    57   27   28 ar
    58   27   56 1
    59   28   29 ar
    60   28   57 1
    61   29   58 1
@<TRIPOS>MOLECULE
ZINC04199925
   58    61     0     0     0
SMALL
USER_CHARGES

@<TRIPOS>ATOM
      1 C1         -0.1381   -1.3534    7.0169 C.3       1 <0>        -0.1664
      2 C2          1.2801   -1.7782    6.6306 C.3       1 <0>         0.1165
      3 N1          1.2298   -3.0569    5.9176 N.am      1 <0>        -0.5070
      4 C3          1.0974   -3.0757    4.5384 C.2       1 <0>         0.3561
      5 C4          1.0517   -4.3033    3.8864 C.2       1 <0>        -0.1765
      6 C5          1.1412   -5.4857    4.6420 C.2       1 <0>         0.5962
      7 O1          1.1033   -6.5725    4.0917 O.2       1 <0>        -0.5244
      8 N2          1.2690   -5.4046    5.9825 N.am      1 <0>        -0.5498
      9 C6          1.3117   -4.2129    6.6030 C.2       1 <0>         0.7076
     10 O2          1.4276   -4.1780    7.8130 O.2       1 <0>        -0.5356
     11 C7          1.3621   -6.6338    6.7741 C.3       1 <0>         0.1121
     12 C8         -0.0413   -7.0819    7.1873 C.3       1 <0>        -0.1657
     13 N3          0.9115   -4.0225    2.5338 N.pl3     1 <0>        -0.4421
     14 C9          0.8864   -2.6686    2.4157 C.2       1 <0>         0.5625
     15 N4          0.9942   -2.1231    3.6103 N.2       1 <0>        -0.5354
     16 N5          0.7619   -1.9757    1.2335 N.pl3     1 <0>        -0.6967
     17 C10         0.7421   -0.5109    1.2415 C.3       1 <0>         0.1686
     18 C11         0.0021   -0.0041    0.0020 C.3       1 <0>        -0.1282
     19 C12        -0.0187    1.5258    0.0104 C.3       1 <0>        -0.1146
     20 C13         1.4167    2.0553   -0.0004 C.3       1 <0>        -0.1235
     21 C14         2.1567    1.5485    1.2391 C.3       1 <0>        -0.1165
     22 C15         2.1775    0.0187    1.2307 C.3       1 <0>        -0.1298
     23 C16         0.8131   -4.9970    1.4444 C.3       1 <0>         0.1529
     24 C17         2.1932   -5.3177    0.9310 C.ar      1 <0>        -0.1209
     25 C18         2.7372   -4.5745   -0.0999 C.ar      1 <0>        -0.1007
     26 C19         4.0050   -4.8655   -0.5675 C.ar      1 <0>        -0.1227
     27 C20         4.7248   -5.9064   -0.0113 C.ar      1 <0>        -0.1066
     28 C21         4.1788   -6.6529    1.0161 C.ar      1 <0>        -0.1219
     29 C22         2.9130   -6.3585    1.4872 C.ar      1 <0>        -0.0879
     30 H1         -0.5815   -2.1119    7.6620 H         1 <0>         0.0607
     31 H2         -0.1006   -0.4020    7.5474 H         1 <0>         0.0766
     32 H3         -0.7425   -1.2438    6.1165 H         1 <0>         0.0608
     33 H4          1.8846   -1.8878    7.5310 H         1 <0>         0.0985
     34 H5          1.7236   -1.0197    5.9855 H         1 <0>         0.0973
     35 H6          1.8321   -7.4155    6.1773 H         1 <0>         0.1000
     36 H7          1.9611   -6.4474    7.6655 H         1 <0>         0.1003
     37 H8         -0.6403   -7.2682    6.2959 H         1 <0>         0.0604
     38 H9          0.0280   -7.9965    7.7762 H         1 <0>         0.0776
     39 H10        -0.5113   -6.3002    7.7840 H         1 <0>         0.0613
     40 H11         0.6873   -2.4572    0.3947 H         1 <0>         0.4082
     41 H12         0.2319   -0.1594    2.1383 H         1 <0>         0.0950
     42 H13        -1.0205   -0.3814    0.0098 H         1 <0>         0.0702
     43 H14         0.5123   -0.3556   -0.8948 H         1 <0>         0.0683
     44 H15        -0.5459    1.8868   -0.8726 H         1 <0>         0.0686
     45 H16        -0.5289    1.8773    0.9072 H         1 <0>         0.0671
     46 H17         1.9269    1.7038   -0.8972 H         1 <0>         0.0624
     47 H18         1.4019    3.1452    0.0056 H         1 <0>         0.0650
     48 H19         1.6465    1.9000    2.1359 H         1 <0>         0.0661
     49 H20         3.1793    1.9258    1.2314 H         1 <0>         0.0652
     50 H21         2.7046   -0.3424    2.1137 H         1 <0>         0.0698
     51 H22         2.6876   -0.3328    0.3339 H         1 <0>         0.0621
     52 H23         0.3419   -5.9081    1.8133 H         1 <0>         0.1153
     53 H24         0.2129   -4.5791    0.6362 H         1 <0>         0.0969
     54 H25         2.1730   -3.7641   -0.5374 H         1 <0>         0.1160
     55 H26         4.4315   -4.2825   -1.3704 H         1 <0>         0.1246
     56 H27         5.7136   -6.1366   -0.3796 H         1 <0>         0.1244
     57 H28         4.7410   -7.4664    1.4504 H         1 <0>         0.1250
     58 H29         2.4863   -6.9420    2.2897 H         1 <0>         0.1366
@<TRIPOS>BOND
     1    1    2 1
     2    1   30 1
     3    1   31 1
     4    1   32 1
     5    2    3 1
     6    2   33 1
     7    2   34 1
     8    3    9 am
     9    3    4 1
    10    4   15 1
    11    4    5 2
    12    5    6 1
    13    5   13 1
    14    6    7 2
    15    6    8 am
    16    8    9 am
    17    8   11 1
    18    9   10 2
    19   11   12 1
    20   11   35 1
    21   11   36 1
    22   12   37 1
    23   12   38 1
    24   12   39 1
    25   13   14 1
    26   13   23 1
    27   14   15 2
    28   14   16 1
    29   16   17 1
    30   16   40 1
    31   17   22 1
    32   17   18 1
    33   17   41 1
    34   18   19 1
    35   18   42 1
    36   18   43 1
    37   19   20 1
    38   19   44 1
    39   19   45 1
    40   20   21 1
    41   20   46 1
    42   20   47 1
    43   21   22 1
    44   21   48 1
    45   21   49 1
    46   22   50 1
    47   22   51 1
    48   23   24 1
    49   23   52 1
    50   23   53 1
    51   24   29 ar
    52   24   25 ar
    53   25   26 ar
    54   25   54 1
    55   26   27 ar
    56   26   55 1
    57   27   28 ar
    58   27   56 1
    59   28   29 ar
    60   28   57 1
    61   29   58 1
@<TRIPOS>MOLECULE
ZINC04199926
   61    65     0     0     0
SMALL
USER_CHARGES

@<TRIPOS>ATOM
      1 C1         -0.9917    6.5011   -1.3997 C.3       1 <0>        -0.1666
      2 C2         -1.1397    6.0102    0.0418 C.3       1 <0>         0.1164
      3 N1         -1.6004    4.6195    0.0393 N.am      1 <0>        -0.5070
      4 C3         -0.6788    3.5849    0.0265 C.2       1 <0>         0.3579
      5 C4         -1.1431    2.2740    0.0191 C.2       1 <0>        -0.1773
      6 C5         -2.5290    2.0366    0.0234 C.2       1 <0>         0.5971
      7 O1         -2.9583    0.8960    0.0201 O.2       1 <0>        -0.5254
      8 N2         -3.3784    3.0846    0.0318 N.am      1 <0>        -0.5495
      9 C6         -2.9192    4.3479    0.0360 C.2       1 <0>         0.7075
     10 O2         -3.7142    5.2680    0.0431 O.2       1 <0>        -0.5351
     11 C7         -4.8232    2.8423    0.0369 C.3       1 <0>         0.1120
     12 C8         -5.3201    2.7514    1.4811 C.3       1 <0>        -0.1660
     13 N3         -0.0178    1.4608    0.0101 N.pl3     1 <0>        -0.4443
     14 C9          1.0619    2.2866    0.0042 C.2       1 <0>         0.5641
     15 N4          0.6544    3.5396    0.0140 N.2       1 <0>        -0.5350
     16 N5          2.3756    1.8778   -0.0098 N.pl3     1 <0>        -0.6964
     17 C10         3.4520    2.8716   -0.0149 C.3       1 <0>         0.1686
     18 C11         3.7283    3.3169   -1.4523 C.3       1 <0>        -0.1303
     19 C12         4.8524    4.3548   -1.4576 C.3       1 <0>        -0.1163
     20 C13         6.1195    3.7372   -0.8625 C.3       1 <0>        -0.1236
     21 C14         5.8432    3.2919    0.5749 C.3       1 <0>        -0.1145
     22 C15         4.7191    2.2540    0.5802 C.3       1 <0>        -0.1287
     23 C16         0.0021   -0.0041    0.0020 C.3       1 <0>         0.1583
     24 C17         0.0218   -0.5140    1.4200 C.ar      1 <0>        -0.1137
     25 C18        -1.1671   -0.7637    2.0799 C.ar      1 <0>        -0.0741
     26 C19        -1.1542   -1.2320    3.3804 C.ar      1 <0>        -0.1020
     27 C20         0.0517   -1.4518    4.0262 C.ar      1 <0>         0.0466
     28 C21         1.2494   -1.2002    3.3615 C.ar      1 <0>         0.0294
     29 C22         1.2288   -0.7365    2.0561 C.ar      1 <0>        -0.0815
     30 O3          2.2845   -1.4923    4.2020 O.3       1 <0>        -0.3069
     31 C23         1.7164   -2.3106    5.2416 C.3       1 <0>         0.2127
     32 O4          0.3365   -1.9016    5.2832 O.3       1 <0>        -0.3065
     33 H1         -1.9552    6.4385   -1.9056 H         1 <0>         0.0609
     34 H2         -0.6489    7.5357   -1.3979 H         1 <0>         0.0765
     35 H3         -0.2657    5.8787   -1.9228 H         1 <0>         0.0610
     36 H4         -1.8657    6.6326    0.5649 H         1 <0>         0.0984
     37 H5         -0.1762    6.0728    0.5476 H         1 <0>         0.0975
     38 H6         -5.3310    3.6622   -0.4711 H         1 <0>         0.1002
     39 H7         -5.0365    1.9067   -0.4803 H         1 <0>         0.1008
     40 H8         -6.3950    2.5710    1.4849 H         1 <0>         0.0776
     41 H9         -4.8123    1.9314    1.9891 H         1 <0>         0.0605
     42 H10        -5.1068    3.6869    1.9983 H         1 <0>         0.0612
     43 H11         2.5891    0.9316   -0.0164 H         1 <0>         0.4082
     44 H12         3.1534    3.7337    0.5816 H         1 <0>         0.0951
     45 H13         4.0269    2.4548   -2.0487 H         1 <0>         0.0624
     46 H14         2.8256    3.7568   -1.8762 H         1 <0>         0.0705
     47 H15         4.5538    5.2169   -0.8611 H         1 <0>         0.0662
     48 H16         5.0492    4.6720   -2.4816 H         1 <0>         0.0654
     49 H17         6.9203    4.4766   -0.8662 H         1 <0>         0.0650
     50 H18         6.4181    2.8751   -1.4589 H         1 <0>         0.0625
     51 H19         5.5446    4.1540    1.1713 H         1 <0>         0.0669
     52 H20         6.7459    2.8519    0.9989 H         1 <0>         0.0686
     53 H21         4.5222    1.9368    1.6043 H         1 <0>         0.0705
     54 H22         5.0177    1.3919   -0.0162 H         1 <0>         0.0685
     55 H23        -0.8875   -0.3767   -0.5057 H         1 <0>         0.1212
     56 H24         0.8922   -0.3525   -0.5218 H         1 <0>         0.1003
     57 H25        -2.1081   -0.5922    1.5783 H         1 <0>         0.1523
     58 H26        -2.0845   -1.4262    3.8935 H         1 <0>         0.1399
     59 H27         2.1561   -0.5448    1.5367 H         1 <0>         0.1301
     60 H28         1.7952   -3.3668    4.9838 H         1 <0>         0.0875
     61 H29         2.2040   -2.1109    6.1958 H         1 <0>         0.1344
@<TRIPOS>BOND
     1    1    2 1
     2    1   33 1
     3    1   34 1
     4    1   35 1
     5    2    3 1
     6    2   36 1
     7    2   37 1
     8    3    9 am
     9    3    4 1
    10    4   15 1
    11    4    5 2
    12    5    6 1
    13    5   13 1
    14    6    7 2
    15    6    8 am
    16    8    9 am
    17    8   11 1
    18    9   10 2
    19   11   12 1
    20   11   38 1
    21   11   39 1
    22   12   40 1
    23   12   41 1
    24   12   42 1
    25   13   14 1
    26   13   23 1
    27   14   15 2
    28   14   16 1
    29   16   17 1
    30   16   43 1
    31   17   22 1
    32   17   18 1
    33   17   44 1
    34   18   19 1
    35   18   45 1
    36   18   46 1
    37   19   20 1
    38   19   47 1
    39   19   48 1
    40   20   21 1
    41   20   49 1
    42   20   50 1
    43   21   22 1
    44   21   51 1
    45   21   52 1
    46   22   53 1
    47   22   54 1
    48   23   24 1
    49   23   55 1
    50   23   56 1
    51   24   29 ar
    52   24   25 ar
    53   25   26 ar
    54   25   57 1
    55   26   27 ar
    56   26   58 1
    57   27   32 1
    58   27   28 ar
    59   28   29 ar
    60   28   30 1
    61   29   59 1
    62   30   31 1
    63   31   32 1
    64   31   60 1
    65   31   61 1
@<TRIPOS>MOLECULE
ZINC04199926
   61    65     0     0     0
SMALL
USER_CHARGES

@<TRIPOS>ATOM
      1 C1         -0.9917    6.5011   -1.3997 C.3       1 <0>        -0.1666
      2 C2         -1.1397    6.0102    0.0418 C.3       1 <0>         0.1164
      3 N1         -1.6004    4.6195    0.0393 N.am      1 <0>        -0.5070
      4 C3         -0.6788    3.5849    0.0265 C.2       1 <0>         0.3579
      5 C4         -1.1431    2.2740    0.0191 C.2       1 <0>        -0.1773
      6 C5         -2.5290    2.0366    0.0234 C.2       1 <0>         0.5971
      7 O1         -2.9583    0.8960    0.0201 O.2       1 <0>        -0.5254
      8 N2         -3.3784    3.0846    0.0318 N.am      1 <0>        -0.5495
      9 C6         -2.9192    4.3479    0.0360 C.2       1 <0>         0.7075
     10 O2         -3.7142    5.2680    0.0431 O.2       1 <0>        -0.5351
     11 C7         -4.8232    2.8423    0.0369 C.3       1 <0>         0.1120
     12 C8         -5.3201    2.7514    1.4811 C.3       1 <0>        -0.1660
     13 N3         -0.0178    1.4608    0.0101 N.pl3     1 <0>        -0.4443
     14 C9          1.0619    2.2866    0.0042 C.2       1 <0>         0.5641
     15 N4          0.6544    3.5396    0.0140 N.2       1 <0>        -0.5350
     16 N5          2.3756    1.8778   -0.0098 N.pl3     1 <0>        -0.6964
     17 C10         3.4520    2.8716   -0.0149 C.3       1 <0>         0.1686
     18 C11         3.7283    3.3169   -1.4523 C.3       1 <0>        -0.1303
     19 C12         4.8524    4.3548   -1.4576 C.3       1 <0>        -0.1163
     20 C13         6.1195    3.7372   -0.8625 C.3       1 <0>        -0.1236
     21 C14         5.8432    3.2919    0.5749 C.3       1 <0>        -0.1145
     22 C15         4.7191    2.2540    0.5802 C.3       1 <0>        -0.1287
     23 C16         0.0021   -0.0041    0.0020 C.3       1 <0>         0.1583
     24 C17         0.0218   -0.5140    1.4200 C.ar      1 <0>        -0.1137
     25 C18        -1.1671   -0.7637    2.0799 C.ar      1 <0>        -0.0741
     26 C19        -1.1542   -1.2320    3.3804 C.ar      1 <0>        -0.1020
     27 C20         0.0517   -1.4518    4.0262 C.ar      1 <0>         0.0466
     28 C21         1.2494   -1.2002    3.3615 C.ar      1 <0>         0.0294
     29 C22         1.2288   -0.7365    2.0561 C.ar      1 <0>        -0.0815
     30 O3          2.2845   -1.4923    4.2020 O.3       1 <0>        -0.3069
     31 C23         1.7164   -2.3106    5.2416 C.3       1 <0>         0.2127
     32 O4          0.3365   -1.9016    5.2832 O.3       1 <0>        -0.3065
     33 H1         -1.9552    6.4385   -1.9056 H         1 <0>         0.0609
     34 H2         -0.6489    7.5357   -1.3979 H         1 <0>         0.0765
     35 H3         -0.2657    5.8787   -1.9228 H         1 <0>         0.0610
     36 H4         -1.8657    6.6326    0.5649 H         1 <0>         0.0984
     37 H5         -0.1762    6.0728    0.5476 H         1 <0>         0.0975
     38 H6         -5.3310    3.6622   -0.4711 H         1 <0>         0.1002
     39 H7         -5.0365    1.9067   -0.4803 H         1 <0>         0.1008
     40 H8         -6.3950    2.5710    1.4849 H         1 <0>         0.0776
     41 H9         -4.8123    1.9314    1.9891 H         1 <0>         0.0605
     42 H10        -5.1068    3.6869    1.9983 H         1 <0>         0.0612
     43 H11         2.5891    0.9316   -0.0164 H         1 <0>         0.4082
     44 H12         3.1534    3.7337    0.5816 H         1 <0>         0.0951
     45 H13         4.0269    2.4548   -2.0487 H         1 <0>         0.0624
     46 H14         2.8256    3.7568   -1.8762 H         1 <0>         0.0705
     47 H15         4.5538    5.2169   -0.8611 H         1 <0>         0.0662
     48 H16         5.0492    4.6720   -2.4816 H         1 <0>         0.0654
     49 H17         6.9203    4.4766   -0.8662 H         1 <0>         0.0650
     50 H18         6.4181    2.8751   -1.4589 H         1 <0>         0.0625
     51 H19         5.5446    4.1540    1.1713 H         1 <0>         0.0669
     52 H20         6.7459    2.8519    0.9989 H         1 <0>         0.0686
     53 H21         4.5222    1.9368    1.6043 H         1 <0>         0.0705
     54 H22         5.0177    1.3919   -0.0162 H         1 <0>         0.0685
     55 H23        -0.8875   -0.3767   -0.5057 H         1 <0>         0.1212
     56 H24         0.8922   -0.3525   -0.5218 H         1 <0>         0.1003
     57 H25        -2.1081   -0.5922    1.5783 H         1 <0>         0.1523
     58 H26        -2.0845   -1.4262    3.8935 H         1 <0>         0.1399
     59 H27         2.1561   -0.5448    1.5367 H         1 <0>         0.1301
     60 H28         1.7952   -3.3668    4.9838 H         1 <0>         0.0875
     61 H29         2.2040   -2.1109    6.1958 H         1 <0>         0.1344
@<TRIPOS>BOND
     1    1    2 1
     2    1   33 1
     3    1   34 1
     4    1   35 1
     5    2    3 1
     6    2   36 1
     7    2   37 1
     8    3    9 am
     9    3    4 1
    10    4   15 1
    11    4    5 2
    12    5    6 1
    13    5   13 1
    14    6    7 2
    15    6    8 am
    16    8    9 am
    17    8   11 1
    18    9   10 2
    19   11   12 1
    20   11   38 1
    21   11   39 1
    22   12   40 1
    23   12   41 1
    24   12   42 1
    25   13   14 1
    26   13   23 1
    27   14   15 2
    28   14   16 1
    29   16   17 1
    30   16   43 1
    31   17   22 1
    32   17   18 1
    33   17   44 1
    34   18   19 1
    35   18   45 1
    36   18   46 1
    37   19   20 1
    38   19   47 1
    39   19   48 1
    40   20   21 1
    41   20   49 1
    42   20   50 1
    43   21   22 1
    44   21   51 1
    45   21   52 1
    46   22   53 1
    47   22   54 1
    48   23   24 1
    49   23   55 1
    50   23   56 1
    51   24   29 ar
    52   24   25 ar
    53   25   26 ar
    54   25   57 1
    55   26   27 ar
    56   26   58 1
    57   27   32 1
    58   27   28 ar
    59   28   29 ar
    60   28   30 1
    61   29   59 1
    62   30   31 1
    63   31   32 1
    64   31   60 1
    65   31   61 1
@<TRIPOS>MOLECULE
ZINC04199927
   56    59     0     0     0
SMALL
USER_CHARGES

@<TRIPOS>ATOM
      1 C1         -4.8234    3.0214    5.7001 C.3       1 <0>        -0.1668
      2 C2         -3.5766    2.1348    5.7155 C.3       1 <0>         0.1162
      3 N1         -3.4137    1.4983    4.4061 N.am      1 <0>        -0.5070
      4 C3         -2.6717    2.1264    3.4186 C.2       1 <0>         0.3593
      5 C4         -2.5376    1.5029    2.1827 C.2       1 <0>        -0.1782
      6 C5         -3.1574    0.2589    1.9705 C.2       1 <0>         0.5973
      7 O1         -3.0504   -0.3072    0.8965 O.2       1 <0>        -0.5262
      8 N2         -3.8715   -0.3019    2.9683 N.am      1 <0>        -0.5494
      9 C6         -3.9977    0.3107    4.1581 C.2       1 <0>         0.7075
     10 O2         -4.6487   -0.2246    5.0347 O.2       1 <0>        -0.5342
     11 C7         -4.5187   -1.5982    2.7520 C.3       1 <0>         0.1119
     12 C8         -3.5576   -2.7206    3.1487 C.3       1 <0>        -0.1660
     13 N3         -1.7526    2.3430    1.4043 N.pl3     1 <0>        -0.4452
     14 C9         -1.4540    3.4234    2.1733 C.2       1 <0>         0.5632
     15 N4         -2.0048    3.2802    3.3617 N.2       1 <0>        -0.5344
     16 N5         -0.6942    4.4986    1.7733 N.pl3     1 <0>        -0.6938
     17 C10        -0.4443    5.6045    2.7011 C.3       1 <0>         0.1626
     18 C11        -1.5876    6.6364    2.6134 C.3       1 <0>        -0.1355
     19 C12        -0.8769    8.0042    2.7736 C.3       1 <0>        -0.1252
     20 C13         0.4435    7.7979    1.9908 C.3       1 <0>        -0.1249
     21 C14         0.8467    6.3426    2.3058 C.3       1 <0>        -0.1330
     22 C15        -1.3327    2.1126    0.0198 C.3       1 <0>         0.1541
     23 C16        -0.0167    1.3784    0.0096 C.ar      1 <0>        -0.1011
     24 C17         0.0021   -0.0041    0.0020 C.ar      1 <0>        -0.0805
     25 C18         1.2068   -0.6806   -0.0131 C.ar      1 <0>        -0.1176
     26 C19         2.3989    0.0276   -0.0207 C.ar      1 <0>         0.0887
     27 C20         2.3786    1.4165   -0.0130 C.ar      1 <0>         0.0725
     28 C21         1.1696    2.0885    0.0021 C.ar      1 <0>        -0.1213
     29 F1          3.5380    2.1101   -0.0208 F         1 <0>        -0.1293
     30 O3          3.5853   -0.6361   -0.0360 O.3       1 <0>        -0.4867
     31 H1         -4.7138    3.7891    4.9341 H         1 <0>         0.0610
     32 H2         -5.7000    2.4119    5.4809 H         1 <0>         0.0610
     33 H3         -4.9445    3.4949    6.6744 H         1 <0>         0.0769
     34 H4         -3.6861    1.3671    6.4815 H         1 <0>         0.0988
     35 H5         -2.7000    2.7443    5.9348 H         1 <0>         0.0978
     36 H6         -5.4207   -1.6601    3.3610 H         1 <0>         0.1005
     37 H7         -4.7831   -1.7012    1.6996 H         1 <0>         0.1008
     38 H8         -4.0392   -3.6851    2.9877 H         1 <0>         0.0779
     39 H9         -2.6557   -2.6587    2.5397 H         1 <0>         0.0602
     40 H10        -3.2932   -2.6176    4.2011 H         1 <0>         0.0614
     41 H11        -0.3241    4.5243    0.8771 H         1 <0>         0.4079
     42 H12        -0.3608    5.2254    3.7196 H         1 <0>         0.0987
     43 H13        -2.0831    6.5754    1.6444 H         1 <0>         0.0694
     44 H14        -2.3043    6.4812    3.4198 H         1 <0>         0.0751
     45 H15        -0.6746    8.2129    3.8242 H         1 <0>         0.0713
     46 H16        -1.4700    8.8024    2.3273 H         1 <0>         0.0698
     47 H17         1.2080    8.4904    2.3431 H         1 <0>         0.0705
     48 H18         0.2766    7.9245    0.9211 H         1 <0>         0.0670
     49 H19         1.5565    6.3224    3.1328 H         1 <0>         0.0802
     50 H20         1.2873    5.8779    1.4237 H         1 <0>         0.0702
     51 H21        -1.2187    3.0696   -0.4894 H         1 <0>         0.1010
     52 H22        -2.0860    1.5153   -0.4937 H         1 <0>         0.1217
     53 H23        -0.9262   -0.5560    0.0083 H         1 <0>         0.1492
     54 H24         1.2200   -1.7605   -0.0194 H         1 <0>         0.1438
     55 H25         1.1522    3.1684    0.0081 H         1 <0>         0.1345
     56 H26         3.9200   -0.8231   -0.9238 H         1 <0>         0.3965
@<TRIPOS>BOND
     1    1    2 1
     2    1   31 1
     3    1   32 1
     4    1   33 1
     5    2    3 1
     6    2   34 1
     7    2   35 1
     8    3    9 am
     9    3    4 1
    10    4   15 1
    11    4    5 2
    12    5    6 1
    13    5   13 1
    14    6    7 2
    15    6    8 am
    16    8    9 am
    17    8   11 1
    18    9   10 2
    19   11   12 1
    20   11   36 1
    21   11   37 1
    22   12   38 1
    23   12   39 1
    24   12   40 1
    25   13   14 1
    26   13   22 1
    27   14   15 2
    28   14   16 1
    29   16   17 1
    30   16   41 1
    31   17   21 1
    32   17   18 1
    33   17   42 1
    34   18   19 1
    35   18   43 1
    36   18   44 1
    37   19   20 1
    38   19   45 1
    39   19   46 1
    40   20   21 1
    41   20   47 1
    42   20   48 1
    43   21   49 1
    44   21   50 1
    45   22   23 1
    46   22   51 1
    47   22   52 1
    48   23   28 ar
    49   23   24 ar
    50   24   25 ar
    51   24   53 1
    52   25   26 ar
    53   25   54 1
    54   26   27 ar
    55   26   30 1
    56   27   28 ar
    57   27   29 1
    58   28   55 1
    59   30   56 1
@<TRIPOS>MOLECULE
ZINC04199927
   56    59     0     0     0
SMALL
USER_CHARGES

@<TRIPOS>ATOM
      1 C1         -4.8234    3.0214    5.7001 C.3       1 <0>        -0.1668
      2 C2         -3.5766    2.1348    5.7155 C.3       1 <0>         0.1162
      3 N1         -3.4137    1.4983    4.4061 N.am      1 <0>        -0.5070
      4 C3         -2.6717    2.1264    3.4186 C.2       1 <0>         0.3593
      5 C4         -2.5376    1.5029    2.1827 C.2       1 <0>        -0.1782
      6 C5         -3.1574    0.2589    1.9705 C.2       1 <0>         0.5973
      7 O1         -3.0504   -0.3072    0.8965 O.2       1 <0>        -0.5262
      8 N2         -3.8715   -0.3019    2.9683 N.am      1 <0>        -0.5494
      9 C6         -3.9977    0.3107    4.1581 C.2       1 <0>         0.7075
     10 O2         -4.6487   -0.2246    5.0347 O.2       1 <0>        -0.5342
     11 C7         -4.5187   -1.5982    2.7520 C.3       1 <0>         0.1119
     12 C8         -3.5576   -2.7206    3.1487 C.3       1 <0>        -0.1660
     13 N3         -1.7526    2.3430    1.4043 N.pl3     1 <0>        -0.4452
     14 C9         -1.4540    3.4234    2.1733 C.2       1 <0>         0.5632
     15 N4         -2.0048    3.2802    3.3617 N.2       1 <0>        -0.5344
     16 N5         -0.6942    4.4986    1.7733 N.pl3     1 <0>        -0.6938
     17 C10        -0.4443    5.6045    2.7011 C.3       1 <0>         0.1626
     18 C11        -1.5876    6.6364    2.6134 C.3       1 <0>        -0.1355
     19 C12        -0.8769    8.0042    2.7736 C.3       1 <0>        -0.1252
     20 C13         0.4435    7.7979    1.9908 C.3       1 <0>        -0.1249
     21 C14         0.8467    6.3426    2.3058 C.3       1 <0>        -0.1330
     22 C15        -1.3327    2.1126    0.0198 C.3       1 <0>         0.1541
     23 C16        -0.0167    1.3784    0.0096 C.ar      1 <0>        -0.1011
     24 C17         0.0021   -0.0041    0.0020 C.ar      1 <0>        -0.0805
     25 C18         1.2068   -0.6806   -0.0131 C.ar      1 <0>        -0.1176
     26 C19         2.3989    0.0276   -0.0207 C.ar      1 <0>         0.0887
     27 C20         2.3786    1.4165   -0.0130 C.ar      1 <0>         0.0725
     28 C21         1.1696    2.0885    0.0021 C.ar      1 <0>        -0.1213
     29 F1          3.5380    2.1101   -0.0208 F         1 <0>        -0.1293
     30 O3          3.5853   -0.6361   -0.0360 O.3       1 <0>        -0.4867
     31 H1         -4.7138    3.7891    4.9341 H         1 <0>         0.0610
     32 H2         -5.7000    2.4119    5.4809 H         1 <0>         0.0610
     33 H3         -4.9445    3.4949    6.6744 H         1 <0>         0.0769
     34 H4         -3.6861    1.3671    6.4815 H         1 <0>         0.0988
     35 H5         -2.7000    2.7443    5.9348 H         1 <0>         0.0978
     36 H6         -5.4207   -1.6601    3.3610 H         1 <0>         0.1005
     37 H7         -4.7831   -1.7012    1.6996 H         1 <0>         0.1008
     38 H8         -4.0392   -3.6851    2.9877 H         1 <0>         0.0779
     39 H9         -2.6557   -2.6587    2.5397 H         1 <0>         0.0602
     40 H10        -3.2932   -2.6176    4.2011 H         1 <0>         0.0614
     41 H11        -0.3241    4.5243    0.8771 H         1 <0>         0.4079
     42 H12        -0.3608    5.2254    3.7196 H         1 <0>         0.0987
     43 H13        -2.0831    6.5754    1.6444 H         1 <0>         0.0694
     44 H14        -2.3043    6.4812    3.4198 H         1 <0>         0.0751
     45 H15        -0.6746    8.2129    3.8242 H         1 <0>         0.0713
     46 H16        -1.4700    8.8024    2.3273 H         1 <0>         0.0698
     47 H17         1.2080    8.4904    2.3431 H         1 <0>         0.0705
     48 H18         0.2766    7.9245    0.9211 H         1 <0>         0.0670
     49 H19         1.5565    6.3224    3.1328 H         1 <0>         0.0802
     50 H20         1.2873    5.8779    1.4237 H         1 <0>         0.0702
     51 H21        -1.2187    3.0696   -0.4894 H         1 <0>         0.1010
     52 H22        -2.0860    1.5153   -0.4937 H         1 <0>         0.1217
     53 H23        -0.9262   -0.5560    0.0083 H         1 <0>         0.1492
     54 H24         1.2200   -1.7605   -0.0194 H         1 <0>         0.1438
     55 H25         1.1522    3.1684    0.0081 H         1 <0>         0.1345
     56 H26         3.9200   -0.8231   -0.9238 H         1 <0>         0.3965
@<TRIPOS>BOND
     1    1    2 1
     2    1   31 1
     3    1   32 1
     4    1   33 1
     5    2    3 1
     6    2   34 1
     7    2   35 1
     8    3    9 am
     9    3    4 1
    10    4   15 1
    11    4    5 2
    12    5    6 1
    13    5   13 1
    14    6    7 2
    15    6    8 am
    16    8    9 am
    17    8   11 1
    18    9   10 2
    19   11   12 1
    20   11   36 1
    21   11   37 1
    22   12   38 1
    23   12   39 1
    24   12   40 1
    25   13   14 1
    26   13   22 1
    27   14   15 2
    28   14   16 1
    29   16   17 1
    30   16   41 1
    31   17   21 1
    32   17   18 1
    33   17   42 1
    34   18   19 1
    35   18   43 1
    36   18   44 1
    37   19   20 1
    38   19   45 1
    39   19   46 1
    40   20   21 1
    41   20   47 1
    42   20   48 1
    43   21   49 1
    44   21   50 1
    45   22   23 1
    46   22   51 1
    47   22   52 1
    48   23   28 ar
    49   23   24 ar
    50   24   25 ar
    51   24   53 1
    52   25   26 ar
    53   25   54 1
    54   26   27 ar
    55   26   30 1
    56   27   28 ar
    57   27   29 1
    58   28   55 1
    59   30   56 1
@<TRIPOS>MOLECULE
ZINC04199928
   79    84     0     0     0
SMALL
USER_CHARGES

@<TRIPOS>ATOM
      1 C1          3.6787   -2.3961    0.0002 C.3       1 <0>        -0.1533
      2 C2          3.7352   -0.8672    0.0061 C.3       1 <0>        -0.1235
      3 C3          2.3131   -0.3044    0.0484 C.3       1 <0>         0.0423
      4 O1          2.3659    1.1236    0.0539 O.3       1 <0>        -0.2548
      5 C4          1.1809    1.7838    0.0901 C.ar      1 <0>         0.2551
      6 C5         -0.0104    1.0752    0.1198 C.ar      1 <0>        -0.2302
      7 C6         -1.2159    1.7483    0.1514 C.ar      1 <0>         0.0480
      8 C7         -1.2451    3.1332    0.1652 C.ar      1 <0>        -0.7263
      9 C8         -0.0705    3.8536    0.1360 C.ar      1 <0>         0.0428
     10 C9          1.1557    3.1852    0.0982 C.ar      1 <0>        -0.1256
     11 C10         2.4167    3.9499    0.0663 C.2       1 <0>         0.4431
     12 N1          2.3635    5.3155    0.0694 N.am      1 <0>        -0.6450
     13 H1          1.4771    5.7781    0.0884 H         1 <0>         0.4177
     14 C11         3.5008    6.0446    0.0469 C.2       1 <0>         0.5558
     15 O2          3.4627    7.2625    0.0543 O.2       1 <0>        -0.5299
     16 C12         4.7416    5.3551    0.0076 C.ar      1 <0>        -0.2675
     17 C13         6.0059    6.0792   -0.0242 C.ar      1 <0>         0.3014
     18 C14         7.1949    5.4242   -0.0622 C.ar      1 <0>        -0.2360
     19 C15         7.2510    4.0109   -0.0716 C.ar      1 <0>         0.1809
     20 C16         6.0035    3.2333   -0.0398 C.ar      1 <0>        -0.2374
     21 C17         4.7274    3.9484    0.0007 C.ar      1 <0>         0.2996
     22 N2          3.5574    3.2968    0.0305 N.2       1 <0>        -0.4854
     23 C18         6.3672    1.9044   -0.0572 C.2       1 <0>         0.1358
     24 N3          7.7059    1.8438   -0.0960 N.pl3     1 <0>        -0.4412
     25 H2          8.2424    1.0001   -0.1158 H         1 <0>         0.4532
     26 N4          8.2406    3.1365   -0.1047 N.2       1 <0>        -0.3128
     27 N5          5.9945    7.4722   -0.0157 N.pl3     1 <0>        -0.7239
     28 C19         7.2535    8.2143    0.0864 C.3       1 <0>         0.1602
     29 C20         6.9668    9.6938    0.0742 C.ar      1 <0>        -0.1182
     30 C21         6.9332   10.3809   -1.1249 C.ar      1 <0>        -0.0702
     31 C22         6.6657   11.7367   -1.1377 C.ar      1 <0>        -0.1567
     32 C23         6.4417   12.4089    0.0519 C.ar      1 <0>         0.1077
     33 C24         6.4809   11.7206    1.2527 C.ar      1 <0>        -0.1549
     34 C25         6.7434   10.3638    1.2626 C.ar      1 <0>        -0.0678
     35 F1          6.1847   13.7352    0.0410 F         1 <0>        -0.1369
     36 S1         -2.7909    3.9775    0.2129 S.o2      1 <0>         2.7079
     37 O3         -3.7284    3.0762    0.7855 O.2       1 <0>        -0.9280
     38 O4         -2.5351    5.2623    0.7635 O.2       1 <0>        -0.9371
     39 N6         -3.2647    4.2204   -1.3552 N.pl3     1 <0>        -1.0125
     40 C26        -4.0850    3.2951   -2.1580 C.3       1 <0>         0.1183
     41 C27        -3.7344    3.6292   -3.6295 C.3       1 <0>        -0.1476
     42 C28        -3.5679    5.1706   -3.5678 C.3       1 <0>         0.0144
     43 H3         -4.5360    5.6662   -3.6400 H         1 <0>         0.1613
     44 C29        -2.9424    5.3973   -2.1752 C.3       1 <0>         0.1039
     45 C30        -3.2061    5.3208   -5.9572 C.3       1 <0>        -0.0433
     46 C31        -2.4024    7.0781   -4.4982 C.3       1 <0>        -0.0500
     47 H4          4.6918   -2.7971   -0.0300 H         1 <0>         0.0693
     48 H5          3.1767   -2.7446    0.9028 H         1 <0>         0.0605
     49 H6          3.1272   -2.7359   -0.8765 H         1 <0>         0.0589
     50 H7          4.2372   -0.5187   -0.8965 H         1 <0>         0.0768
     51 H8          4.2867   -0.5274    0.8828 H         1 <0>         0.0783
     52 H9          1.8112   -0.6529    0.9510 H         1 <0>         0.0728
     53 H10         1.7617   -0.6442   -0.8282 H         1 <0>         0.0707
     54 H11         0.0043   -0.0047    0.1138 H         1 <0>         0.1533
     55 H12        -2.1413    1.1917    0.1695 H         1 <0>         0.1521
     56 H13        -0.0980    4.9332    0.1420 H         1 <0>         0.1451
     57 H14         8.1132    5.9920   -0.0853 H         1 <0>         0.1338
     58 H15         5.6931    1.0608   -0.0419 H         1 <0>         0.1876
     59 H16         5.1530    7.9507   -0.0774 H         1 <0>         0.4168
     60 H17         7.7570    7.9495    1.0161 H         1 <0>         0.0761
     61 H18         7.8939    7.9614   -0.7586 H         1 <0>         0.0757
     62 H19         7.1120    9.8572   -2.0523 H         1 <0>         0.1342
     63 H20         6.6354   12.2726   -2.0749 H         1 <0>         0.1377
     64 H21         6.3060   12.2438    2.1812 H         1 <0>         0.1387
     65 H22         6.7736    9.8267    2.1991 H         1 <0>         0.1351
     66 H23        -3.8233    2.2617   -1.9309 H         1 <0>         0.1001
     67 H24        -5.1448    3.4674   -1.9703 H         1 <0>         0.0943
     68 H25        -2.8035    3.1474   -3.9284 H         1 <0>         0.0995
     69 H26        -4.5486    3.3501   -4.2982 H         1 <0>         0.1166
     70 H27        -3.3632    6.2934   -1.7191 H         1 <0>         0.1103
     71 H28        -1.8612    5.4992   -2.2686 H         1 <0>         0.0831
     72 H29        -4.1740    5.8064   -6.0817 H         1 <0>         0.1264
     73 H30        -2.5188    5.6784   -6.7239 H         1 <0>         0.1256
     74 H31        -3.3263    4.2416   -6.0517 H         1 <0>         0.1225
     75 H32        -1.9382    7.2764   -3.5321 H         1 <0>         0.1229
     76 H33        -1.7321    7.3984   -5.2959 H         1 <0>         0.1270
     77 H34        -3.3411    7.6274   -4.5699 H         1 <0>         0.1284
     78 N7         -2.6410    5.6250   -4.6257 N.4       1 <0>        -0.3935
     79 H35        -1.7476    5.1299   -4.5215 H         1 <0>         0.4297
@<TRIPOS>BOND
     1    1    2 1
     2    1   47 1
     3    1   48 1
     4    1   49 1
     5    2    3 1
     6    2   50 1
     7    2   51 1
     8    3    4 1
     9    3   52 1
    10    3   53 1
    11    4    5 1
    12    5   10 ar
    13    5    6 ar
    14    6    7 ar
    15    6   54 1
    16    7    8 ar
    17    7   55 1
    18    8    9 ar
    19    8   36 1
    20    9   10 ar
    21    9   56 1
    22   10   11 1
    23   11   22 2
    24   11   12 1
    25   12   13 1
    26   12   14 am
    27   14   15 2
    28   14   16 1
    29   16   21 ar
    30   16   17 ar
    31   17   18 ar
    32   17   27 1
    33   18   19 ar
    34   18   57 1
    35   19   26 2
    36   19   20 ar
    37   20   21 ar
    38   20   23 2
    39   21   22 1
    40   23   24 1
    41   23   58 1
    42   24   25 1
    43   24   26 1
    44   27   28 1
    45   27   59 1
    46   28   29 1
    47   28   60 1
    48   28   61 1
    49   29   34 ar
    50   29   30 ar
    51   30   31 ar
    52   30   62 1
    53   31   32 ar
    54   31   63 1
    55   32   33 ar
    56   32   35 1
    57   33   34 ar
    58   33   64 1
    59   34   65 1
    60   36   37 2
    61   36   38 2
    62   36   39 1
    63   39   44 1
    64   39   40 1
    65   40   41 1
    66   40   66 1
    67   40   67 1
    68   41   42 1
    69   41   68 1
    70   41   69 1
    71   42   43 1
    72   42   44 1
    73   42   78 1
    74   44   70 1
    75   44   71 1
    76   45   72 1
    77   45   73 1
    78   45   74 1
    79   45   78 1
    80   46   75 1
    81   46   76 1
    82   46   77 1
    83   46   78 1
    84   78   79 1
@<TRIPOS>MOLECULE
ZINC04199928
   79    84     0     0     0
SMALL
USER_CHARGES

@<TRIPOS>ATOM
      1 C1          3.6787   -2.3961    0.0002 C.3       1 <0>        -0.1523
      2 C2          3.7352   -0.8672    0.0061 C.3       1 <0>        -0.1237
      3 C3          2.3131   -0.3044    0.0484 C.3       1 <0>         0.0429
      4 O1          2.3659    1.1236    0.0539 O.3       1 <0>        -0.2529
      5 C4          1.1809    1.7838    0.0901 C.ar      1 <0>         0.2563
      6 C5         -0.0104    1.0752    0.1198 C.ar      1 <0>        -0.2305
      7 C6         -1.2159    1.7483    0.1514 C.ar      1 <0>         0.0481
      8 C7         -1.2451    3.1332    0.1652 C.ar      1 <0>        -0.7275
      9 C8         -0.0705    3.8536    0.1360 C.ar      1 <0>         0.0431
     10 C9          1.1557    3.1852    0.0982 C.ar      1 <0>        -0.1271
     11 C10         2.4167    3.9499    0.0663 C.2       1 <0>         0.4466
     12 N1          2.3635    5.3155    0.0694 N.am      1 <0>        -0.6490
     13 H1          1.4771    5.7781    0.0884 H         1 <0>         0.4174
     14 C11         3.5008    6.0446    0.0469 C.2       1 <0>         0.5609
     15 O2          3.4627    7.2625    0.0543 O.2       1 <0>        -0.5335
     16 C12         4.7416    5.3551    0.0076 C.ar      1 <0>        -0.2917
     17 C13         6.0059    6.0792   -0.0242 C.ar      1 <0>         0.3293
     18 C14         7.1949    5.4242   -0.0622 C.ar      1 <0>        -0.2724
     19 C15         7.2510    4.0109   -0.0716 C.ar      1 <0>         0.2151
     20 C16         6.0035    3.2333   -0.0398 C.ar      1 <0>        -0.2373
     21 C17         4.7274    3.9484    0.0007 C.ar      1 <0>         0.3003
     22 N2          3.5574    3.2968    0.0305 N.2       1 <0>        -0.4827
     23 C18         6.3672    1.9044   -0.0573 C.2       1 <0>         0.1158
     24 N3          7.7059    1.8438   -0.0961 N.2       1 <0>        -0.3030
     25 H2          9.2144    3.3621   -0.1317 H         1 <0>         0.4522
     26 N4          8.2406    3.1365   -0.1048 N.pl3     1 <0>        -0.4527
     27 N5          5.9945    7.4722   -0.0157 N.pl3     1 <0>        -0.7183
     28 C19         7.2535    8.2143    0.0864 C.3       1 <0>         0.1584
     29 C20         6.9668    9.6938    0.0742 C.ar      1 <0>        -0.1215
     30 C21         6.9332   10.3809   -1.1249 C.ar      1 <0>        -0.0696
     31 C22         6.6657   11.7367   -1.1377 C.ar      1 <0>        -0.1565
     32 C23         6.4417   12.4089    0.0519 C.ar      1 <0>         0.1100
     33 C24         6.4809   11.7206    1.2527 C.ar      1 <0>        -0.1546
     34 C25         6.7434   10.3638    1.2626 C.ar      1 <0>        -0.0671
     35 F1          6.1847   13.7352    0.0410 F         1 <0>        -0.1358
     36 S1         -2.7909    3.9775    0.2129 S.o2      1 <0>         2.7080
     37 O3         -3.7284    3.0762    0.7855 O.2       1 <0>        -0.9282
     38 O4         -2.5351    5.2623    0.7635 O.2       1 <0>        -0.9378
     39 N6         -3.2647    4.2204   -1.3552 N.pl3     1 <0>        -1.0125
     40 C26        -4.0850    3.2951   -2.1580 C.3       1 <0>         0.1183
     41 C27        -3.7344    3.6292   -3.6295 C.3       1 <0>        -0.1476
     42 C28        -3.5679    5.1706   -3.5678 C.3       1 <0>         0.0143
     43 H3         -4.5360    5.6662   -3.6400 H         1 <0>         0.1612
     44 C29        -2.9424    5.3973   -2.1752 C.3       1 <0>         0.1041
     45 C30        -3.2061    5.3208   -5.9572 C.3       1 <0>        -0.0433
     46 C31        -2.4024    7.0781   -4.4982 C.3       1 <0>        -0.0499
     47 H4          4.6918   -2.7971   -0.0300 H         1 <0>         0.0704
     48 H5          3.1767   -2.7446    0.9028 H         1 <0>         0.0592
     49 H6          3.1272   -2.7359   -0.8765 H         1 <0>         0.0576
     50 H7          4.2372   -0.5187   -0.8965 H         1 <0>         0.0786
     51 H8          4.2867   -0.5274    0.8828 H         1 <0>         0.0801
     52 H9          1.8112   -0.6529    0.9510 H         1 <0>         0.0723
     53 H10         1.7617   -0.6442   -0.8282 H         1 <0>         0.0702
     54 H11         0.0043   -0.0047    0.1138 H         1 <0>         0.1536
     55 H12        -2.1413    1.1917    0.1695 H         1 <0>         0.1519
     56 H13        -0.0980    4.9332    0.1420 H         1 <0>         0.1446
     57 H14         8.1132    5.9920   -0.0853 H         1 <0>         0.1344
     58 H15         5.6931    1.0608   -0.0423 H         1 <0>         0.1912
     59 H16         5.1530    7.9507   -0.0774 H         1 <0>         0.4195
     60 H17         7.7570    7.9495    1.0161 H         1 <0>         0.0771
     61 H18         7.8939    7.9614   -0.7586 H         1 <0>         0.0763
     62 H19         7.1120    9.8572   -2.0523 H         1 <0>         0.1341
     63 H20         6.6354   12.2726   -2.0749 H         1 <0>         0.1385
     64 H21         6.3060   12.2438    2.1812 H         1 <0>         0.1396
     65 H22         6.7736    9.8267    2.1991 H         1 <0>         0.1352
     66 H23        -3.8233    2.2617   -1.9309 H         1 <0>         0.1003
     67 H24        -5.1448    3.4674   -1.9703 H         1 <0>         0.0941
     68 H25        -2.8035    3.1474   -3.9284 H         1 <0>         0.0997
     69 H26        -4.5486    3.3501   -4.2982 H         1 <0>         0.1166
     70 H27        -3.3632    6.2934   -1.7191 H         1 <0>         0.1100
     71 H28        -1.8612    5.4992   -2.2686 H         1 <0>         0.0830
     72 H29        -4.1740    5.8064   -6.0817 H         1 <0>         0.1263
     73 H30        -2.5188    5.6784   -6.7239 H         1 <0>         0.1255
     74 H31        -3.3263    4.2416   -6.0517 H         1 <0>         0.1227
     75 H32        -1.9382    7.2764   -3.5321 H         1 <0>         0.1228
     76 H33        -1.7321    7.3984   -5.2959 H         1 <0>         0.1268
     77 H34        -3.3411    7.6274   -4.5699 H         1 <0>         0.1283
     78 N7         -2.6410    5.6250   -4.6257 N.4       1 <0>        -0.3935
     79 H35        -1.7476    5.1299   -4.5215 H         1 <0>         0.4298
@<TRIPOS>BOND
     1    1    2 1
     2    1   47 1
     3    1   48 1
     4    1   49 1
     5    2    3 1
     6    2   50 1
     7    2   51 1
     8    3    4 1
     9    3   52 1
    10    3   53 1
    11    4    5 1
    12    5   10 ar
    13    5    6 ar
    14    6    7 ar
    15    6   54 1
    16    7    8 ar
    17    7   55 1
    18    8    9 ar
    19    8   36 1
    20    9   10 ar
    21    9   56 1
    22   10   11 1
    23   11   22 2
    24   11   12 1
    25   12   13 1
    26   12   14 am
    27   14   15 2
    28   14   16 1
    29   16   21 ar
    30   16   17 ar
    31   17   18 ar
    32   17   27 1
    33   18   19 ar
    34   18   57 1
    35   19   20 ar
    36   19   26 1
    37   20   21 ar
    38   20   23 1
    39   21   22 1
    40   23   58 1
    41   23   24 2
    42   24   26 1
    43   25   26 1
    44   27   28 1
    45   27   59 1
    46   28   29 1
    47   28   60 1
    48   28   61 1
    49   29   34 ar
    50   29   30 ar
    51   30   31 ar
    52   30   62 1
    53   31   32 ar
    54   31   63 1
    55   32   33 ar
    56   32   35 1
    57   33   34 ar
    58   33   64 1
    59   34   65 1
    60   36   37 2
    61   36   38 2
    62   36   39 1
    63   39   44 1
    64   39   40 1
    65   40   41 1
    66   40   66 1
    67   40   67 1
    68   41   42 1
    69   41   68 1
    70   41   69 1
    71   42   43 1
    72   42   44 1
    73   42   78 1
    74   44   70 1
    75   44   71 1
    76   45   72 1
    77   45   73 1
    78   45   74 1
    79   45   78 1
    80   46   75 1
    81   46   76 1
    82   46   77 1
    83   46   78 1
    84   78   79 1
@<TRIPOS>MOLECULE
ZINC04199928
   79    84     0     0     0
SMALL
USER_CHARGES

@<TRIPOS>ATOM
      1 C1          3.6787   -2.3961   -0.0005 C.3       1 <0>        -0.1530
      2 C2          3.7352   -0.8672    0.0055 C.3       1 <0>        -0.1344
      3 C3          2.3131   -0.3044    0.0468 C.3       1 <0>         0.0529
      4 O1          2.3659    1.1236    0.0524 O.3       1 <0>        -0.3319
      5 C4          1.1808    1.7838    0.0878 C.ar      1 <0>         0.2168
      6 C5         -0.0105    1.0752    0.1167 C.ar      1 <0>        -0.2196
      7 C6         -1.2160    1.7483    0.1475 C.ar      1 <0>         0.0493
      8 C7         -1.2452    3.1332    0.1613 C.ar      1 <0>        -0.7261
      9 C8         -0.0706    3.8536    0.1328 C.ar      1 <0>         0.0872
     10 C9          1.1556    3.1852    0.0958 C.ar      1 <0>        -0.1242
     11 C10         2.4167    3.9499    0.0648 C.2       1 <0>         0.4533
     12 N1          2.3635    5.3155    0.0678 N.2       1 <0>        -0.5778
     13 H1          3.5515    2.2968    0.0297 H         1 <0>         0.4318
     14 C11         3.5008    6.0446    0.0461 C.2       1 <0>         0.5306
     15 O2          3.4627    7.2625    0.0534 O.2       1 <0>        -0.5133
     16 C12         4.7419    5.3551    0.0188 C.ar      1 <0>        -0.2576
     17 C13         6.0063    6.0792   -0.0069 C.ar      1 <0>         0.3098
     18 C14         7.1955    5.4242   -0.0394 C.ar      1 <0>        -0.2497
     19 C15         7.2516    4.0109   -0.0488 C.ar      1 <0>         0.1966
     20 C16         6.0039    3.2333   -0.0230 C.ar      1 <0>        -0.2690
     21 C17         4.7277    3.9484    0.0116 C.ar      1 <0>         0.2827
     22 N2          3.5575    3.2968    0.0350 N.pl3     1 <0>        -0.5604
     23 C18         6.3677    1.9044   -0.0390 C.2       1 <0>         0.1113
     24 N3          7.7066    1.8438   -0.0715 N.pl3     1 <0>        -0.4313
     25 H2          8.2431    1.0001   -0.0889 H         1 <0>         0.4554
     26 N4          8.2413    3.1365   -0.0774 N.2       1 <0>        -0.3068
     27 N5          5.9949    7.4722    0.0018 N.pl3     1 <0>        -0.7166
     28 C19         7.2534    8.2142    0.1100 C.3       1 <0>         0.1595
     29 C20         6.9668    9.6937    0.0967 C.ar      1 <0>        -0.1191
     30 C21         6.9388   10.3811   -1.1024 C.ar      1 <0>        -0.0696
     31 C22         6.6714   11.7369   -1.1163 C.ar      1 <0>        -0.1566
     32 C23         6.4418   12.4089    0.0724 C.ar      1 <0>         0.1083
     33 C24         6.4753   11.7203    1.2732 C.ar      1 <0>        -0.1547
     34 C25         6.7378   10.3635    1.2841 C.ar      1 <0>        -0.0669
     35 F1          6.1849   13.7352    0.0605 F         1 <0>        -0.1369
     36 S1         -2.7910    3.9775    0.2079 S.o2      1 <0>         2.7074
     37 O3         -3.7289    3.0762    0.7799 O.2       1 <0>        -0.9292
     38 O4         -2.5356    5.2623    0.7587 O.2       1 <0>        -0.9284
     39 N6         -3.2638    4.2204   -1.3605 N.pl3     1 <0>        -1.0119
     40 C26        -4.0836    3.2951   -2.1638 C.3       1 <0>         0.1185
     41 C27        -3.7320    3.6292   -3.6351 C.3       1 <0>        -0.1476
     42 C28        -3.5655    5.1706   -3.5733 C.3       1 <0>         0.0146
     43 H3         -4.5336    5.6662   -3.6461 H         1 <0>         0.1610
     44 C29        -2.9410    5.3973   -2.1803 C.3       1 <0>         0.1028
     45 C30        -3.2022    5.3208   -5.9625 C.3       1 <0>        -0.0429
     46 C31        -2.3994    7.0781   -4.5029 C.3       1 <0>        -0.0504
     47 H4          4.6918   -2.7971   -0.0300 H         1 <0>         0.0730
     48 H5          3.1761   -2.7446    0.9018 H         1 <0>         0.0640
     49 H6          3.1278   -2.7359   -0.8775 H         1 <0>         0.0625
     50 H7          4.2378   -0.5187   -0.8968 H         1 <0>         0.0782
     51 H8          4.2861   -0.5274    0.8825 H         1 <0>         0.0796
     52 H9          1.8106   -0.6529    0.9491 H         1 <0>         0.0841
     53 H10         1.7622   -0.6442   -0.8301 H         1 <0>         0.0822
     54 H11         0.0042   -0.0047    0.1107 H         1 <0>         0.1550
     55 H12        -2.1414    1.1917    0.1650 H         1 <0>         0.1551
     56 H13        -0.0981    4.9332    0.1388 H         1 <0>         0.1722
     57 H14         8.1139    5.9920   -0.0581 H         1 <0>         0.1355
     58 H15         5.6935    1.0608   -0.0270 H         1 <0>         0.1807
     59 H16         5.1537    7.9507   -0.0638 H         1 <0>         0.4202
     60 H17         7.7525    7.9493    1.0420 H         1 <0>         0.0766
     61 H18         7.8978    7.9615   -0.7321 H         1 <0>         0.0762
     62 H19         7.1220    9.8575   -2.0291 H         1 <0>         0.1341
     63 H20         6.6455   12.2729   -2.0535 H         1 <0>         0.1377
     64 H21         6.2961   12.2434    2.2010 H         1 <0>         0.1389
     65 H22         6.7636    9.8263    2.2207 H         1 <0>         0.1351
     66 H23        -3.8220    2.2617   -1.9365 H         1 <0>         0.0988
     67 H24        -5.1435    3.4674   -1.9768 H         1 <0>         0.0942
     68 H25        -2.8009    3.1474   -3.9334 H         1 <0>         0.0987
     69 H26        -4.5458    3.3501   -4.3043 H         1 <0>         0.1160
     70 H27        -3.3621    6.2934   -1.7245 H         1 <0>         0.1112
     71 H28        -1.8597    5.4992   -2.2730 H         1 <0>         0.0869
     72 H29        -4.1700    5.8064   -6.0876 H         1 <0>         0.1260
     73 H30        -2.5143    5.6784   -6.7287 H         1 <0>         0.1252
     74 H31        -3.3223    4.2416   -6.0570 H         1 <0>         0.1217
     75 H32        -1.9359    7.2764   -3.5365 H         1 <0>         0.1252
     76 H33        -1.7286    7.3984   -5.3002 H         1 <0>         0.1268
     77 H34        -3.3381    7.6274   -4.5753 H         1 <0>         0.1280
     78 N7         -2.6379    5.6250   -4.6306 N.4       1 <0>        -0.3934
     79 H35        -1.7446    5.1299   -4.5258 H         1 <0>         0.4299
@<TRIPOS>BOND
     1    1    2 1
     2    1   47 1
     3    1   48 1
     4    1   49 1
     5    2    3 1
     6    2   50 1
     7    2   51 1
     8    3    4 1
     9    3   52 1
    10    3   53 1
    11    4    5 1
    12    5   10 ar
    13    5    6 ar
    14    6    7 ar
    15    6   54 1
    16    7    8 ar
    17    7   55 1
    18    8    9 ar
    19    8   36 1
    20    9   10 ar
    21    9   56 1
    22   10   11 1
    23   11   22 1
    24   11   12 2
    25   12   14 1
    26   13   22 1
    27   14   15 2
    28   14   16 1
    29   16   17 ar
    30   16   21 ar
    31   17   18 ar
    32   17   27 1
    33   18   19 ar
    34   18   57 1
    35   19   26 2
    36   19   20 ar
    37   20   21 ar
    38   20   23 2
    39   21   22 1
    40   23   24 1
    41   23   58 1
    42   24   25 1
    43   24   26 1
    44   27   28 1
    45   27   59 1
    46   28   29 1
    47   28   60 1
    48   28   61 1
    49   29   34 ar
    50   29   30 ar
    51   30   31 ar
    52   30   62 1
    53   31   32 ar
    54   31   63 1
    55   32   33 ar
    56   32   35 1
    57   33   34 ar
    58   33   64 1
    59   34   65 1
    60   36   37 2
    61   36   38 2
    62   36   39 1
    63   39   44 1
    64   39   40 1
    65   40   41 1
    66   40   66 1
    67   40   67 1
    68   41   42 1
    69   41   68 1
    70   41   69 1
    71   42   43 1
    72   42   44 1
    73   42   78 1
    74   44   70 1
    75   44   71 1
    76   45   72 1
    77   45   73 1
    78   45   74 1
    79   45   78 1
    80   46   75 1
    81   46   76 1
    82   46   77 1
    83   46   78 1
    84   78   79 1
@<TRIPOS>MOLECULE
ZINC04199928
   79    84     0     0     0
SMALL
USER_CHARGES

@<TRIPOS>ATOM
      1 C1          3.6787   -2.3961   -0.0005 C.3       1 <0>        -0.1520
      2 C2          3.7352   -0.8672    0.0055 C.3       1 <0>        -0.1346
      3 C3          2.3131   -0.3044    0.0468 C.3       1 <0>         0.0535
      4 O1          2.3659    1.1236    0.0524 O.3       1 <0>        -0.3302
      5 C4          1.1808    1.7838    0.0878 C.ar      1 <0>         0.2188
      6 C5         -0.0105    1.0752    0.1167 C.ar      1 <0>        -0.2200
      7 C6         -1.2160    1.7483    0.1475 C.ar      1 <0>         0.0499
      8 C7         -1.2452    3.1332    0.1613 C.ar      1 <0>        -0.7274
      9 C8         -0.0706    3.8536    0.1328 C.ar      1 <0>         0.0879
     10 C9          1.1556    3.1852    0.0958 C.ar      1 <0>        -0.1266
     11 C10         2.4167    3.9499    0.0648 C.2       1 <0>         0.4598
     12 N1          2.3635    5.3155    0.0678 N.2       1 <0>        -0.5823
     13 H1          3.5515    2.2968    0.0297 H         1 <0>         0.4337
     14 C11         3.5008    6.0446    0.0461 C.2       1 <0>         0.5348
     15 O2          3.4627    7.2625    0.0534 O.2       1 <0>        -0.5171
     16 C12         4.7419    5.3551    0.0188 C.ar      1 <0>        -0.2867
     17 C13         6.0063    6.0792   -0.0069 C.ar      1 <0>         0.3388
     18 C14         7.1955    5.4242   -0.0394 C.ar      1 <0>        -0.2851
     19 C15         7.2516    4.0109   -0.0488 C.ar      1 <0>         0.2341
     20 C16         6.0039    3.2333   -0.0230 C.ar      1 <0>        -0.2822
     21 C17         4.7277    3.9484    0.0116 C.ar      1 <0>         0.2937
     22 N2          3.5575    3.2968    0.0350 N.pl3     1 <0>        -0.5625
     23 C18         6.3677    1.9044   -0.0391 C.2       1 <0>         0.0953
     24 N3          7.7066    1.8438   -0.0716 N.2       1 <0>        -0.2906
     25 H2          9.2153    3.3621   -0.0998 H         1 <0>         0.4550
     26 N4          8.2413    3.1365   -0.0775 N.pl3     1 <0>        -0.4512
     27 N5          5.9949    7.4722    0.0018 N.pl3     1 <0>        -0.7104
     28 C19         7.2534    8.2142    0.1100 C.3       1 <0>         0.1575
     29 C20         6.9668    9.6937    0.0967 C.ar      1 <0>        -0.1224
     30 C21         6.9388   10.3811   -1.1024 C.ar      1 <0>        -0.0690
     31 C22         6.6714   11.7369   -1.1163 C.ar      1 <0>        -0.1563
     32 C23         6.4418   12.4089    0.0724 C.ar      1 <0>         0.1106
     33 C24         6.4753   11.7203    1.2732 C.ar      1 <0>        -0.1543
     34 C25         6.7378   10.3635    1.2841 C.ar      1 <0>        -0.0662
     35 F1          6.1849   13.7352    0.0605 F         1 <0>        -0.1358
     36 S1         -2.7910    3.9775    0.2079 S.o2      1 <0>         2.7076
     37 O3         -3.7289    3.0762    0.7799 O.2       1 <0>        -0.9293
     38 O4         -2.5356    5.2623    0.7587 O.2       1 <0>        -0.9290
     39 N6         -3.2638    4.2204   -1.3605 N.pl3     1 <0>        -1.0120
     40 C26        -4.0836    3.2951   -2.1638 C.3       1 <0>         0.1185
     41 C27        -3.7320    3.6292   -3.6351 C.3       1 <0>        -0.1476
     42 C28        -3.5655    5.1706   -3.5733 C.3       1 <0>         0.0146
     43 H3         -4.5336    5.6662   -3.6461 H         1 <0>         0.1609
     44 C29        -2.9410    5.3973   -2.1803 C.3       1 <0>         0.1029
     45 C30        -3.2022    5.3208   -5.9625 C.3       1 <0>        -0.0429
     46 C31        -2.3994    7.0781   -4.5029 C.3       1 <0>        -0.0503
     47 H4          4.6918   -2.7971   -0.0300 H         1 <0>         0.0740
     48 H5          3.1761   -2.7446    0.9018 H         1 <0>         0.0627
     49 H6          3.1278   -2.7359   -0.8775 H         1 <0>         0.0612
     50 H7          4.2378   -0.5187   -0.8968 H         1 <0>         0.0800
     51 H8          4.2861   -0.5274    0.8825 H         1 <0>         0.0815
     52 H9          1.8106   -0.6529    0.9491 H         1 <0>         0.0836
     53 H10         1.7622   -0.6442   -0.8301 H         1 <0>         0.0816
     54 H11         0.0042   -0.0047    0.1107 H         1 <0>         0.1555
     55 H12        -2.1414    1.1917    0.1650 H         1 <0>         0.1549
     56 H13        -0.0981    4.9332    0.1388 H         1 <0>         0.1717
     57 H14         8.1139    5.9920   -0.0581 H         1 <0>         0.1359
     58 H15         5.6935    1.0608   -0.0274 H         1 <0>         0.1841
     59 H16         5.1537    7.9507   -0.0638 H         1 <0>         0.4229
     60 H17         7.7525    7.9493    1.0420 H         1 <0>         0.0778
     61 H18         7.8978    7.9615   -0.7321 H         1 <0>         0.0768
     62 H19         7.1220    9.8575   -2.0291 H         1 <0>         0.1340
     63 H20         6.6455   12.2729   -2.0535 H         1 <0>         0.1385
     64 H21         6.2961   12.2434    2.2010 H         1 <0>         0.1397
     65 H22         6.7636    9.8263    2.2207 H         1 <0>         0.1352
     66 H23        -3.8220    2.2617   -1.9365 H         1 <0>         0.0990
     67 H24        -5.1435    3.4674   -1.9768 H         1 <0>         0.0941
     68 H25        -2.8009    3.1474   -3.9334 H         1 <0>         0.0989
     69 H26        -4.5458    3.3501   -4.3043 H         1 <0>         0.1160
     70 H27        -3.3621    6.2934   -1.7245 H         1 <0>         0.1109
     71 H28        -1.8597    5.4992   -2.2730 H         1 <0>         0.0868
     72 H29        -4.1700    5.8064   -6.0876 H         1 <0>         0.1260
     73 H30        -2.5143    5.6784   -6.7287 H         1 <0>         0.1251
     74 H31        -3.3223    4.2416   -6.0570 H         1 <0>         0.1218
     75 H32        -1.9359    7.2764   -3.5365 H         1 <0>         0.1251
     76 H33        -1.7286    7.3984   -5.3002 H         1 <0>         0.1266
     77 H34        -3.3381    7.6274   -4.5753 H         1 <0>         0.1279
     78 N7         -2.6379    5.6250   -4.6306 N.4       1 <0>        -0.3934
     79 H35        -1.7446    5.1299   -4.5258 H         1 <0>         0.4300
@<TRIPOS>BOND
     1    1    2 1
     2    1   47 1
     3    1   48 1
     4    1   49 1
     5    2    3 1
     6    2   50 1
     7    2   51 1
     8    3    4 1
     9    3   52 1
    10    3   53 1
    11    4    5 1
    12    5   10 ar
    13    5    6 ar
    14    6    7 ar
    15    6   54 1
    16    7    8 ar
    17    7   55 1
    18    8    9 ar
    19    8   36 1
    20    9   10 ar
    21    9   56 1
    22   10   11 1
    23   11   22 1
    24   11   12 2
    25   12   14 1
    26   13   22 1
    27   14   15 2
    28   14   16 1
    29   16   17 ar
    30   16   21 ar
    31   17   18 ar
    32   17   27 1
    33   18   19 ar
    34   18   57 1
    35   19   20 ar
    36   19   26 1
    37   20   21 ar
    38   20   23 1
    39   21   22 1
    40   23   58 1
    41   23   24 2
    42   24   26 1
    43   25   26 1
    44   27   28 1
    45   27   59 1
    46   28   29 1
    47   28   60 1
    48   28   61 1
    49   29   34 ar
    50   29   30 ar
    51   30   31 ar
    52   30   62 1
    53   31   32 ar
    54   31   63 1
    55   32   33 ar
    56   32   35 1
    57   33   34 ar
    58   33   64 1
    59   34   65 1
    60   36   37 2
    61   36   38 2
    62   36   39 1
    63   39   44 1
    64   39   40 1
    65   40   41 1
    66   40   66 1
    67   40   67 1
    68   41   42 1
    69   41   68 1
    70   41   69 1
    71   42   43 1
    72   42   44 1
    73   42   78 1
    74   44   70 1
    75   44   71 1
    76   45   72 1
    77   45   73 1
    78   45   74 1
    79   45   78 1
    80   46   75 1
    81   46   76 1
    82   46   77 1
    83   46   78 1
    84   78   79 1
@<TRIPOS>MOLECULE
ZINC04199928
   79    84     0     0     0
SMALL
USER_CHARGES

@<TRIPOS>ATOM
      1 C1          3.6786   -2.3961   -0.0047 C.3       1 <0>        -0.1529
      2 C2          3.7351   -0.8672    0.0021 C.3       1 <0>        -0.1224
      3 C3          2.3130   -0.3044    0.0443 C.3       1 <0>         0.0432
      4 O1          2.3658    1.1236    0.0507 O.3       1 <0>        -0.2582
      5 C4          1.1808    1.7838    0.0869 C.ar      1 <0>         0.2420
      6 C5         -0.0105    1.0752    0.1158 C.ar      1 <0>        -0.2385
      7 C6         -1.2160    1.7483    0.1474 C.ar      1 <0>         0.0420
      8 C7         -1.2452    3.1332    0.1620 C.ar      1 <0>        -0.7364
      9 C8         -0.0706    3.8536    0.1336 C.ar      1 <0>         0.0689
     10 C9          1.1556    3.1852    0.0958 C.ar      1 <0>        -0.1003
     11 C10         2.4167    3.9499    0.0647 C.ar      1 <0>         0.4188
     12 N1          2.3635    5.3155    0.0705 N.ar      1 <0>        -0.5796
     13 H1          4.3946    7.6252    0.0408 H         1 <0>         0.4162
     14 C11         3.5008    6.0446    0.0481 C.ar      1 <0>         0.4510
     15 O2          3.4629    7.2624    0.0617 O.3       1 <0>        -0.4169
     16 C12         4.7418    5.3551    0.0155 C.ar      1 <0>        -0.3163
     17 C13         6.0062    6.0792   -0.0124 C.ar      1 <0>         0.2483
     18 C14         7.1953    5.4241   -0.0465 C.ar      1 <0>        -0.1844
     19 C15         7.2514    4.0109   -0.0573 C.ar      1 <0>         0.1636
     20 C16         6.0038    3.2333   -0.0297 C.ar      1 <0>        -0.2330
     21 C17         4.7276    3.9484    0.0069 C.ar      1 <0>         0.3293
     22 N2          3.5575    3.2968    0.0323 N.ar      1 <0>        -0.5199
     23 C18         6.3675    1.9044   -0.0481 C.2       1 <0>         0.1392
     24 N3          7.7063    1.8438   -0.0827 N.pl3     1 <0>        -0.4455
     25 H2          8.2428    1.0001   -0.1018 H         1 <0>         0.4548
     26 N4          8.2410    3.1365   -0.0883 N.2       1 <0>        -0.2953
     27 N5          5.9948    7.4722   -0.0032 N.pl3     1 <0>        -0.7320
     28 C19         7.2535    8.2142    0.1029 C.3       1 <0>         0.1655
     29 C20         6.9669    9.6937    0.0907 C.ar      1 <0>        -0.1383
     30 C21         6.9367   10.3814   -1.1081 C.ar      1 <0>        -0.0685
     31 C22         6.6693   11.7372   -1.1210 C.ar      1 <0>        -0.1565
     32 C23         6.4419   12.4088    0.0683 C.ar      1 <0>         0.1160
     33 C24         6.4777   11.7199    1.2689 C.ar      1 <0>        -0.1546
     34 C25         6.7402   10.3631    1.2788 C.ar      1 <0>        -0.0678
     35 F1          6.1850   13.7351    0.0574 F         1 <0>        -0.1332
     36 S1         -2.7910    3.9775    0.2097 S.o2      1 <0>         2.7083
     37 O3         -3.7287    3.0759    0.7814 O.2       1 <0>        -0.9341
     38 O4         -2.5353    5.2620    0.7611 O.2       1 <0>        -0.9367
     39 N6         -3.2643    4.2213   -1.3585 N.pl3     1 <0>        -1.0126
     40 C26        -4.0843    3.2965   -2.1621 C.3       1 <0>         0.1189
     41 C27        -3.7333    3.6315   -3.6332 C.3       1 <0>        -0.1475
     42 C28        -3.5667    5.1728   -3.5706 C.3       1 <0>         0.0144
     43 H3         -4.5348    5.6685   -3.6428 H         1 <0>         0.1603
     44 C29        -2.9417    5.3987   -2.1777 C.3       1 <0>         0.1046
     45 C30        -3.2042    5.3244   -5.9598 C.3       1 <0>        -0.0428
     46 C31        -2.4009    7.0809   -4.4995 C.3       1 <0>        -0.0495
     47 H4          4.6917   -2.7971   -0.0348 H         1 <0>         0.0680
     48 H5          3.1763   -2.7451    0.8976 H         1 <0>         0.0602
     49 H6          3.1273   -2.7354   -0.8817 H         1 <0>         0.0586
     50 H7          4.2374   -0.5182   -0.9001 H         1 <0>         0.0751
     51 H8          4.2863   -0.5279    0.8792 H         1 <0>         0.0766
     52 H9          1.8108   -0.6534    0.9466 H         1 <0>         0.0700
     53 H10         1.7619   -0.6437   -0.8327 H         1 <0>         0.0679
     54 H11         0.0042   -0.0047    0.1091 H         1 <0>         0.1479
     55 H12        -2.1414    1.1917    0.1648 H         1 <0>         0.1471
     56 H13        -0.0981    4.9332    0.1402 H         1 <0>         0.1602
     57 H14         8.1137    5.9919   -0.0661 H         1 <0>         0.1393
     58 H15         5.6933    1.0608   -0.0358 H         1 <0>         0.1900
     59 H16         5.1535    7.9507   -0.0670 H         1 <0>         0.3851
     60 H17         7.7544    7.9489    1.0339 H         1 <0>         0.0881
     61 H18         7.8963    7.9617   -0.7404 H         1 <0>         0.0881
     62 H19         7.1181    9.8582   -2.0353 H         1 <0>         0.1376
     63 H20         6.6416   12.2736   -2.0580 H         1 <0>         0.1408
     64 H21         6.3002   12.2426    2.1972 H         1 <0>         0.1419
     65 H22         6.7677    9.8254    2.2151 H         1 <0>         0.1386
     66 H23        -3.8227    2.2630   -1.9355 H         1 <0>         0.0991
     67 H24        -5.1442    3.4687   -1.9746 H         1 <0>         0.0927
     68 H25        -2.8023    3.1498   -3.9321 H         1 <0>         0.0991
     69 H26        -4.5472    3.3528   -4.3024 H         1 <0>         0.1153
     70 H27        -3.3626    6.2946   -1.7212 H         1 <0>         0.1089
     71 H28        -1.8605    5.5006   -2.2707 H         1 <0>         0.0851
     72 H29        -4.1720    5.8101   -6.0843 H         1 <0>         0.1257
     73 H30        -2.5166    5.6825   -6.7261 H         1 <0>         0.1247
     74 H31        -3.3244    4.2453   -6.0550 H         1 <0>         0.1221
     75 H32        -1.9370    7.2786   -3.5331 H         1 <0>         0.1240
     76 H33        -1.7303    7.4016   -5.2968 H         1 <0>         0.1258
     77 H34        -3.3396    7.6302   -4.5712 H         1 <0>         0.1276
     78 N7         -2.6395    5.6278   -4.6279 N.4       1 <0>        -0.3936
     79 H35        -1.7461    5.1327   -4.5237 H         1 <0>         0.4304
@<TRIPOS>BOND
     1    1    2 1
     2    1   47 1
     3    1   48 1
     4    1   49 1
     5    2    3 1
     6    2   50 1
     7    2   51 1
     8    3    4 1
     9    3   52 1
    10    3   53 1
    11    4    5 1
    12    5   10 ar
    13    5    6 ar
    14    6    7 ar
    15    6   54 1
    16    7    8 ar
    17    7   55 1
    18    8    9 ar
    19    8   36 1
    20    9   10 ar
    21    9   56 1
    22   10   11 1
    23   11   22 ar
    24   11   12 ar
    25   12   14 ar
    26   13   15 1
    27   14   15 1
    28   14   16 ar
    29   16   17 ar
    30   16   21 ar
    31   17   18 ar
    32   17   27 1
    33   18   19 ar
    34   18   57 1
    35   19   26 2
    36   19   20 ar
    37   20   21 ar
    38   20   23 2
    39   21   22 ar
    40   23   24 1
    41   23   58 1
    42   24   25 1
    43   24   26 1
    44   27   28 1
    45   27   59 1
    46   28   29 1
    47   28   60 1
    48   28   61 1
    49   29   34 ar
    50   29   30 ar
    51   30   31 ar
    52   30   62 1
    53   31   32 ar
    54   31   63 1
    55   32   33 ar
    56   32   35 1
    57   33   34 ar
    58   33   64 1
    59   34   65 1
    60   36   37 2
    61   36   38 2
    62   36   39 1
    63   39   44 1
    64   39   40 1
    65   40   41 1
    66   40   66 1
    67   40   67 1
    68   41   42 1
    69   41   68 1
    70   41   69 1
    71   42   43 1
    72   42   44 1
    73   42   78 1
    74   44   70 1
    75   44   71 1
    76   45   72 1
    77   45   73 1
    78   45   74 1
    79   45   78 1
    80   46   75 1
    81   46   76 1
    82   46   77 1
    83   46   78 1
    84   78   79 1
@<TRIPOS>MOLECULE
ZINC04199928
   79    84     0     0     0
SMALL
USER_CHARGES

@<TRIPOS>ATOM
      1 C1          3.6786   -2.3961   -0.0047 C.3       1 <0>        -0.1520
      2 C2          3.7351   -0.8672    0.0021 C.3       1 <0>        -0.1226
      3 C3          2.3130   -0.3044    0.0443 C.3       1 <0>         0.0438
      4 O1          2.3658    1.1236    0.0507 O.3       1 <0>        -0.2564
      5 C4          1.1808    1.7838    0.0869 C.ar      1 <0>         0.2436
      6 C5         -0.0105    1.0752    0.1158 C.ar      1 <0>        -0.2387
      7 C6         -1.2160    1.7483    0.1474 C.ar      1 <0>         0.0424
      8 C7         -1.2452    3.1332    0.1620 C.ar      1 <0>        -0.7376
      9 C8         -0.0706    3.8536    0.1336 C.ar      1 <0>         0.0694
     10 C9          1.1556    3.1852    0.0958 C.ar      1 <0>        -0.1024
     11 C10         2.4167    3.9499    0.0647 C.ar      1 <0>         0.4230
     12 N1          2.3635    5.3155    0.0705 N.ar      1 <0>        -0.5831
     13 H1          4.3946    7.6252    0.0408 H         1 <0>         0.4141
     14 C11         3.5008    6.0446    0.0481 C.ar      1 <0>         0.4556
     15 O2          3.4629    7.2624    0.0617 O.3       1 <0>        -0.4155
     16 C12         4.7418    5.3551    0.0155 C.ar      1 <0>        -0.3296
     17 C13         6.0062    6.0792   -0.0124 C.ar      1 <0>         0.2744
     18 C14         7.1953    5.4241   -0.0465 C.ar      1 <0>        -0.2253
     19 C15         7.2514    4.0109   -0.0573 C.ar      1 <0>         0.1939
     20 C16         6.0038    3.2333   -0.0297 C.ar      1 <0>        -0.2276
     21 C17         4.7276    3.9484    0.0069 C.ar      1 <0>         0.3259
     22 N2          3.5575    3.2968    0.0323 N.ar      1 <0>        -0.5175
     23 C18         6.3675    1.9044   -0.0482 C.2       1 <0>         0.1166
     24 N3          7.7063    1.8438   -0.0829 N.2       1 <0>        -0.3019
     25 H2          9.2150    3.3621   -0.1120 H         1 <0>         0.4531
     26 N4          8.2410    3.1365   -0.0884 N.pl3     1 <0>        -0.4381
     27 N5          5.9948    7.4722   -0.0032 N.pl3     1 <0>        -0.7298
     28 C19         7.2535    8.2142    0.1029 C.3       1 <0>         0.1645
     29 C20         6.9669    9.6937    0.0907 C.ar      1 <0>        -0.1411
     30 C21         6.9367   10.3814   -1.1081 C.ar      1 <0>        -0.0681
     31 C22         6.6693   11.7372   -1.1210 C.ar      1 <0>        -0.1562
     32 C23         6.4419   12.4088    0.0683 C.ar      1 <0>         0.1179
     33 C24         6.4777   11.7199    1.2689 C.ar      1 <0>        -0.1543
     34 C25         6.7402   10.3631    1.2788 C.ar      1 <0>        -0.0673
     35 F1          6.1850   13.7351    0.0574 F         1 <0>        -0.1322
     36 S1         -2.7910    3.9775    0.2097 S.o2      1 <0>         2.7084
     37 O3         -3.7287    3.0759    0.7814 O.2       1 <0>        -0.9342
     38 O4         -2.5353    5.2620    0.7611 O.2       1 <0>        -0.9373
     39 N6         -3.2643    4.2213   -1.3585 N.pl3     1 <0>        -1.0127
     40 C26        -4.0843    3.2965   -2.1621 C.3       1 <0>         0.1189
     41 C27        -3.7333    3.6315   -3.6332 C.3       1 <0>        -0.1475
     42 C28        -3.5667    5.1728   -3.5706 C.3       1 <0>         0.0144
     43 H3         -4.5348    5.6685   -3.6428 H         1 <0>         0.1602
     44 C29        -2.9417    5.3987   -2.1777 C.3       1 <0>         0.1048
     45 C30        -3.2042    5.3244   -5.9598 C.3       1 <0>        -0.0428
     46 C31        -2.4009    7.0809   -4.4995 C.3       1 <0>        -0.0494
     47 H4          4.6917   -2.7971   -0.0348 H         1 <0>         0.0691
     48 H5          3.1763   -2.7451    0.8976 H         1 <0>         0.0589
     49 H6          3.1273   -2.7354   -0.8817 H         1 <0>         0.0574
     50 H7          4.2374   -0.5182   -0.9001 H         1 <0>         0.0768
     51 H8          4.2863   -0.5279    0.8792 H         1 <0>         0.0783
     52 H9          1.8108   -0.6534    0.9466 H         1 <0>         0.0696
     53 H10         1.7619   -0.6437   -0.8327 H         1 <0>         0.0674
     54 H11         0.0042   -0.0047    0.1091 H         1 <0>         0.1484
     55 H12        -2.1414    1.1917    0.1648 H         1 <0>         0.1469
     56 H13        -0.0981    4.9332    0.1402 H         1 <0>         0.1598
     57 H14         8.1137    5.9919   -0.0661 H         1 <0>         0.1394
     58 H15         5.6933    1.0608   -0.0363 H         1 <0>         0.1933
     59 H16         5.1535    7.9507   -0.0670 H         1 <0>         0.3879
     60 H17         7.7544    7.9489    1.0339 H         1 <0>         0.0884
     61 H18         7.8963    7.9617   -0.7404 H         1 <0>         0.0880
     62 H19         7.1181    9.8582   -2.0353 H         1 <0>         0.1374
     63 H20         6.6416   12.2736   -2.0580 H         1 <0>         0.1415
     64 H21         6.3002   12.2426    2.1972 H         1 <0>         0.1427
     65 H22         6.7677    9.8254    2.2151 H         1 <0>         0.1386
     66 H23        -3.8227    2.2630   -1.9355 H         1 <0>         0.0993
     67 H24        -5.1442    3.4687   -1.9746 H         1 <0>         0.0926
     68 H25        -2.8023    3.1498   -3.9321 H         1 <0>         0.0992
     69 H26        -4.5472    3.3528   -4.3024 H         1 <0>         0.1153
     70 H27        -3.3626    6.2946   -1.7212 H         1 <0>         0.1086
     71 H28        -1.8605    5.5006   -2.2707 H         1 <0>         0.0850
     72 H29        -4.1720    5.8101   -6.0843 H         1 <0>         0.1257
     73 H30        -2.5166    5.6825   -6.7261 H         1 <0>         0.1246
     74 H31        -3.3244    4.2453   -6.0550 H         1 <0>         0.1223
     75 H32        -1.9370    7.2786   -3.5331 H         1 <0>         0.1239
     76 H33        -1.7303    7.4016   -5.2968 H         1 <0>         0.1256
     77 H34        -3.3396    7.6302   -4.5712 H         1 <0>         0.1275
     78 N7         -2.6395    5.6278   -4.6279 N.4       1 <0>        -0.3936
     79 H35        -1.7461    5.1327   -4.5237 H         1 <0>         0.4304
@<TRIPOS>BOND
     1    1    2 1
     2    1   47 1
     3    1   48 1
     4    1   49 1
     5    2    3 1
     6    2   50 1
     7    2   51 1
     8    3    4 1
     9    3   52 1
    10    3   53 1
    11    4    5 1
    12    5   10 ar
    13    5    6 ar
    14    6    7 ar
    15    6   54 1
    16    7    8 ar
    17    7   55 1
    18    8    9 ar
    19    8   36 1
    20    9   10 ar
    21    9   56 1
    22   10   11 1
    23   11   22 ar
    24   11   12 ar
    25   12   14 ar
    26   13   15 1
    27   14   15 1
    28   14   16 ar
    29   16   17 ar
    30   16   21 ar
    31   17   18 ar
    32   17   27 1
    33   18   19 ar
    34   18   57 1
    35   19   20 ar
    36   19   26 1
    37   20   21 ar
    38   20   23 1
    39   21   22 ar
    40   23   58 1
    41   23   24 2
    42   24   26 1
    43   25   26 1
    44   27   28 1
    45   27   59 1
    46   28   29 1
    47   28   60 1
    48   28   61 1
    49   29   34 ar
    50   29   30 ar
    51   30   31 ar
    52   30   62 1
    53   31   32 ar
    54   31   63 1
    55   32   33 ar
    56   32   35 1
    57   33   34 ar
    58   33   64 1
    59   34   65 1
    60   36   37 2
    61   36   38 2
    62   36   39 1
    63   39   44 1
    64   39   40 1
    65   40   41 1
    66   40   66 1
    67   40   67 1
    68   41   42 1
    69   41   68 1
    70   41   69 1
    71   42   43 1
    72   42   44 1
    73   42   78 1
    74   44   70 1
    75   44   71 1
    76   45   72 1
    77   45   73 1
    78   45   74 1
    79   45   78 1
    80   46   75 1
    81   46   76 1
    82   46   77 1
    83   46   78 1
    84   78   79 1
@<TRIPOS>MOLECULE
ZINC04199929
   40    43     0     0     0
SMALL
USER_CHARGES

@<TRIPOS>ATOM
      1 C1          7.2352    4.3811   -0.0755 C.3       1 <0>        -0.1513
      2 C2          5.8815    3.6681   -0.0597 C.3       1 <0>        -0.1192
      3 C3          6.1025    2.1541   -0.0642 C.3       1 <0>         0.0490
      4 O1          4.8382    1.4882   -0.0495 O.3       1 <0>        -0.2654
      5 C4          4.8565    0.1311   -0.0513 C.ar      1 <0>         0.1950
      6 C5          6.0646   -0.5488   -0.0624 C.ar      1 <0>        -0.2185
      7 C6          6.0819   -1.9299   -0.0700 C.ar      1 <0>        -0.0480
      8 C7          4.8959   -2.6452   -0.0616 C.ar      1 <0>        -0.1600
      9 C8          3.6859   -1.9850   -0.0457 C.ar      1 <0>        -0.0535
     10 C9          3.6546   -0.5888   -0.0374 C.ar      1 <0>        -0.1135
     11 C10         2.3626    0.1243   -0.0203 C.2       1 <0>         0.4455
     12 N1          1.2092   -0.6145   -0.0128 N.am      1 <0>        -0.6615
     13 H1          1.2599   -1.6132   -0.0183 H         1 <0>         0.4209
     14 C11         0.0021   -0.0041    0.0020 C.2       1 <0>         0.5631
     15 O2         -1.0304   -0.6487    0.0080 O.2       1 <0>        -0.5083
     16 C12        -0.0179    1.4666    0.0101 C.ar      1 <0>        -0.2059
     17 C13        -1.2120    2.1752    0.0196 C.ar      1 <0>         0.0271
     18 C14        -1.1830    3.5673    0.0316 C.ar      1 <0>         0.0243
     19 C15         0.0531    4.2479    0.0234 C.ar      1 <0>         0.0959
     20 C16         1.2445    3.5445    0.0087 C.ar      1 <0>        -0.1058
     21 C17         1.2239    2.1516    0.0019 C.ar      1 <0>         0.1689
     22 N2          2.3726    1.4326   -0.0134 N.2       1 <0>        -0.4850
     23 N3         -0.2562    5.5935    0.0335 N.pl3     1 <0>        -0.6097
     24 H2          0.3964    6.3512    0.0313 H         1 <0>         0.4342
     25 C18        -1.6141    5.6984    0.0470 C.2       1 <0>         0.2736
     26 N4         -2.1563    4.5167    0.0459 N.2       1 <0>        -0.4878
     27 H3          7.0778    5.4597   -0.0723 H         1 <0>         0.0642
     28 H4          7.8069    4.0947    0.8072 H         1 <0>         0.0572
     29 H5          7.7851    4.0968   -0.9726 H         1 <0>         0.0572
     30 H6          5.3098    3.9545   -0.9424 H         1 <0>         0.0739
     31 H7          5.3316    3.9524    0.8374 H         1 <0>         0.0739
     32 H8          6.6742    1.8678    0.8185 H         1 <0>         0.0626
     33 H9          6.6524    1.8699   -0.9613 H         1 <0>         0.0626
     34 H10         6.9935    0.0021   -0.0694 H         1 <0>         0.1368
     35 H11         7.0255   -2.4550   -0.0828 H         1 <0>         0.1326
     36 H12         4.9192   -3.7250   -0.0680 H         1 <0>         0.1343
     37 H13         2.7635   -2.5467   -0.0392 H         1 <0>         0.1313
     38 H14        -2.1561    1.6506    0.0213 H         1 <0>         0.1474
     39 H15         2.1863    4.0731    0.0029 H         1 <0>         0.1403
     40 H16        -2.1616    6.6292    0.0566 H         1 <0>         0.2215
@<TRIPOS>BOND
     1    1    2 1
     2    1   27 1
     3    1   28 1
     4    1   29 1
     5    2    3 1
     6    2   30 1
     7    2   31 1
     8    3    4 1
     9    3   32 1
    10    3   33 1
    11    4    5 1
    12    5   10 ar
    13    5    6 ar
    14    6    7 ar
    15    6   34 1
    16    7    8 ar
    17    7   35 1
    18    8    9 ar
    19    8   36 1
    20    9   10 ar
    21    9   37 1
    22   10   11 1
    23   11   22 2
    24   11   12 1
    25   12   13 1
    26   12   14 am
    27   14   15 2
    28   14   16 1
    29   16   21 ar
    30   16   17 ar
    31   17   18 ar
    32   17   38 1
    33   18   26 1
    34   18   19 ar
    35   19   20 ar
    36   19   23 1
    37   20   21 ar
    38   20   39 1
    39   21   22 1
    40   23   24 1
    41   23   25 1
    42   25   26 2
    43   25   40 1
@<TRIPOS>MOLECULE
ZINC04199929
   40    43     0     0     0
SMALL
USER_CHARGES

@<TRIPOS>ATOM
      1 C1          7.2352    4.3811   -0.0755 C.3       1 <0>        -0.1507
      2 C2          5.8815    3.6681   -0.0597 C.3       1 <0>        -0.1205
      3 C3          6.1025    2.1541   -0.0642 C.3       1 <0>         0.0496
      4 O1          4.8382    1.4882   -0.0495 O.3       1 <0>        -0.2646
      5 C4          4.8565    0.1311   -0.0513 C.ar      1 <0>         0.1951
      6 C5          6.0646   -0.5488   -0.0624 C.ar      1 <0>        -0.2182
      7 C6          6.0819   -1.9299   -0.0700 C.ar      1 <0>        -0.0488
      8 C7          4.8959   -2.6452   -0.0616 C.ar      1 <0>        -0.1608
      9 C8          3.6859   -1.9850   -0.0457 C.ar      1 <0>        -0.0547
     10 C9          3.6546   -0.5888   -0.0374 C.ar      1 <0>        -0.1125
     11 C10         2.3626    0.1243   -0.0203 C.2       1 <0>         0.4387
     12 N1          1.2092   -0.6145   -0.0128 N.am      1 <0>        -0.6608
     13 H1          1.2599   -1.6132   -0.0183 H         1 <0>         0.4207
     14 C11         0.0021   -0.0041    0.0020 C.2       1 <0>         0.5633
     15 O2         -1.0304   -0.6487    0.0080 O.2       1 <0>        -0.5140
     16 C12        -0.0179    1.4666    0.0101 C.ar      1 <0>        -0.1894
     17 C13        -1.2120    2.1752    0.0196 C.ar      1 <0>        -0.0151
     18 C14        -1.1830    3.5673    0.0316 C.ar      1 <0>         0.0011
     19 C15         0.0531    4.2479    0.0234 C.ar      1 <0>         0.0976
     20 C16         1.2445    3.5445    0.0087 C.ar      1 <0>        -0.0604
     21 C17         1.2239    2.1516    0.0019 C.ar      1 <0>         0.1481
     22 N2          2.3726    1.4326   -0.0134 N.2       1 <0>        -0.4778
     23 N3         -0.2562    5.5935    0.0335 N.2       1 <0>        -0.5062
     24 H2         -3.1394    4.3339    0.0543 H         1 <0>         0.4339
     25 C18        -1.6141    5.6984    0.0470 C.2       1 <0>         0.2642
     26 N4         -2.1563    4.5167    0.0459 N.pl3     1 <0>        -0.5523
     27 H3          7.0778    5.4597   -0.0723 H         1 <0>         0.0650
     28 H4          7.8069    4.0947    0.8072 H         1 <0>         0.0564
     29 H5          7.7851    4.0968   -0.9726 H         1 <0>         0.0564
     30 H6          5.3098    3.9545   -0.9424 H         1 <0>         0.0754
     31 H7          5.3316    3.9524    0.8374 H         1 <0>         0.0755
     32 H8          6.6742    1.8678    0.8185 H         1 <0>         0.0622
     33 H9          6.6524    1.8699   -0.9613 H         1 <0>         0.0622
     34 H10         6.9935    0.0021   -0.0694 H         1 <0>         0.1370
     35 H11         7.0255   -2.4550   -0.0828 H         1 <0>         0.1321
     36 H12         4.9192   -3.7250   -0.0680 H         1 <0>         0.1336
     37 H13         2.7635   -2.5467   -0.0392 H         1 <0>         0.1303
     38 H14        -2.1561    1.6506    0.0213 H         1 <0>         0.1403
     39 H15         2.1863    4.0731    0.0029 H         1 <0>         0.1468
     40 H16        -2.1616    6.6292    0.0572 H         1 <0>         0.2213
@<TRIPOS>BOND
     1    1    2 1
     2    1   27 1
     3    1   28 1
     4    1   29 1
     5    2    3 1
     6    2   30 1
     7    2   31 1
     8    3    4 1
     9    3   32 1
    10    3   33 1
    11    4    5 1
    12    5   10 ar
    13    5    6 ar
    14    6    7 ar
    15    6   34 1
    16    7    8 ar
    17    7   35 1
    18    8    9 ar
    19    8   36 1
    20    9   10 ar
    21    9   37 1
    22   10   11 1
    23   11   22 2
    24   11   12 1
    25   12   13 1
    26   12   14 am
    27   14   15 2
    28   14   16 1
    29   16   21 ar
    30   16   17 ar
    31   17   18 ar
    32   17   38 1
    33   18   26 1
    34   18   19 ar
    35   19   20 ar
    36   19   23 1
    37   20   21 ar
    38   20   39 1
    39   21   22 1
    40   23   25 2
    41   24   26 1
    42   25   40 1
    43   25   26 1
@<TRIPOS>MOLECULE
ZINC04199929
   40    43     0     0     0
SMALL
USER_CHARGES

@<TRIPOS>ATOM
      1 C1          7.2353    4.3810   -0.0709 C.3       1 <0>        -0.1513
      2 C2          5.8816    3.6680   -0.0553 C.3       1 <0>        -0.1301
      3 C3          6.1026    2.1540   -0.0529 C.3       1 <0>         0.0598
      4 O1          4.8383    1.4881   -0.0384 O.3       1 <0>        -0.3381
      5 C4          4.8567    0.1310   -0.0344 C.ar      1 <0>         0.1581
      6 C5          6.0648   -0.5489   -0.0399 C.ar      1 <0>        -0.2089
      7 C6          6.0821   -1.9300   -0.0416 C.ar      1 <0>        -0.0443
      8 C7          4.8961   -2.6453   -0.0330 C.ar      1 <0>        -0.1591
      9 C8          3.6861   -1.9851   -0.0226 C.ar      1 <0>        -0.0038
     10 C9          3.6547   -0.5889   -0.0203 C.ar      1 <0>        -0.1169
     11 C10         2.3627    0.1243   -0.0092 C.2       1 <0>         0.4871
     12 N1          1.2093   -0.6145   -0.0012 N.2       1 <0>        -0.6033
     13 H1          3.2493    1.9137   -0.0135 H         1 <0>         0.4302
     14 C11         0.0022   -0.0041    0.0082 C.2       1 <0>         0.5342
     15 O2         -1.0303   -0.6487    0.0145 O.2       1 <0>        -0.4913
     16 C12        -0.0179    1.4666    0.0109 C.ar      1 <0>        -0.2142
     17 C13        -1.2120    2.1752    0.0209 C.ar      1 <0>         0.0390
     18 C14        -1.1830    3.5673    0.0333 C.ar      1 <0>         0.0186
     19 C15         0.0531    4.2479    0.0251 C.ar      1 <0>         0.1062
     20 C16         1.2445    3.5445    0.0099 C.ar      1 <0>        -0.1630
     21 C17         1.2239    2.1516    0.0027 C.ar      1 <0>         0.1850
     22 N2          2.3727    1.4326   -0.0073 N.pl3     1 <0>        -0.5795
     23 N3         -0.2562    5.5935    0.0356 N.pl3     1 <0>        -0.6094
     24 H2          0.3964    6.3512    0.0335 H         1 <0>         0.4334
     25 C18        -1.6141    5.6984    0.0494 C.2       1 <0>         0.2708
     26 N4         -2.1563    4.5167    0.0481 N.2       1 <0>        -0.4835
     27 H3          7.0779    5.4596   -0.0726 H         1 <0>         0.0681
     28 H4          7.8050    4.0983    0.8143 H         1 <0>         0.0608
     29 H5          7.7873    4.0929   -0.9656 H         1 <0>         0.0609
     30 H6          5.3119    3.9507   -0.9405 H         1 <0>         0.0758
     31 H7          5.3296    3.9560    0.8393 H         1 <0>         0.0757
     32 H8          6.6723    1.8714    0.8323 H         1 <0>         0.0752
     33 H9          6.6546    1.8660   -0.9475 H         1 <0>         0.0752
     34 H10         6.9937    0.0020   -0.0470 H         1 <0>         0.1390
     35 H11         7.0258   -2.4551   -0.0500 H         1 <0>         0.1360
     36 H12         4.9195   -3.7251   -0.0348 H         1 <0>         0.1392
     37 H13         2.7637   -2.5468   -0.0159 H         1 <0>         0.1581
     38 H14        -2.1561    1.6506    0.0226 H         1 <0>         0.1528
     39 H15         2.1863    4.0731    0.0041 H         1 <0>         0.1358
     40 H16        -2.1616    6.6292    0.0594 H         1 <0>         0.2220
@<TRIPOS>BOND
     1    1    2 1
     2    1   27 1
     3    1   28 1
     4    1   29 1
     5    2    3 1
     6    2   30 1
     7    2   31 1
     8    3    4 1
     9    3   32 1
    10    3   33 1
    11    4    5 1
    12    5   10 ar
    13    5    6 ar
    14    6    7 ar
    15    6   34 1
    16    7    8 ar
    17    7   35 1
    18    8    9 ar
    19    8   36 1
    20    9   10 ar
    21    9   37 1
    22   10   11 1
    23   11   22 1
    24   11   12 2
    25   12   14 1
    26   13   22 1
    27   14   15 2
    28   14   16 1
    29   16   17 ar
    30   16   21 ar
    31   17   18 ar
    32   17   38 1
    33   18   26 1
    34   18   19 ar
    35   19   20 ar
    36   19   23 1
    37   20   21 ar
    38   20   39 1
    39   21   22 1
    40   23   24 1
    41   23   25 1
    42   25   26 2
    43   25   40 1
@<TRIPOS>MOLECULE
ZINC04199929
   40    43     0     0     0
SMALL
USER_CHARGES

@<TRIPOS>ATOM
      1 C1          7.2353    4.3810   -0.0709 C.3       1 <0>        -0.1506
      2 C2          5.8816    3.6680   -0.0553 C.3       1 <0>        -0.1313
      3 C3          6.1026    2.1540   -0.0529 C.3       1 <0>         0.0603
      4 O1          4.8383    1.4881   -0.0384 O.3       1 <0>        -0.3372
      5 C4          4.8567    0.1310   -0.0344 C.ar      1 <0>         0.1596
      6 C5          6.0648   -0.5489   -0.0399 C.ar      1 <0>        -0.2091
      7 C6          6.0821   -1.9300   -0.0416 C.ar      1 <0>        -0.0440
      8 C7          4.8961   -2.6453   -0.0330 C.ar      1 <0>        -0.1602
      9 C8          3.6861   -1.9851   -0.0226 C.ar      1 <0>        -0.0038
     10 C9          3.6547   -0.5889   -0.0203 C.ar      1 <0>        -0.1182
     11 C10         2.3627    0.1243   -0.0092 C.2       1 <0>         0.4892
     12 N1          1.2093   -0.6145   -0.0012 N.2       1 <0>        -0.6071
     13 H1          3.2493    1.9137   -0.0135 H         1 <0>         0.4313
     14 C11         0.0022   -0.0041    0.0082 C.2       1 <0>         0.5347
     15 O2         -1.0303   -0.6487    0.0145 O.2       1 <0>        -0.4981
     16 C12        -0.0179    1.4666    0.0109 C.ar      1 <0>        -0.1982
     17 C13        -1.2120    2.1752    0.0209 C.ar      1 <0>        -0.0027
     18 C14        -1.1830    3.5673    0.0333 C.ar      1 <0>        -0.0060
     19 C15         0.0531    4.2479    0.0251 C.ar      1 <0>         0.1087
     20 C16         1.2445    3.5445    0.0099 C.ar      1 <0>        -0.1197
     21 C17         1.2239    2.1516    0.0027 C.ar      1 <0>         0.1649
     22 N2          2.3727    1.4326   -0.0073 N.pl3     1 <0>        -0.5773
     23 N3         -0.2562    5.5935    0.0356 N.2       1 <0>        -0.5096
     24 H2         -3.1394    4.3339    0.0566 H         1 <0>         0.4350
     25 C18        -1.6141    5.6984    0.0494 C.2       1 <0>         0.2654
     26 N4         -2.1563    4.5167    0.0481 N.pl3     1 <0>        -0.5496
     27 H3          7.0779    5.4596   -0.0726 H         1 <0>         0.0690
     28 H4          7.8050    4.0983    0.8143 H         1 <0>         0.0600
     29 H5          7.7873    4.0929   -0.9656 H         1 <0>         0.0600
     30 H6          5.3119    3.9507   -0.9405 H         1 <0>         0.0773
     31 H7          5.3296    3.9560    0.8393 H         1 <0>         0.0773
     32 H8          6.6723    1.8714    0.8323 H         1 <0>         0.0749
     33 H9          6.6546    1.8660   -0.9475 H         1 <0>         0.0749
     34 H10         6.9937    0.0020   -0.0470 H         1 <0>         0.1393
     35 H11         7.0258   -2.4551   -0.0500 H         1 <0>         0.1358
     36 H12         4.9195   -3.7251   -0.0348 H         1 <0>         0.1387
     37 H13         2.7637   -2.5468   -0.0159 H         1 <0>         0.1574
     38 H14        -2.1561    1.6506    0.0226 H         1 <0>         0.1455
     39 H15         2.1863    4.0731    0.0041 H         1 <0>         0.1421
     40 H16        -2.1616    6.6292    0.0599 H         1 <0>         0.2217
@<TRIPOS>BOND
     1    1    2 1
     2    1   27 1
     3    1   28 1
     4    1   29 1
     5    2    3 1
     6    2   30 1
     7    2   31 1
     8    3    4 1
     9    3   32 1
    10    3   33 1
    11    4    5 1
    12    5   10 ar
    13    5    6 ar
    14    6    7 ar
    15    6   34 1
    16    7    8 ar
    17    7   35 1
    18    8    9 ar
    19    8   36 1
    20    9   10 ar
    21    9   37 1
    22   10   11 1
    23   11   22 1
    24   11   12 2
    25   12   14 1
    26   13   22 1
    27   14   15 2
    28   14   16 1
    29   16   17 ar
    30   16   21 ar
    31   17   18 ar
    32   17   38 1
    33   18   26 1
    34   18   19 ar
    35   19   20 ar
    36   19   23 1
    37   20   21 ar
    38   20   39 1
    39   21   22 1
    40   23   25 2
    41   24   26 1
    42   25   40 1
    43   25   26 1
@<TRIPOS>MOLECULE
ZINC04199929
   40    43     0     0     0
SMALL
USER_CHARGES

@<TRIPOS>ATOM
      1 C1          7.2356    4.3809   -0.0402 C.3       1 <0>        -0.1508
      2 C2          5.8818    3.6679   -0.0310 C.3       1 <0>        -0.1183
      3 C3          6.1028    2.1539   -0.0345 C.3       1 <0>         0.0498
      4 O1          4.8384    1.4881   -0.0260 O.3       1 <0>        -0.2684
      5 C4          4.8567    0.1310   -0.0278 C.ar      1 <0>         0.1813
      6 C5          6.0648   -0.5490   -0.0331 C.ar      1 <0>        -0.2271
      7 C6          6.0821   -1.9301   -0.0407 C.ar      1 <0>        -0.0539
      8 C7          4.8961   -2.6453   -0.0381 C.ar      1 <0>        -0.1732
      9 C8          3.6860   -1.9851   -0.0280 C.ar      1 <0>        -0.0262
     10 C9          3.6547   -0.5889   -0.0197 C.ar      1 <0>        -0.0885
     11 C10         2.3627    0.1242   -0.0089 C.ar      1 <0>         0.4205
     12 N1          1.2092   -0.6145   -0.0109 N.ar      1 <0>        -0.5766
     13 H1         -1.8123   -0.0255    0.0219 H         1 <0>         0.4303
     14 C11         0.0021   -0.0041    0.0040 C.ar      1 <0>         0.4536
     15 O2         -1.0304   -0.6487    0.0112 O.3       1 <0>        -0.3760
     16 C12        -0.0179    1.4665    0.0202 C.ar      1 <0>        -0.2491
     17 C13        -1.2119    2.1751    0.0345 C.ar      1 <0>        -0.0253
     18 C14        -1.1830    3.5672    0.0444 C.ar      1 <0>         0.0378
     19 C15         0.0532    4.2478    0.0409 C.ar      1 <0>         0.0983
     20 C16         1.2446    3.5444    0.0281 C.ar      1 <0>        -0.1041
     21 C17         1.2240    2.1515    0.0168 C.ar      1 <0>         0.1960
     22 N2          2.3727    1.4325    0.0023 N.ar      1 <0>        -0.5165
     23 N3         -0.2561    5.5933    0.0537 N.pl3     1 <0>        -0.6162
     24 H2          0.3964    6.3511    0.0550 H         1 <0>         0.4353
     25 C18        -1.6141    5.6982    0.0643 C.2       1 <0>         0.2874
     26 N4         -2.1563    4.5165    0.0588 N.2       1 <0>        -0.4972
     27 H3          7.0782    5.4595   -0.0377 H         1 <0>         0.0630
     28 H4          7.8030    4.0944    0.8453 H         1 <0>         0.0571
     29 H5          7.7898    4.0967   -0.9346 H         1 <0>         0.0571
     30 H6          5.3144    3.9544   -0.9164 H         1 <0>         0.0723
     31 H7          5.3276    3.9522    0.8635 H         1 <0>         0.0723
     32 H8          6.6702    1.8676    0.8509 H         1 <0>         0.0603
     33 H9          6.6570    1.8698   -0.9290 H         1 <0>         0.0603
     34 H10         6.9938    0.0019   -0.0355 H         1 <0>         0.1317
     35 H11         7.0258   -2.4552   -0.0489 H         1 <0>         0.1275
     36 H12         4.9194   -3.7251   -0.0444 H         1 <0>         0.1296
     37 H13         2.7636   -2.5468   -0.0260 H         1 <0>         0.1448
     38 H14        -2.1560    1.6504    0.0372 H         1 <0>         0.1379
     39 H15         2.1864    4.0729    0.0267 H         1 <0>         0.1409
     40 H16        -2.1616    6.6290    0.0750 H         1 <0>         0.2223
@<TRIPOS>BOND
     1    1    2 1
     2    1   27 1
     3    1   28 1
     4    1   29 1
     5    2    3 1
     6    2   30 1
     7    2   31 1
     8    3    4 1
     9    3   32 1
    10    3   33 1
    11    4    5 1
    12    5   10 ar
    13    5    6 ar
    14    6    7 ar
    15    6   34 1
    16    7    8 ar
    17    7   35 1
    18    8    9 ar
    19    8   36 1
    20    9   10 ar
    21    9   37 1
    22   10   11 1
    23   11   22 ar
    24   11   12 ar
    25   12   14 ar
    26   13   15 1
    27   14   15 1
    28   14   16 ar
    29   16   17 ar
    30   16   21 ar
    31   17   18 ar
    32   17   38 1
    33   18   26 1
    34   18   19 ar
    35   19   20 ar
    36   19   23 1
    37   20   21 ar
    38   20   39 1
    39   21   22 ar
    40   23   24 1
    41   23   25 1
    42   25   26 2
    43   25   40 1
@<TRIPOS>MOLECULE
ZINC04199930
   61    65     0     0     0
SMALL
USER_CHARGES

@<TRIPOS>ATOM
      1 C1          0.8528    7.7771    0.0423 C.3       1 <0>        -0.1527
      2 C2          1.0032    6.2545    0.0334 C.3       1 <0>        -0.1202
      3 C3         -0.3821    5.6051    0.0352 C.3       1 <0>         0.0438
      4 O1         -0.2416    4.1831    0.0268 O.3       1 <0>        -0.2530
      5 C4         -1.3845    3.4509    0.0272 C.ar      1 <0>         0.2501
      6 C5         -2.6174    4.0849    0.0359 C.ar      1 <0>        -0.2304
      7 C6         -3.7797    3.3387    0.0363 C.ar      1 <0>         0.0395
      8 C7         -3.7236    1.9548    0.0281 C.ar      1 <0>        -0.7285
      9 C8         -2.5061    1.3085    0.0150 C.ar      1 <0>         0.0380
     10 C9         -1.3234    2.0512    0.0193 C.ar      1 <0>        -0.1143
     11 C10        -0.0165    1.3655    0.0095 C.2       1 <0>         0.4262
     12 N1          0.0021   -0.0041    0.0020 N.am      1 <0>        -0.6645
     13 H1         -0.8594   -0.5118    0.0075 H         1 <0>         0.4173
     14 C11         1.1764   -0.6756   -0.0128 C.2       1 <0>         0.5639
     15 O2          1.2068   -1.8924   -0.0192 O.2       1 <0>        -0.5001
     16 C12         2.4150    0.1176   -0.0204 C.ar      1 <0>        -0.2011
     17 C13         3.6642   -0.4886   -0.0360 C.ar      1 <0>         0.0267
     18 C14         4.8100    0.3024   -0.0431 C.ar      1 <0>         0.0348
     19 C15         4.6971    1.7090   -0.0344 C.ar      1 <0>         0.0920
     20 C16         3.4538    2.3159   -0.0189 C.ar      1 <0>        -0.0936
     21 C17         2.3027    1.5314   -0.0117 C.ar      1 <0>         0.1539
     22 N2          1.0700    2.0943    0.0031 N.2       1 <0>        -0.4717
     23 N3          5.9905    2.1923   -0.0447 N.pl3     1 <0>        -0.6072
     24 H2          6.2633    3.1544   -0.0423 H         1 <0>         0.4366
     25 C18         6.8261    1.1169   -0.0588 C.2       1 <0>         0.2829
     26 N4          6.1386    0.0134   -0.0579 N.2       1 <0>        -0.4875
     27 S1         -5.2149    1.0165    0.0287 S.o2      1 <0>         2.6913
     28 O3         -4.8932   -0.2571    0.5709 O.2       1 <0>        -0.9328
     29 O4         -6.2196    1.8510    0.5885 O.2       1 <0>        -0.9318
     30 N5         -5.6358    0.7649   -1.5530 N.pl3     1 <0>        -1.0129
     31 C19        -6.5048    1.7154   -2.2633 C.3       1 <0>         0.0946
     32 C20        -5.8214    2.0977   -3.5859 C.3       1 <0>        -0.0189
     33 C21        -4.5299    0.0451   -3.6030 C.3       1 <0>        -0.0192
     34 C22        -5.1554   -0.4182   -2.2830 C.3       1 <0>         0.0927
     35 C23        -5.0015    1.1984   -5.6791 C.3       1 <0>        -0.0425
     36 H3          0.3023    8.0930   -0.8439 H         1 <0>         0.0577
     37 H4          0.3091    8.0832    0.9360 H         1 <0>         0.0596
     38 H5          1.8397    8.2397    0.0410 H         1 <0>         0.0687
     39 H6          1.5537    5.9386    0.9195 H         1 <0>         0.0776
     40 H7          1.5468    5.9483   -0.8604 H         1 <0>         0.0759
     41 H8         -0.9326    5.9210   -0.8510 H         1 <0>         0.0685
     42 H9         -0.9258    5.9113    0.9289 H         1 <0>         0.0712
     43 H10        -2.6691    5.1636    0.0420 H         1 <0>         0.1515
     44 H11        -4.7377    3.8372    0.0428 H         1 <0>         0.1499
     45 H12        -2.4669    0.2292    0.0047 H         1 <0>         0.1461
     46 H13         3.7463   -1.5654   -0.0422 H         1 <0>         0.1501
     47 H14         3.3761    3.3931   -0.0127 H         1 <0>         0.1416
     48 H15         7.9046    1.1727   -0.0692 H         1 <0>         0.2251
     49 H16        -7.4684    1.2486   -2.4672 H         1 <0>         0.1066
     50 H17        -6.6484    2.6069   -1.6528 H         1 <0>         0.1359
     51 H18        -4.9060    2.6520   -3.3786 H         1 <0>         0.1358
     52 H19        -6.4958    2.7173   -4.1769 H         1 <0>         0.1443
     53 H20        -3.6325    0.6279   -3.3955 H         1 <0>         0.1356
     54 H21        -4.2677   -0.8242   -4.2061 H         1 <0>         0.1453
     55 H22        -4.4065   -0.9380   -1.6855 H         1 <0>         0.1353
     56 H23        -5.9913   -1.0877   -2.4857 H         1 <0>         0.1074
     57 H24        -4.8405    0.2764   -6.2377 H         1 <0>         0.1244
     58 H25        -5.7358    1.8142   -6.1982 H         1 <0>         0.1245
     59 H26        -4.0611    1.7438   -5.5995 H         1 <0>         0.1230
     60 N6         -5.5215    0.8600   -4.3381 N.4       1 <0>        -0.3945
     61 H27        -6.3864    0.3167   -4.4433 H         1 <0>         0.4319
@<TRIPOS>BOND
     1    1    2 1
     2    1   36 1
     3    1   37 1
     4    1   38 1
     5    2    3 1
     6    2   39 1
     7    2   40 1
     8    3    4 1
     9    3   41 1
    10    3   42 1
    11    4    5 1
    12    5   10 ar
    13    5    6 ar
    14    6    7 ar
    15    6   43 1
    16    7    8 ar
    17    7   44 1
    18    8    9 ar
    19    8   27 1
    20    9   10 ar
    21    9   45 1
    22   10   11 1
    23   11   22 2
    24   11   12 1
    25   12   13 1
    26   12   14 am
    27   14   15 2
    28   14   16 1
    29   16   21 ar
    30   16   17 ar
    31   17   18 ar
    32   17   46 1
    33   18   26 1
    34   18   19 ar
    35   19   20 ar
    36   19   23 1
    37   20   21 ar
    38   20   47 1
    39   21   22 1
    40   23   24 1
    41   23   25 1
    42   25   26 2
    43   25   48 1
    44   27   28 2
    45   27   29 2
    46   27   30 1
    47   30   34 1
    48   30   31 1
    49   31   32 1
    50   31   49 1
    51   31   50 1
    52   32   51 1
    53   32   52 1
    54   32   60 1
    55   33   34 1
    56   33   53 1
    57   33   54 1
    58   33   60 1
    59   34   55 1
    60   34   56 1
    61   35   57 1
    62   35   58 1
    63   35   59 1
    64   35   60 1
    65   60   61 1
@<TRIPOS>MOLECULE
ZINC04199930
   61    65     0     0     0
SMALL
USER_CHARGES

@<TRIPOS>ATOM
      1 C1          0.8528    7.7771    0.0426 C.3       1 <0>        -0.1526
      2 C2          1.0032    6.2545    0.0337 C.3       1 <0>        -0.1308
      3 C3         -0.3821    5.6051    0.0359 C.3       1 <0>         0.0542
      4 O1         -0.2416    4.1831    0.0275 O.3       1 <0>        -0.3276
      5 C4         -1.3845    3.4509    0.0282 C.ar      1 <0>         0.2181
      6 C5         -2.6174    4.0849    0.0373 C.ar      1 <0>        -0.2214
      7 C6         -3.7797    3.3387    0.0380 C.ar      1 <0>         0.0450
      8 C7         -3.7236    1.9548    0.0299 C.ar      1 <0>        -0.7301
      9 C8         -2.5061    1.3085    0.0164 C.ar      1 <0>         0.0885
     10 C9         -1.3234    2.0512    0.0204 C.ar      1 <0>        -0.1251
     11 C10        -0.0165    1.3655    0.0102 C.2       1 <0>         0.4772
     12 N1          0.0021   -0.0041    0.0027 N.2       1 <0>        -0.6033
     13 H1          0.9889    3.0910    0.0146 H         1 <0>         0.4286
     14 C11         1.1764   -0.6756   -0.0124 C.2       1 <0>         0.5351
     15 O2          1.2068   -1.8924   -0.0188 O.2       1 <0>        -0.4821
     16 C12         2.4151    0.1175   -0.0088 C.ar      1 <0>        -0.2135
     17 C13         3.6643   -0.4887   -0.0184 C.ar      1 <0>         0.0398
     18 C14         4.8102    0.3023   -0.0199 C.ar      1 <0>         0.0257
     19 C15         4.6973    1.7089   -0.0117 C.ar      1 <0>         0.1047
     20 C16         3.4539    2.3158   -0.0021 C.ar      1 <0>        -0.1559
     21 C17         2.3028    1.5313   -0.0005 C.ar      1 <0>         0.1751
     22 N2          1.0700    2.0943    0.0087 N.pl3     1 <0>        -0.5761
     23 N3          5.9907    2.1921   -0.0157 N.pl3     1 <0>        -0.6077
     24 H2          6.2636    3.1542   -0.0119 H         1 <0>         0.4355
     25 C18         6.8263    1.1167   -0.0258 C.2       1 <0>         0.2792
     26 N4          6.1388    0.0132   -0.0283 N.2       1 <0>        -0.4833
     27 S1         -5.2149    1.0165    0.0309 S.o2      1 <0>         2.6908
     28 O3         -4.8930   -0.2571    0.5731 O.2       1 <0>        -0.9234
     29 O4         -6.2194    1.8510    0.5910 O.2       1 <0>        -0.9323
     30 N5         -5.6363    0.7649   -1.5507 N.pl3     1 <0>        -1.0122
     31 C19        -6.5055    1.7153   -2.2607 C.3       1 <0>         0.0942
     32 C20        -5.8225    2.0976   -3.5835 C.3       1 <0>        -0.0187
     33 C21        -4.5310    0.0450   -3.6010 C.3       1 <0>        -0.0185
     34 C22        -5.1561   -0.4183   -2.2808 C.3       1 <0>         0.0917
     35 C23        -5.0032    1.1983   -5.6769 C.3       1 <0>        -0.0422
     36 H3          0.3020    8.0930   -0.8435 H         1 <0>         0.0612
     37 H4          0.3094    8.0832    0.9364 H         1 <0>         0.0631
     38 H5          1.8397    8.2397    0.0410 H         1 <0>         0.0725
     39 H6          1.5540    5.9386    0.9196 H         1 <0>         0.0795
     40 H7          1.5465    5.9483   -0.8603 H         1 <0>         0.0777
     41 H8         -0.9329    5.9210   -0.8502 H         1 <0>         0.0803
     42 H9         -0.9255    5.9113    0.9297 H         1 <0>         0.0828
     43 H10        -2.6691    5.1636    0.0434 H         1 <0>         0.1544
     44 H11        -4.7377    3.8372    0.0448 H         1 <0>         0.1539
     45 H12        -2.4669    0.2292    0.0061 H         1 <0>         0.1742
     46 H13         3.7464   -1.5655   -0.0243 H         1 <0>         0.1548
     47 H14         3.3762    3.3930    0.0038 H         1 <0>         0.1365
     48 H15         7.9049    1.1725   -0.0310 H         1 <0>         0.2252
     49 H16        -7.4691    1.2485   -2.4643 H         1 <0>         0.1069
     50 H17        -6.6489    2.6068   -1.6502 H         1 <0>         0.1351
     51 H18        -4.9070    2.6519   -3.3765 H         1 <0>         0.1344
     52 H19        -6.4970    2.7172   -4.1743 H         1 <0>         0.1436
     53 H20        -3.6335    0.6278   -3.3937 H         1 <0>         0.1358
     54 H21        -4.2689   -0.8243   -4.2041 H         1 <0>         0.1462
     55 H22        -4.4070   -0.9381   -1.6835 H         1 <0>         0.1397
     56 H23        -5.9920   -1.0878   -2.4832 H         1 <0>         0.1077
     57 H24        -4.8423    0.2762   -6.2356 H         1 <0>         0.1247
     58 H25        -5.7376    1.8140   -6.1958 H         1 <0>         0.1238
     59 H26        -4.0627    1.7437   -5.5976 H         1 <0>         0.1222
     60 N6         -5.5228    0.8599   -4.3358 N.4       1 <0>        -0.3949
     61 H27        -6.3877    0.3166   -4.4407 H         1 <0>         0.4320
@<TRIPOS>BOND
     1    1    2 1
     2    1   36 1
     3    1   37 1
     4    1   38 1
     5    2    3 1
     6    2   39 1
     7    2   40 1
     8    3    4 1
     9    3   41 1
    10    3   42 1
    11    4    5 1
    12    5   10 ar
    13    5    6 ar
    14    6    7 ar
    15    6   43 1
    16    7    8 ar
    17    7   44 1
    18    8    9 ar
    19    8   27 1
    20    9   10 ar
    21    9   45 1
    22   10   11 1
    23   11   22 1
    24   11   12 2
    25   12   14 1
    26   13   22 1
    27   14   15 2
    28   14   16 1
    29   16   17 ar
    30   16   21 ar
    31   17   18 ar
    32   17   46 1
    33   18   26 1
    34   18   19 ar
    35   19   20 ar
    36   19   23 1
    37   20   21 ar
    38   20   47 1
    39   21   22 1
    40   23   24 1
    41   23   25 1
    42   25   26 2
    43   25   48 1
    44   27   28 2
    45   27   29 2
    46   27   30 1
    47   30   34 1
    48   30   31 1
    49   31   32 1
    50   31   49 1
    51   31   50 1
    52   32   51 1
    53   32   52 1
    54   32   60 1
    55   33   34 1
    56   33   53 1
    57   33   54 1
    58   33   60 1
    59   34   55 1
    60   34   56 1
    61   35   57 1
    62   35   58 1
    63   35   59 1
    64   35   60 1
    65   60   61 1
@<TRIPOS>MOLECULE
ZINC04199930
   61    65     0     0     0
SMALL
USER_CHARGES

@<TRIPOS>ATOM
      1 C1          0.8528    7.7771    0.0426 C.3       1 <0>        -0.1519
      2 C2          1.0032    6.2545    0.0337 C.3       1 <0>        -0.1321
      3 C3         -0.3821    5.6051    0.0359 C.3       1 <0>         0.0547
      4 O1         -0.2416    4.1831    0.0275 O.3       1 <0>        -0.3267
      5 C4         -1.3845    3.4509    0.0282 C.ar      1 <0>         0.2194
      6 C5         -2.6174    4.0849    0.0373 C.ar      1 <0>        -0.2214
      7 C6         -3.7797    3.3387    0.0380 C.ar      1 <0>         0.0451
      8 C7         -3.7236    1.9548    0.0299 C.ar      1 <0>        -0.7311
      9 C8         -2.5061    1.3085    0.0164 C.ar      1 <0>         0.0887
     10 C9         -1.3234    2.0512    0.0204 C.ar      1 <0>        -0.1263
     11 C10        -0.0165    1.3655    0.0102 C.2       1 <0>         0.4792
     12 N1          0.0021   -0.0041    0.0027 N.2       1 <0>        -0.6073
     13 H1          0.9889    3.0910    0.0146 H         1 <0>         0.4298
     14 C11         1.1764   -0.6756   -0.0124 C.2       1 <0>         0.5360
     15 O2          1.2068   -1.8924   -0.0188 O.2       1 <0>        -0.4889
     16 C12         2.4151    0.1175   -0.0088 C.ar      1 <0>        -0.1994
     17 C13         3.6643   -0.4887   -0.0184 C.ar      1 <0>         0.0000
     18 C14         4.8102    0.3023   -0.0199 C.ar      1 <0>        -0.0018
     19 C15         4.6973    1.7089   -0.0117 C.ar      1 <0>         0.1095
     20 C16         3.4539    2.3158   -0.0021 C.ar      1 <0>        -0.1137
     21 C17         2.3028    1.5313   -0.0005 C.ar      1 <0>         0.1562
     22 N2          1.0700    2.0943    0.0087 N.pl3     1 <0>        -0.5736
     23 N3          5.9907    2.1921   -0.0157 N.2       1 <0>        -0.5080
     24 H2          6.5279   -0.9079   -0.0354 H         1 <0>         0.4376
     25 C18         6.8263    1.1167   -0.0258 C.2       1 <0>         0.2730
     26 N4          6.1388    0.0132   -0.0283 N.pl3     1 <0>        -0.5486
     27 S1         -5.2149    1.0165    0.0309 S.o2      1 <0>         2.6910
     28 O3         -4.8930   -0.2571    0.5731 O.2       1 <0>        -0.9242
     29 O4         -6.2194    1.8510    0.5910 O.2       1 <0>        -0.9324
     30 N5         -5.6363    0.7649   -1.5507 N.pl3     1 <0>        -1.0123
     31 C19        -6.5055    1.7153   -2.2607 C.3       1 <0>         0.0943
     32 C20        -5.8225    2.0976   -3.5835 C.3       1 <0>        -0.0188
     33 C21        -4.5310    0.0450   -3.6010 C.3       1 <0>        -0.0185
     34 C22        -5.1561   -0.4183   -2.2808 C.3       1 <0>         0.0919
     35 C23        -5.0032    1.1983   -5.6769 C.3       1 <0>        -0.0423
     36 H3          0.3020    8.0930   -0.8435 H         1 <0>         0.0604
     37 H4          0.3094    8.0832    0.9364 H         1 <0>         0.0622
     38 H5          1.8397    8.2397    0.0410 H         1 <0>         0.0734
     39 H6          1.5540    5.9386    0.9196 H         1 <0>         0.0811
     40 H7          1.5465    5.9483   -0.8603 H         1 <0>         0.0793
     41 H8         -0.9329    5.9210   -0.8502 H         1 <0>         0.0800
     42 H9         -0.9255    5.9113    0.9297 H         1 <0>         0.0826
     43 H10        -2.6691    5.1636    0.0434 H         1 <0>         0.1547
     44 H11        -4.7377    3.8372    0.0448 H         1 <0>         0.1537
     45 H12        -2.4669    0.2292    0.0061 H         1 <0>         0.1736
     46 H13         3.7464   -1.5655   -0.0243 H         1 <0>         0.1475
     47 H14         3.3762    3.3930    0.0038 H         1 <0>         0.1429
     48 H15         7.9049    1.1725   -0.0311 H         1 <0>         0.2249
     49 H16        -7.4691    1.2485   -2.4643 H         1 <0>         0.1067
     50 H17        -6.6489    2.6068   -1.6502 H         1 <0>         0.1352
     51 H18        -4.9070    2.6519   -3.3765 H         1 <0>         0.1347
     52 H19        -6.4970    2.7172   -4.1743 H         1 <0>         0.1437
     53 H20        -3.6335    0.6278   -3.3937 H         1 <0>         0.1360
     54 H21        -4.2689   -0.8243   -4.2041 H         1 <0>         0.1458
     55 H22        -4.4070   -0.9381   -1.6835 H         1 <0>         0.1394
     56 H23        -5.9920   -1.0878   -2.4832 H         1 <0>         0.1074
     57 H24        -4.8423    0.2762   -6.2356 H         1 <0>         0.1245
     58 H25        -5.7376    1.8140   -6.1958 H         1 <0>         0.1239
     59 H26        -4.0627    1.7437   -5.5976 H         1 <0>         0.1224
     60 N6         -5.5228    0.8599   -4.3358 N.4       1 <0>        -0.3948
     61 H27        -6.3877    0.3166   -4.4407 H         1 <0>         0.4319
@<TRIPOS>BOND
     1    1    2 1
     2    1   36 1
     3    1   37 1
     4    1   38 1
     5    2    3 1
     6    2   39 1
     7    2   40 1
     8    3    4 1
     9    3   41 1
    10    3   42 1
    11    4    5 1
    12    5   10 ar
    13    5    6 ar
    14    6    7 ar
    15    6   43 1
    16    7    8 ar
    17    7   44 1
    18    8    9 ar
    19    8   27 1
    20    9   10 ar
    21    9   45 1
    22   10   11 1
    23   11   22 1
    24   11   12 2
    25   12   14 1
    26   13   22 1
    27   14   15 2
    28   14   16 1
    29   16   17 ar
    30   16   21 ar
    31   17   18 ar
    32   17   46 1
    33   18   26 1
    34   18   19 ar
    35   19   20 ar
    36   19   23 1
    37   20   21 ar
    38   20   47 1
    39   21   22 1
    40   23   25 2
    41   24   26 1
    42   25   48 1
    43   25   26 1
    44   27   28 2
    45   27   29 2
    46   27   30 1
    47   30   34 1
    48   30   31 1
    49   31   32 1
    50   31   49 1
    51   31   50 1
    52   32   51 1
    53   32   52 1
    54   32   60 1
    55   33   34 1
    56   33   53 1
    57   33   54 1
    58   33   60 1
    59   34   55 1
    60   34   56 1
    61   35   57 1
    62   35   58 1
    63   35   59 1
    64   35   60 1
    65   60   61 1
@<TRIPOS>MOLECULE
ZINC04199930
   61    65     0     0     0
SMALL
USER_CHARGES

@<TRIPOS>ATOM
      1 C1          0.8528    7.7771    0.0445 C.3       1 <0>        -0.1522
      2 C2          1.0032    6.2545    0.0352 C.3       1 <0>        -0.1193
      3 C3         -0.3821    5.6051    0.0370 C.3       1 <0>         0.0446
      4 O1         -0.2416    4.1831    0.0282 O.3       1 <0>        -0.2561
      5 C4         -1.3845    3.4509    0.0286 C.ar      1 <0>         0.2383
      6 C5         -2.6174    4.0849    0.0377 C.ar      1 <0>        -0.2385
      7 C6         -3.7797    3.3387    0.0381 C.ar      1 <0>         0.0344
      8 C7         -3.7236    1.9548    0.0295 C.ar      1 <0>        -0.7386
      9 C8         -2.5061    1.3085    0.0161 C.ar      1 <0>         0.0658
     10 C9         -1.3234    2.0512    0.0204 C.ar      1 <0>        -0.0924
     11 C10        -0.0165    1.3655    0.0102 C.ar      1 <0>         0.4050
     12 N1          0.0021   -0.0041    0.0029 N.ar      1 <0>        -0.5852
     13 H1          2.1576   -2.2020   -0.0290 H         1 <0>         0.4347
     14 C11         1.1764   -0.6756   -0.0119 C.ar      1 <0>         0.4613
     15 O2          1.2068   -1.8924   -0.0182 O.3       1 <0>        -0.3743
     16 C12         2.4151    0.1175   -0.0094 C.ar      1 <0>        -0.2464
     17 C13         3.6643   -0.4887   -0.0196 C.ar      1 <0>        -0.0261
     18 C14         4.8102    0.3023   -0.0224 C.ar      1 <0>         0.0467
     19 C15         4.6973    1.7089   -0.0142 C.ar      1 <0>         0.0980
     20 C16         3.4539    2.3158   -0.0033 C.ar      1 <0>        -0.0979
     21 C17         2.3028    1.5313   -0.0012 C.ar      1 <0>         0.1882
     22 N2          1.0700    2.0943    0.0086 N.ar      1 <0>        -0.5109
     23 N3          5.9907    2.1922   -0.0193 N.pl3     1 <0>        -0.6141
     24 H2          6.2635    3.1542   -0.0158 H         1 <0>         0.4377
     25 C18         6.8263    1.1167   -0.0300 C.2       1 <0>         0.2962
     26 N4          6.1388    0.0133   -0.0319 N.2       1 <0>        -0.4968
     27 S1         -5.2149    1.0165    0.0302 S.o2      1 <0>         2.6919
     28 O3         -4.8931   -0.2572    0.5720 O.2       1 <0>        -0.9322
     29 O4         -6.2195    1.8509    0.5903 O.2       1 <0>        -0.9375
     30 N5         -5.6360    0.7653   -1.5515 N.pl3     1 <0>        -1.0133
     31 C19        -6.5052    1.7160   -2.2615 C.3       1 <0>         0.0952
     32 C20        -5.8220    2.0986   -3.5841 C.3       1 <0>        -0.0189
     33 C21        -4.5305    0.0460   -3.6019 C.3       1 <0>        -0.0183
     34 C22        -5.1558   -0.4176   -2.2819 C.3       1 <0>         0.0938
     35 C23        -5.0024    1.1998   -5.6776 C.3       1 <0>        -0.0421
     36 H3          0.3022    8.0932   -0.8416 H         1 <0>         0.0575
     37 H4          0.3093    8.0830    0.9383 H         1 <0>         0.0593
     38 H5          1.8397    8.2397    0.0431 H         1 <0>         0.0675
     39 H6          1.5539    5.9384    0.9211 H         1 <0>         0.0760
     40 H7          1.5467    5.9485   -0.8588 H         1 <0>         0.0743
     41 H8         -0.9327    5.9212   -0.8490 H         1 <0>         0.0659
     42 H9         -0.9256    5.9111    0.9309 H         1 <0>         0.0687
     43 H10        -2.6691    5.1636    0.0441 H         1 <0>         0.1465
     44 H11        -4.7377    3.8372    0.0449 H         1 <0>         0.1453
     45 H12        -2.4669    0.2292    0.0055 H         1 <0>         0.1615
     46 H13         3.7464   -1.5655   -0.0251 H         1 <0>         0.1405
     47 H14         3.3762    3.3930    0.0029 H         1 <0>         0.1421
     48 H15         7.9049    1.1725   -0.0361 H         1 <0>         0.2259
     49 H16        -7.4688    1.2492   -2.4653 H         1 <0>         0.1050
     50 H17        -6.6487    2.6073   -1.6507 H         1 <0>         0.1351
     51 H18        -4.9065    2.6529   -3.3768 H         1 <0>         0.1357
     52 H19        -6.4965    2.7184   -4.1748 H         1 <0>         0.1431
     53 H20        -3.6330    0.6288   -3.3944 H         1 <0>         0.1362
     54 H21        -4.2684   -0.8231   -4.2053 H         1 <0>         0.1440
     55 H22        -4.4068   -0.9376   -1.6847 H         1 <0>         0.1374
     56 H23        -5.9917   -1.0871   -2.4847 H         1 <0>         0.1051
     57 H24        -4.8415    0.2780   -6.2365 H         1 <0>         0.1237
     58 H25        -5.7368    1.8158   -6.1965 H         1 <0>         0.1237
     59 H26        -4.0620    1.7452   -5.5981 H         1 <0>         0.1225
     60 N6         -5.5222    0.8611   -4.3366 N.4       1 <0>        -0.3944
     61 H27        -6.3871    0.3178   -4.4418 H         1 <0>         0.4311
@<TRIPOS>BOND
     1    1    2 1
     2    1   36 1
     3    1   37 1
     4    1   38 1
     5    2    3 1
     6    2   39 1
     7    2   40 1
     8    3    4 1
     9    3   41 1
    10    3   42 1
    11    4    5 1
    12    5   10 ar
    13    5    6 ar
    14    6    7 ar
    15    6   43 1
    16    7    8 ar
    17    7   44 1
    18    8    9 ar
    19    8   27 1
    20    9   10 ar
    21    9   45 1
    22   10   11 1
    23   11   22 ar
    24   11   12 ar
    25   12   14 ar
    26   13   15 1
    27   14   15 1
    28   14   16 ar
    29   16   17 ar
    30   16   21 ar
    31   17   18 ar
    32   17   46 1
    33   18   26 1
    34   18   19 ar
    35   19   20 ar
    36   19   23 1
    37   20   21 ar
    38   20   47 1
    39   21   22 ar
    40   23   24 1
    41   23   25 1
    42   25   26 2
    43   25   48 1
    44   27   28 2
    45   27   29 2
    46   27   30 1
    47   30   34 1
    48   30   31 1
    49   31   32 1
    50   31   49 1
    51   31   50 1
    52   32   51 1
    53   32   52 1
    54   32   60 1
    55   33   34 1
    56   33   53 1
    57   33   54 1
    58   33   60 1
    59   34   55 1
    60   34   56 1
    61   35   57 1
    62   35   58 1
    63   35   59 1
    64   35   60 1
    65   60   61 1
@<TRIPOS>MOLECULE
ZINC04199930
   61    65     0     0     0
SMALL
USER_CHARGES

@<TRIPOS>ATOM
      1 C1          0.8528    7.7771    0.0423 C.3       1 <0>        -0.1520
      2 C2          1.0032    6.2545    0.0334 C.3       1 <0>        -0.1215
      3 C3         -0.3821    5.6051    0.0352 C.3       1 <0>         0.0443
      4 O1         -0.2416    4.1831    0.0268 O.3       1 <0>        -0.2520
      5 C4         -1.3845    3.4509    0.0272 C.ar      1 <0>         0.2503
      6 C5         -2.6174    4.0849    0.0359 C.ar      1 <0>        -0.2301
      7 C6         -3.7797    3.3387    0.0363 C.ar      1 <0>         0.0389
      8 C7         -3.7236    1.9548    0.0281 C.ar      1 <0>        -0.7291
      9 C8         -2.5061    1.3085    0.0150 C.ar      1 <0>         0.0369
     10 C9         -1.3234    2.0512    0.0193 C.ar      1 <0>        -0.1132
     11 C10        -0.0165    1.3655    0.0095 C.2       1 <0>         0.4197
     12 N1          0.0021   -0.0041    0.0020 N.am      1 <0>        -0.6641
     13 H1         -0.8594   -0.5118    0.0075 H         1 <0>         0.4171
     14 C11         1.1764   -0.6756   -0.0128 C.2       1 <0>         0.5644
     15 O2          1.2068   -1.8924   -0.0192 O.2       1 <0>        -0.5059
     16 C12         2.4150    0.1176   -0.0204 C.ar      1 <0>        -0.1866
     17 C13         3.6642   -0.4886   -0.0360 C.ar      1 <0>        -0.0131
     18 C14         4.8100    0.3024   -0.0431 C.ar      1 <0>         0.0078
     19 C15         4.6971    1.7090   -0.0344 C.ar      1 <0>         0.0963
     20 C16         3.4538    2.3159   -0.0189 C.ar      1 <0>        -0.0495
     21 C17         2.3027    1.5314   -0.0117 C.ar      1 <0>         0.1346
     22 N2          1.0700    2.0943    0.0031 N.2       1 <0>        -0.4646
     23 N3          5.9905    2.1923   -0.0447 N.2       1 <0>        -0.5035
     24 H2          6.5277   -0.9078   -0.0667 H         1 <0>         0.4368
     25 C18         6.8261    1.1169   -0.0588 C.2       1 <0>         0.2714
     26 N4          6.1386    0.0134   -0.0579 N.pl3     1 <0>        -0.5505
     27 S1         -5.2149    1.0165    0.0287 S.o2      1 <0>         2.6915
     28 O3         -4.8932   -0.2571    0.5709 O.2       1 <0>        -0.9337
     29 O4         -6.2196    1.8510    0.5885 O.2       1 <0>        -0.9321
     30 N5         -5.6358    0.7649   -1.5530 N.pl3     1 <0>        -1.0130
     31 C19        -6.5048    1.7154   -2.2633 C.3       1 <0>         0.0946
     32 C20        -5.8214    2.0977   -3.5859 C.3       1 <0>        -0.0190
     33 C21        -4.5299    0.0451   -3.6030 C.3       1 <0>        -0.0192
     34 C22        -5.1554   -0.4182   -2.2830 C.3       1 <0>         0.0929
     35 C23        -5.0015    1.1984   -5.6791 C.3       1 <0>        -0.0425
     36 H3          0.3023    8.0930   -0.8439 H         1 <0>         0.0569
     37 H4          0.3091    8.0832    0.9360 H         1 <0>         0.0587
     38 H5          1.8397    8.2397    0.0410 H         1 <0>         0.0696
     39 H6          1.5537    5.9386    0.9195 H         1 <0>         0.0792
     40 H7          1.5468    5.9483   -0.8604 H         1 <0>         0.0775
     41 H8         -0.9326    5.9210   -0.8510 H         1 <0>         0.0681
     42 H9         -0.9258    5.9113    0.9289 H         1 <0>         0.0708
     43 H10        -2.6691    5.1636    0.0420 H         1 <0>         0.1517
     44 H11        -4.7377    3.8372    0.0428 H         1 <0>         0.1495
     45 H12        -2.4669    0.2292    0.0047 H         1 <0>         0.1451
     46 H13         3.7463   -1.5654   -0.0422 H         1 <0>         0.1430
     47 H14         3.3761    3.3931   -0.0127 H         1 <0>         0.1481
     48 H15         7.9046    1.1727   -0.0692 H         1 <0>         0.2248
     49 H16        -7.4684    1.2486   -2.4672 H         1 <0>         0.1064
     50 H17        -6.6484    2.6069   -1.6528 H         1 <0>         0.1360
     51 H18        -4.9060    2.6520   -3.3786 H         1 <0>         0.1361
     52 H19        -6.4958    2.7173   -4.1769 H         1 <0>         0.1443
     53 H20        -3.6325    0.6279   -3.3955 H         1 <0>         0.1357
     54 H21        -4.2677   -0.8242   -4.2061 H         1 <0>         0.1449
     55 H22        -4.4065   -0.9380   -1.6855 H         1 <0>         0.1349
     56 H23        -5.9913   -1.0877   -2.4857 H         1 <0>         0.1070
     57 H24        -4.8405    0.2764   -6.2377 H         1 <0>         0.1242
     58 H25        -5.7358    1.8142   -6.1982 H         1 <0>         0.1246
     59 H26        -4.0611    1.7438   -5.5995 H         1 <0>         0.1231
     60 N6         -5.5215    0.8600   -4.3381 N.4       1 <0>        -0.3945
     61 H27        -6.3864    0.3167   -4.4433 H         1 <0>         0.4318
@<TRIPOS>BOND
     1    1    2 1
     2    1   36 1
     3    1   37 1
     4    1   38 1
     5    2    3 1
     6    2   39 1
     7    2   40 1
     8    3    4 1
     9    3   41 1
    10    3   42 1
    11    4    5 1
    12    5   10 ar
    13    5    6 ar
    14    6    7 ar
    15    6   43 1
    16    7    8 ar
    17    7   44 1
    18    8    9 ar
    19    8   27 1
    20    9   10 ar
    21    9   45 1
    22   10   11 1
    23   11   22 2
    24   11   12 1
    25   12   13 1
    26   12   14 am
    27   14   15 2
    28   14   16 1
    29   16   21 ar
    30   16   17 ar
    31   17   18 ar
    32   17   46 1
    33   18   26 1
    34   18   19 ar
    35   19   20 ar
    36   19   23 1
    37   20   21 ar
    38   20   47 1
    39   21   22 1
    40   23   25 2
    41   24   26 1
    42   25   48 1
    43   25   26 1
    44   27   28 2
    45   27   29 2
    46   27   30 1
    47   30   34 1
    48   30   31 1
    49   31   32 1
    50   31   49 1
    51   31   50 1
    52   32   51 1
    53   32   52 1
    54   32   60 1
    55   33   34 1
    56   33   53 1
    57   33   54 1
    58   33   60 1
    59   34   55 1
    60   34   56 1
    61   35   57 1
    62   35   58 1
    63   35   59 1
    64   35   60 1
    65   60   61 1
@<TRIPOS>MOLECULE
ZINC04199931
   58    62     0     0     0
SMALL
USER_CHARGES

@<TRIPOS>ATOM
      1 C1         -3.3577    6.0128    7.0978 C.3       1 <0>        -0.1511
      2 C2         -3.6478    4.6169    6.5428 C.3       1 <0>        -0.1204
      3 C3         -2.7752    4.3662    5.3113 C.3       1 <0>         0.0444
      4 O1         -3.0461    3.0624    4.7930 O.3       1 <0>        -0.2559
      5 C4         -2.3503    2.6801    3.6921 C.ar      1 <0>         0.2458
      6 C5         -1.4256    3.5399    3.1197 C.ar      1 <0>        -0.2341
      7 C6         -0.7144    3.1477    2.0025 C.ar      1 <0>         0.0427
      8 C7         -0.9267    1.9002    1.4394 C.ar      1 <0>        -0.7227
      9 C8         -1.8425    1.0331    1.9959 C.ar      1 <0>         0.0458
     10 C9         -2.5639    1.4151    3.1289 C.ar      1 <0>        -0.1239
     11 C10        -3.5456    0.4913    3.7301 C.2       1 <0>         0.4335
     12 N1         -3.7259   -0.7368    3.1509 N.am      1 <0>        -0.6616
     13 H1         -3.1968   -0.9850    2.3395 H         1 <0>         0.4218
     14 C11        -4.6140   -1.6167    3.6677 C.2       1 <0>         0.5631
     15 O2         -4.7832   -2.7116    3.1631 O.2       1 <0>        -0.5091
     16 C12        -5.3671   -1.2036    4.8606 C.ar      1 <0>        -0.1786
     17 C13        -6.3000   -2.0452    5.4581 C.ar      1 <0>        -0.0233
     18 C14        -6.9855   -1.6164    6.5790 C.ar      1 <0>         0.0357
     19 C15        -6.7452   -0.3349    7.1183 C.ar      1 <0>         0.0937
     20 C16        -5.8114    0.5116    6.5229 C.ar      1 <0>        -0.0485
     21 C17        -5.1183    0.0862    5.3949 C.ar      1 <0>         0.1377
     22 N2         -4.1987    0.8817    4.7940 N.2       1 <0>        -0.4736
     23 N3         -7.5568   -0.2053    8.1992 N.2       1 <0>        -0.4980
     24 C18        -8.2587   -1.2902    8.3546 C.2       1 <0>         0.2897
     25 N4         -7.9497   -2.1933    7.3872 N.pl3     1 <0>        -0.4898
     26 C19        -8.5300   -3.5291    7.2288 C.3       1 <0>         0.1539
     27 C20        -7.6430   -4.5451    7.9009 C.ar      1 <0>        -0.1352
     28 C21        -6.6308   -5.1586    7.1865 C.ar      1 <0>        -0.0672
     29 C22        -5.8136   -6.0869    7.8032 C.ar      1 <0>        -0.1522
     30 C23        -6.0157   -6.4103    9.1342 C.ar      1 <0>         0.1130
     31 C24        -7.0331   -5.7992    9.8473 C.ar      1 <0>        -0.1541
     32 C25        -7.8456   -4.8672    9.2300 C.ar      1 <0>        -0.0682
     33 F1         -5.2204   -7.3212    9.7368 F         1 <0>        -0.1348
     34 S1         -0.0172    1.4168    0.0098 S.o2      1 <0>         2.7060
     35 O3          0.0021   -0.0041    0.0020 O.2       1 <0>        -0.9574
     36 O4          1.1718    2.1948    0.0027 O.2       1 <0>        -0.9538
     37 N5         -0.8975    1.8855   -1.3122 N.pl3     1 <0>        -1.2440
     38 H2         -2.3064    6.0815    7.3773 H         1 <0>         0.0574
     39 H3         -3.5808    6.7601    6.3363 H         1 <0>         0.0572
     40 H4         -3.9793    6.1914    7.9752 H         1 <0>         0.0666
     41 H5         -4.6991    4.5482    6.2633 H         1 <0>         0.0769
     42 H6         -3.4247    3.8696    7.3043 H         1 <0>         0.0769
     43 H7         -1.7239    4.4349    5.5908 H         1 <0>         0.0681
     44 H8         -2.9982    5.1135    4.5498 H         1 <0>         0.0678
     45 H9         -1.2576    4.5157    3.5508 H         1 <0>         0.1490
     46 H10         0.0081    3.8193    1.5628 H         1 <0>         0.1518
     47 H11        -2.0015    0.0594    1.5564 H         1 <0>         0.1472
     48 H12        -6.4876   -3.0268    5.0486 H         1 <0>         0.1371
     49 H13        -5.6269    1.4924    6.9356 H         1 <0>         0.1476
     50 H14        -8.9828   -1.4499    9.1398 H         1 <0>         0.2184
     51 H15        -9.5195   -3.5519    7.6855 H         1 <0>         0.1124
     52 H16        -8.6140   -3.7653    6.1680 H         1 <0>         0.1029
     53 H17        -6.4760   -4.9092    6.1471 H         1 <0>         0.1334
     54 H18        -5.0204   -6.5630    7.2460 H         1 <0>         0.1403
     55 H19        -7.1913   -6.0504   10.8857 H         1 <0>         0.1405
     56 H20        -8.6390   -4.3902    9.7861 H         1 <0>         0.1361
     57 H21        -1.2009    1.2230   -1.9525 H         1 <0>         0.4234
     58 H22        -1.1097    2.8224   -1.4463 H         1 <0>         0.4195
@<TRIPOS>BOND
     1    1    2 1
     2    1   38 1
     3    1   39 1
     4    1   40 1
     5    2    3 1
     6    2   41 1
     7    2   42 1
     8    3    4 1
     9    3   43 1
    10    3   44 1
    11    4    5 1
    12    5   10 ar
    13    5    6 ar
    14    6    7 ar
    15    6   45 1
    16    7    8 ar
    17    7   46 1
    18    8    9 ar
    19    8   34 1
    20    9   10 ar
    21    9   47 1
    22   10   11 1
    23   11   22 2
    24   11   12 1
    25   12   13 1
    26   12   14 am
    27   14   15 2
    28   14   16 1
    29   16   21 ar
    30   16   17 ar
    31   17   18 ar
    32   17   48 1
    33   18   25 1
    34   18   19 ar
    35   19   20 ar
    36   19   23 1
    37   20   21 ar
    38   20   49 1
    39   21   22 1
    40   23   24 2
    41   24   25 1
    42   24   50 1
    43   25   26 1
    44   26   27 1
    45   26   51 1
    46   26   52 1
    47   27   32 ar
    48   27   28 ar
    49   28   29 ar
    50   28   53 1
    51   29   30 ar
    52   29   54 1
    53   30   31 ar
    54   30   33 1
    55   31   32 ar
    56   31   55 1
    57   32   56 1
    58   34   35 2
    59   34   36 2
    60   34   37 1
    61   37   57 1
    62   37   58 1
@<TRIPOS>MOLECULE
ZINC04199931
   58    62     0     0     0
SMALL
USER_CHARGES

@<TRIPOS>ATOM
      1 C1         -3.3579    6.0129    7.0976 C.3       1 <0>        -0.1510
      2 C2         -3.6480    4.6170    6.5426 C.3       1 <0>        -0.1311
      3 C3         -2.7758    4.3665    5.3108 C.3       1 <0>         0.0550
      4 O1         -3.0467    3.0627    4.7925 O.3       1 <0>        -0.3300
      5 C4         -2.3512    2.6806    3.6914 C.ar      1 <0>         0.2132
      6 C5         -1.4268    3.5405    3.1187 C.ar      1 <0>        -0.2253
      7 C6         -0.7159    3.1485    2.0013 C.ar      1 <0>         0.0486
      8 C7         -0.9282    1.9010    1.4382 C.ar      1 <0>        -0.7242
      9 C8         -1.8437    1.0337    1.9949 C.ar      1 <0>         0.0961
     10 C9         -2.5648    1.4156    3.1282 C.ar      1 <0>        -0.1340
     11 C10        -3.5462    0.4916    3.7296 C.2       1 <0>         0.4862
     12 N1         -3.7265   -0.7365    3.1504 N.2       1 <0>        -0.6034
     13 H1         -4.0195    1.7906    5.1704 H         1 <0>         0.4300
     14 C11        -4.6143   -1.6165    3.6674 C.2       1 <0>         0.5348
     15 O2         -4.7835   -2.7114    3.1628 O.2       1 <0>        -0.4922
     16 C12        -5.3755   -1.1991    4.8537 C.ar      1 <0>        -0.1881
     17 C13        -6.3128   -2.0384    5.4477 C.ar      1 <0>        -0.0109
     18 C14        -7.0023   -1.6075    6.5653 C.ar      1 <0>         0.0279
     19 C15        -6.7617   -0.3261    7.1048 C.ar      1 <0>         0.1055
     20 C16        -5.8235    0.5181    6.5130 C.ar      1 <0>        -0.1091
     21 C17        -5.1264    0.0905    5.3883 C.ar      1 <0>         0.1547
     22 N2         -4.2028    0.8839    4.7906 N.pl3     1 <0>        -0.5763
     23 N3         -7.5777   -0.1941    8.1821 N.2       1 <0>        -0.5016
     24 C18        -8.2826   -1.2775    8.3351 C.2       1 <0>         0.2907
     25 N4         -7.9712   -2.1818    7.3696 N.pl3     1 <0>        -0.4873
     26 C19        -8.5535   -3.5166    7.2095 C.3       1 <0>         0.1532
     27 C20        -7.6716   -4.5339    7.8861 C.ar      1 <0>        -0.1360
     28 C21        -6.6575   -5.1500    7.1766 C.ar      1 <0>        -0.0665
     29 C22        -5.8450   -6.0796    7.7974 C.ar      1 <0>        -0.1516
     30 C23        -6.0536   -6.4017    9.1277 C.ar      1 <0>         0.1132
     31 C24        -7.0728   -5.7880    9.8360 C.ar      1 <0>        -0.1548
     32 C25        -7.8807   -4.8548    9.2146 C.ar      1 <0>        -0.0687
     33 F1         -5.2628   -7.3138    9.7344 F         1 <0>        -0.1348
     34 S1         -0.0191    1.4178    0.0083 S.o2      1 <0>         2.7054
     35 O3          0.0004   -0.0031    0.0004 O.2       1 <0>        -0.9481
     36 O4          1.1698    2.1959    0.0008 O.2       1 <0>        -0.9543
     37 N5         -0.8998    1.8865   -1.3134 N.pl3     1 <0>        -1.2426
     38 H2         -2.3066    6.0817    7.3768 H         1 <0>         0.0610
     39 H3         -3.5814    6.7602    6.3362 H         1 <0>         0.0608
     40 H4         -3.9793    6.1914    7.9752 H         1 <0>         0.0704
     41 H5         -4.6994    4.5482    6.2634 H         1 <0>         0.0787
     42 H6         -3.4246    3.8697    7.3040 H         1 <0>         0.0787
     43 H7         -1.7244    4.4353    5.5900 H         1 <0>         0.0801
     44 H8         -2.9991    5.1138    4.5494 H         1 <0>         0.0799
     45 H9         -1.2588    4.5163    3.5499 H         1 <0>         0.1518
     46 H10         0.0064    3.8202    1.5614 H         1 <0>         0.1558
     47 H11        -2.0027    0.0600    1.5554 H         1 <0>         0.1753
     48 H12        -6.5006   -3.0199    5.0380 H         1 <0>         0.1418
     49 H13        -5.6388    1.4988    6.9258 H         1 <0>         0.1426
     50 H14        -9.0104   -1.4352    9.1172 H         1 <0>         0.2186
     51 H15        -9.5451   -3.5370    7.6619 H         1 <0>         0.1126
     52 H16        -8.6334   -3.7533    6.1485 H         1 <0>         0.1041
     53 H17        -6.4977   -4.9016    6.1377 H         1 <0>         0.1346
     54 H18        -5.0503   -6.5577    7.2440 H         1 <0>         0.1412
     55 H19        -7.2361   -6.0382   10.8739 H         1 <0>         0.1402
     56 H20        -8.6755   -4.3758    9.7669 H         1 <0>         0.1356
     57 H21        -1.2034    1.2240   -1.9537 H         1 <0>         0.4249
     58 H22        -1.1122    2.8233   -1.4474 H         1 <0>         0.4185
@<TRIPOS>BOND
     1    1    2 1
     2    1   38 1
     3    1   39 1
     4    1   40 1
     5    2    3 1
     6    2   41 1
     7    2   42 1
     8    3    4 1
     9    3   43 1
    10    3   44 1
    11    4    5 1
    12    5   10 ar
    13    5    6 ar
    14    6    7 ar
    15    6   45 1
    16    7    8 ar
    17    7   46 1
    18    8    9 ar
    19    8   34 1
    20    9   10 ar
    21    9   47 1
    22   10   11 1
    23   11   22 1
    24   11   12 2
    25   12   14 1
    26   13   22 1
    27   14   15 2
    28   14   16 1
    29   16   17 ar
    30   16   21 ar
    31   17   18 ar
    32   17   48 1
    33   18   25 1
    34   18   19 ar
    35   19   20 ar
    36   19   23 1
    37   20   21 ar
    38   20   49 1
    39   21   22 1
    40   23   24 2
    41   24   25 1
    42   24   50 1
    43   25   26 1
    44   26   27 1
    45   26   51 1
    46   26   52 1
    47   27   32 ar
    48   27   28 ar
    49   28   29 ar
    50   28   53 1
    51   29   30 ar
    52   29   54 1
    53   30   31 ar
    54   30   33 1
    55   31   32 ar
    56   31   55 1
    57   32   56 1
    58   34   35 2
    59   34   36 2
    60   34   37 1
    61   37   57 1
    62   37   58 1
@<TRIPOS>MOLECULE
ZINC04199931
   58    62     0     0     0
SMALL
USER_CHARGES

@<TRIPOS>ATOM
      1 C1         -3.3595    6.0138    7.0963 C.3       1 <0>        -0.1506
      2 C2         -3.6493    4.6177    6.5416 C.3       1 <0>        -0.1195
      3 C3         -2.7767    4.3670    5.3100 C.3       1 <0>         0.0452
      4 O1         -3.0473    3.0630    4.7920 O.3       1 <0>        -0.2594
      5 C4         -2.3515    2.6807    3.6911 C.ar      1 <0>         0.2338
      6 C5         -1.4271    3.5407    3.1185 C.ar      1 <0>        -0.2422
      7 C6         -0.7159    3.1485    2.0013 C.ar      1 <0>         0.0378
      8 C7         -0.9279    1.9008    1.4384 C.ar      1 <0>        -0.7329
      9 C8         -1.8434    1.0336    1.9952 C.ar      1 <0>         0.0730
     10 C9         -2.5648    1.4156    3.1282 C.ar      1 <0>        -0.1022
     11 C10        -3.5462    0.4916    3.7296 C.ar      1 <0>         0.4098
     12 N1         -3.7345   -0.7321    3.1439 N.ar      1 <0>        -0.5706
     13 H1         -5.4866   -3.2080    3.6720 H         1 <0>         0.4257
     14 C11        -4.6231   -1.6118    3.6603 C.ar      1 <0>         0.4482
     15 O2         -4.7965   -2.7044    3.1522 O.3       1 <0>        -0.3749
     16 C12        -5.3625   -1.2061    4.8642 C.ar      1 <0>        -0.2214
     17 C13        -6.2908   -2.0502    5.4654 C.ar      1 <0>        -0.0800
     18 C14        -6.9673   -1.6263    6.5936 C.ar      1 <0>         0.0567
     19 C15        -6.7230   -0.3469    7.1361 C.ar      1 <0>         0.0917
     20 C16        -5.7985    0.5046    6.5333 C.ar      1 <0>        -0.0442
     21 C17        -5.1098    0.0816    5.4018 C.ar      1 <0>         0.1689
     22 N2         -4.1951    0.8798    4.7969 N.ar      1 <0>        -0.5062
     23 N3         -7.5262   -0.2218    8.2239 N.2       1 <0>        -0.4994
     24 C18        -8.2266   -1.3076    8.3804 C.2       1 <0>         0.2985
     25 N4         -7.9249   -2.2067    7.4070 N.pl3     1 <0>        -0.4999
     26 C19        -8.5061   -3.5420    7.2478 C.3       1 <0>         0.1561
     27 C20        -7.6137   -4.5604    7.9088 C.ar      1 <0>        -0.1352
     28 C21        -6.6069   -5.1708    7.1840 C.ar      1 <0>        -0.0700
     29 C22        -5.7847   -6.1013    7.7906 C.ar      1 <0>        -0.1526
     30 C23        -5.9763   -6.4301    9.1218 C.ar      1 <0>         0.1139
     31 C24        -6.9882   -5.8222    9.8453 C.ar      1 <0>        -0.1522
     32 C25        -7.8057   -4.8879    9.2382 C.ar      1 <0>        -0.0679
     33 F1         -5.1761   -7.3432    9.7145 F         1 <0>        -0.1338
     34 S1         -0.0184    1.4175    0.0088 S.o2      1 <0>         2.7068
     35 O3          0.0013   -0.0034    0.0013 O.2       1 <0>        -0.9567
     36 O4          1.1704    2.1958    0.0014 O.2       1 <0>        -0.9595
     37 N5         -0.8990    1.8857   -1.3132 N.pl3     1 <0>        -1.2450
     38 H2         -2.3082    6.0828    7.3757 H         1 <0>         0.0573
     39 H3         -3.5829    6.7609    6.3347 H         1 <0>         0.0571
     40 H4         -3.9811    6.1924    7.9737 H         1 <0>         0.0655
     41 H5         -4.7006    4.5486    6.2622 H         1 <0>         0.0752
     42 H6         -3.4259    3.8706    7.3032 H         1 <0>         0.0753
     43 H7         -1.7254    4.4361    5.5894 H         1 <0>         0.0658
     44 H8         -3.0000    5.1141    4.5484 H         1 <0>         0.0655
     45 H9         -1.2594    4.5166    3.5494 H         1 <0>         0.1442
     46 H10         0.0063    3.8202    1.5614 H         1 <0>         0.1474
     47 H11        -2.0022    0.0598    1.5558 H         1 <0>         0.1624
     48 H12        -6.4816   -3.0301    5.0532 H         1 <0>         0.1259
     49 H13        -5.6146    1.4857    6.9457 H         1 <0>         0.1485
     50 H14        -8.9445   -1.4706    9.1706 H         1 <0>         0.2190
     51 H15        -9.4920   -3.5669    7.7121 H         1 <0>         0.1122
     52 H16        -8.5984   -3.7739    6.1867 H         1 <0>         0.1011
     53 H17        -6.4604   -4.9172    6.1445 H         1 <0>         0.1290
     54 H18        -4.9958   -6.5750    7.2253 H         1 <0>         0.1407
     55 H19        -7.1382   -6.0776   10.8839 H         1 <0>         0.1412
     56 H20        -8.5949   -4.4134    9.8024 H         1 <0>         0.1365
     57 H21        -1.2023    1.2230   -1.9533 H         1 <0>         0.4223
     58 H22        -1.1115    2.8225   -1.4474 H         1 <0>         0.4181
@<TRIPOS>BOND
     1    1    2 1
     2    1   38 1
     3    1   39 1
     4    1   40 1
     5    2    3 1
     6    2   41 1
     7    2   42 1
     8    3    4 1
     9    3   43 1
    10    3   44 1
    11    4    5 1
    12    5   10 ar
    13    5    6 ar
    14    6    7 ar
    15    6   45 1
    16    7    8 ar
    17    7   46 1
    18    8    9 ar
    19    8   34 1
    20    9   10 ar
    21    9   47 1
    22   10   11 1
    23   11   22 ar
    24   11   12 ar
    25   12   14 ar
    26   13   15 1
    27   14   15 1
    28   14   16 ar
    29   16   17 ar
    30   16   21 ar
    31   17   18 ar
    32   17   48 1
    33   18   25 1
    34   18   19 ar
    35   19   20 ar
    36   19   23 1
    37   20   21 ar
    38   20   49 1
    39   21   22 ar
    40   23   24 2
    41   24   25 1
    42   24   50 1
    43   25   26 1
    44   26   27 1
    45   26   51 1
    46   26   52 1
    47   27   32 ar
    48   27   28 ar
    49   28   29 ar
    50   28   53 1
    51   29   30 ar
    52   29   54 1
    53   30   31 ar
    54   30   33 1
    55   31   32 ar
    56   31   55 1
    57   32   56 1
    58   34   35 2
    59   34   36 2
    60   34   37 1
    61   37   57 1
    62   37   58 1
@<TRIPOS>MOLECULE
ZINC04199932
   52    55     0     0     0
SMALL
USER_CHARGES

@<TRIPOS>ATOM
      1 C1          1.2763    6.2526    0.0222 C.3       1 <0>         0.0213
      2 O1          0.0058    5.5987    0.0314 O.3       1 <0>        -0.3016
      3 C2          0.0112    4.2393    0.0246 C.ar      1 <0>         0.1222
      4 C3          1.1997    3.5709    0.0097 C.ar      1 <0>        -0.1644
      5 C4          1.2119    2.1638    0.0021 C.ar      1 <0>        -0.0563
      6 C5          2.4199    1.4537   -0.0140 C.ar      1 <0>         0.0079
      7 C6          2.4235    0.0665   -0.0206 C.ar      1 <0>        -0.2004
      8 C7          1.2158   -0.6544   -0.0131 C.ar      1 <0>        -0.0949
      9 C8          0.0021   -0.0041    0.0020 C.ar      1 <0>        -0.0150
     10 C9         -0.0177    1.4572    0.0101 C.ar      1 <0>         0.0063
     11 C10        -1.2251    2.1651    0.0196 C.ar      1 <0>        -0.1882
     12 C11        -1.2060    3.5419    0.0325 C.ar      1 <0>         0.1458
     13 O2         -2.3768    4.2312    0.0470 O.3       1 <0>        -0.2967
     14 C12        -3.5818    3.4632    0.0544 C.3       1 <0>         0.0215
     15 C13        -1.2637   -0.7737    0.0105 C.ar      1 <0>         0.0245
     16 C14        -1.5817   -1.5826    1.1010 C.ar      1 <0>        -0.2188
     17 C15        -2.7672   -2.2967    1.1094 C.ar      1 <0>         0.1554
     18 C16        -3.6361   -2.2165    0.0261 C.ar      1 <0>         0.0347
     19 C17        -3.3182   -1.4143   -1.0649 C.ar      1 <0>         0.1536
     20 C18        -2.1361   -0.6946   -1.0746 C.ar      1 <0>        -0.2194
     21 O3         -4.1694   -1.3375   -2.1228 O.3       1 <0>        -0.2988
     22 C19        -3.7795   -0.4950   -3.2092 C.3       1 <0>         0.0227
     23 O4         -4.7983   -2.9240    0.0335 O.3       1 <0>        -0.3120
     24 C20        -4.7576   -4.2441   -0.5123 C.3       1 <0>         0.0352
     25 O5         -3.0802   -3.0817    2.1749 O.3       1 <0>        -0.2988
     26 C21        -2.1423   -3.1170    3.2524 C.3       1 <0>         0.0224
     27 C22         1.5946   -2.1150   -0.0246 C.3       1 <0>         0.0955
     28 O6          3.0471   -2.1624   -0.0387 O.3       1 <0>        -0.3162
     29 C23         3.5300   -0.9097   -0.0364 C.2       1 <0>         0.5243
     30 O7          4.7101   -0.6209   -0.0464 O.2       1 <0>        -0.4489
     31 H1          1.1292    7.3326    0.0290 H         1 <0>         0.1064
     32 H2          1.8432    5.9575    0.9053 H         1 <0>         0.0596
     33 H3          1.8258    5.9664   -0.8746 H         1 <0>         0.0596
     34 H4          2.1296    4.1203    0.0040 H         1 <0>         0.1500
     35 H5          3.3566    1.9913   -0.0200 H         1 <0>         0.1430
     36 H6         -2.1659    1.6348    0.0216 H         1 <0>         0.1490
     37 H7         -4.4405    4.1345    0.0659 H         1 <0>         0.1082
     38 H8         -3.6204    2.8390   -0.8383 H         1 <0>         0.0583
     39 H9         -3.6037    2.8302    0.9415 H         1 <0>         0.0607
     40 H10        -0.9050   -1.6489    1.9401 H         1 <0>         0.1389
     41 H11        -1.8897   -0.0718   -1.9219 H         1 <0>         0.1392
     42 H12        -2.8329   -0.8462   -3.6198 H         1 <0>         0.0589
     43 H13        -4.5451   -0.5243   -3.9846 H         1 <0>         0.1060
     44 H14        -3.6633    0.5282   -2.8519 H         1 <0>         0.0575
     45 H15        -4.0439   -4.8474    0.0487 H         1 <0>         0.0455
     46 H16        -5.7474   -4.6958   -0.4448 H         1 <0>         0.0943
     47 H17        -4.4507   -4.1960   -1.5570 H         1 <0>         0.0453
     48 H18        -2.0147   -2.1125    3.6561 H         1 <0>         0.0595
     49 H19        -2.5129   -3.7788    4.0352 H         1 <0>         0.1060
     50 H20        -1.1838   -3.4865    2.8879 H         1 <0>         0.0582
     51 H21         1.2129   -2.6075    0.8698 H         1 <0>         0.1154
     52 H22         1.1960   -2.5978   -0.9169 H         1 <0>         0.1176
@<TRIPOS>BOND
     1    1    2 1
     2    1   31 1
     3    1   32 1
     4    1   33 1
     5    2    3 1
     6    3   12 ar
     7    3    4 ar
     8    4    5 ar
     9    4   34 1
    10    5   10 ar
    11    5    6 ar
    12    6    7 ar
    13    6   35 1
    14    7   29 1
    15    7    8 ar
    16    8    9 ar
    17    8   27 1
    18    9   10 ar
    19    9   15 1
    20   10   11 ar
    21   11   12 ar
    22   11   36 1
    23   12   13 1
    24   13   14 1
    25   14   37 1
    26   14   38 1
    27   14   39 1
    28   15   20 ar
    29   15   16 ar
    30   16   17 ar
    31   16   40 1
    32   17   18 ar
    33   17   25 1
    34   18   19 ar
    35   18   23 1
    36   19   20 ar
    37   19   21 1
    38   20   41 1
    39   21   22 1
    40   22   42 1
    41   22   43 1
    42   22   44 1
    43   23   24 1
    44   24   45 1
    45   24   46 1
    46   24   47 1
    47   25   26 1
    48   26   48 1
    49   26   49 1
    50   26   50 1
    51   27   28 1
    52   27   51 1
    53   27   52 1
    54   28   29 1
    55   29   30 2
@<TRIPOS>MOLECULE
ZINC04199933
   64    66     0     0     0
SMALL
USER_CHARGES

@<TRIPOS>ATOM
      1 C1          6.5019   -4.2604    4.2082 C.3       1 <0>         0.0835
      2 N1          5.8673   -4.4237    2.8979 N.am      1 <0>        -0.6113
      3 C2          5.3313   -5.7281    2.5011 C.3       1 <0>         0.0619
      4 C3          5.7767   -3.3740    2.0575 C.2       1 <0>         0.5540
      5 O1          6.2849   -2.3106    2.3561 O.2       1 <0>        -0.5158
      6 C4          5.0601   -3.5153    0.7741 C.ar      1 <0>        -0.0930
      7 C5          5.4250   -4.5062   -0.1162 C.ar      1 <0>        -0.0601
      8 C6          4.7464   -4.6451   -1.3399 C.ar      1 <0>        -0.0304
      9 C7          5.1197   -5.6546   -2.2449 C.ar      1 <0>        -0.1774
     10 C8          4.4588   -5.7857   -3.4317 C.ar      1 <0>         0.1341
     11 C9          3.4047   -4.9217   -3.7641 C.ar      1 <0>         0.1340
     12 C10         3.0181   -3.9246   -2.8984 C.ar      1 <0>        -0.1780
     13 C11         3.6785   -3.7740   -1.6695 C.ar      1 <0>        -0.0143
     14 C12         3.2928   -2.7485   -0.7727 C.ar      1 <0>         0.0133
     15 C13         3.9634   -2.6062    0.4438 C.ar      1 <0>        -0.0560
     16 C14         3.5694   -1.5479    1.3871 C.2       1 <0>         0.5214
     17 O2          2.7230   -1.7700    2.2307 O.2       1 <0>        -0.4886
     18 O3          4.1472   -0.3319    1.3157 O.3       1 <0>        -0.3387
     19 C15         3.7095    0.6634    2.2780 C.3       1 <0>         0.0341
     20 C16         2.1823   -1.8372   -1.1196 C.ar      1 <0>         0.0069
     21 C17         0.8853   -2.3361   -1.2571 C.ar      1 <0>        -0.2115
     22 C18        -0.1523   -1.4813   -1.5823 C.ar      1 <0>         0.1509
     23 C19         0.0946   -0.1241   -1.7673 C.ar      1 <0>         0.0395
     24 C20         1.3873    0.3746   -1.6361 C.ar      1 <0>         0.1535
     25 C21         2.4283   -0.4761   -1.3110 C.ar      1 <0>        -0.2117
     26 O4          1.6262    1.7004   -1.8222 O.3       1 <0>        -0.2984
     27 C22         2.9754    2.1447   -1.6659 C.3       1 <0>         0.0214
     28 O5         -0.9281    0.7152   -2.0819 O.3       1 <0>        -0.3107
     29 C23        -1.2086    0.9040   -3.4703 C.3       1 <0>         0.0351
     30 O6         -1.4157   -1.9665   -1.7162 O.3       1 <0>        -0.2982
     31 C24        -1.5979   -3.3683   -1.5069 C.3       1 <0>         0.0222
     32 O7          2.7606   -5.0705   -4.9511 O.3       1 <0>        -0.2976
     33 C25         1.6960   -4.1590   -5.2302 C.3       1 <0>         0.0219
     34 O8          4.8259   -6.7635   -4.3009 O.3       1 <0>        -0.3003
     35 C26         5.9064   -7.6109   -3.9055 C.3       1 <0>         0.0213
     36 H1          5.7501   -3.9708    4.9424 H         1 <0>         0.0588
     37 H2          6.9604   -5.2022    4.5098 H         1 <0>         0.0751
     38 H3          7.2673   -3.4867    4.1473 H         1 <0>         0.0809
     39 H4          4.8132   -5.6330    1.5469 H         1 <0>         0.0856
     40 H5          6.1490   -6.4418    2.4010 H         1 <0>         0.0675
     41 H6          4.6328   -6.0801    3.2603 H         1 <0>         0.0692
     42 H7          6.2353   -5.1769    0.1284 H         1 <0>         0.1454
     43 H8          5.9293   -6.3264   -2.0006 H         1 <0>         0.1492
     44 H9          2.2061   -3.2630   -3.1619 H         1 <0>         0.1484
     45 H10         3.9073    0.3040    3.2879 H         1 <0>         0.0656
     46 H11         4.2521    1.5938    2.1107 H         1 <0>         0.1050
     47 H12         2.6406    0.8395    2.1579 H         1 <0>         0.0639
     48 H13         0.6925   -3.3885   -1.1099 H         1 <0>         0.1406
     49 H14         3.4306   -0.0880   -1.2056 H         1 <0>         0.1451
     50 H15         3.0266    3.2193   -1.8413 H         1 <0>         0.1059
     51 H16         3.3153    1.9251   -0.6538 H         1 <0>         0.0609
     52 H17         3.6132    1.6287   -2.3835 H         1 <0>         0.0591
     53 H18        -2.0446    1.5947   -3.5814 H         1 <0>         0.0943
     54 H19        -0.3293    1.3151   -3.9660 H         1 <0>         0.0453
     55 H20        -1.4661   -0.0538   -3.9225 H         1 <0>         0.0448
     56 H21        -0.9931   -3.9242   -2.2233 H         1 <0>         0.0563
     57 H22        -1.2906   -3.6273   -0.4937 H         1 <0>         0.0602
     58 H23        -2.6489   -3.6225   -1.6440 H         1 <0>         0.1063
     59 H24         2.0817   -3.1395   -5.2321 H         1 <0>         0.0593
     60 H25         1.2686   -4.3875   -6.2065 H         1 <0>         0.1073
     61 H26         0.9257   -4.2546   -4.4650 H         1 <0>         0.0574
     62 H27         6.0968   -8.3457   -4.6877 H         1 <0>         0.1060
     63 H28         6.8011   -7.0088   -3.7470 H         1 <0>         0.0599
     64 H29         5.6455   -8.1245   -2.9802 H         1 <0>         0.0598
@<TRIPOS>BOND
     1    1    2 1
     2    1   36 1
     3    1   37 1
     4    1   38 1
     5    2    3 1
     6    2    4 am
     7    3   39 1
     8    3   40 1
     9    3   41 1
    10    4    5 2
    11    4    6 1
    12    6   15 ar
    13    6    7 ar
    14    7    8 ar
    15    7   42 1
    16    8   13 ar
    17    8    9 ar
    18    9   10 ar
    19    9   43 1
    20   10   11 ar
    21   10   34 1
    22   11   12 ar
    23   11   32 1
    24   12   13 ar
    25   12   44 1
    26   13   14 ar
    27   14   15 ar
    28   14   20 1
    29   15   16 1
    30   16   17 2
    31   16   18 1
    32   18   19 1
    33   19   45 1
    34   19   46 1
    35   19   47 1
    36   20   25 ar
    37   20   21 ar
    38   21   22 ar
    39   21   48 1
    40   22   23 ar
    41   22   30 1
    42   23   24 ar
    43   23   28 1
    44   24   25 ar
    45   24   26 1
    46   25   49 1
    47   26   27 1
    48   27   50 1
    49   27   51 1
    50   27   52 1
    51   28   29 1
    52   29   53 1
    53   29   54 1
    54   29   55 1
    55   30   31 1
    56   31   56 1
    57   31   57 1
    58   31   58 1
    59   32   33 1
    60   33   59 1
    61   33   60 1
    62   33   61 1
    63   34   35 1
    64   35   62 1
    65   35   63 1
    66   35   64 1
@<TRIPOS>MOLECULE
ZINC04199934
   64    67     0     0     0
SMALL
USER_CHARGES

@<TRIPOS>ATOM
      1 C1          2.9678    2.2751   -1.7726 C.3       1 <0>         0.0254
      2 O1          1.5746    2.0641   -1.5348 O.3       1 <0>        -0.3005
      3 C2          1.2021    0.8298   -1.1020 C.ar      1 <0>         0.1486
      4 C3          2.1565   -0.1527   -0.9116 C.ar      1 <0>        -0.1644
      5 C4          1.7733   -1.4200   -0.4671 C.ar      1 <0>         0.0332
      6 C5          0.4267   -1.6917   -0.2161 C.ar      1 <0>        -0.2134
      7 C6         -0.5239   -0.7057   -0.4081 C.ar      1 <0>         0.1448
      8 C7         -0.1387    0.5583   -0.8457 C.ar      1 <0>         0.0416
      9 O2         -1.0746    1.5279   -1.0280 O.3       1 <0>        -0.3120
     10 C8         -1.6756    1.6145   -2.3216 C.3       1 <0>         0.0354
     11 O3         -1.8354   -0.9694   -0.1634 O.3       1 <0>        -0.3006
     12 C9         -2.1589   -2.2856    0.2895 C.3       1 <0>         0.0240
     13 C10         2.7912   -2.4716   -0.2623 C.2       1 <0>        -0.0204
     14 C11         2.7878   -3.6847   -1.0937 C.ar      1 <0>         0.0009
     15 C12         1.8361   -3.8823   -2.0915 C.ar      1 <0>        -0.1677
     16 C13         1.8706   -5.0378   -2.8499 C.ar      1 <0>         0.1432
     17 C14         2.8530   -6.0065   -2.6219 C.ar      1 <0>         0.1082
     18 C15         3.8032   -5.8237   -1.6356 C.ar      1 <0>        -0.1125
     19 C16         3.7809   -4.6636   -0.8624 C.ar      1 <0>        -0.1234
     20 C17         4.7718   -4.4288    0.1956 C.2       1 <0>         0.5539
     21 O4          5.6372   -5.2570    0.4146 O.2       1 <0>        -0.5017
     22 N1          4.7227   -3.2976    0.9234 N.am      1 <0>        -0.4681
     23 C18         3.7634   -2.3262    0.7096 C.2       1 <0>         0.1122
     24 C19         3.7735   -1.1160    1.5365 C.2       1 <0>         0.4961
     25 O5          2.9751   -0.2246    1.3195 O.2       1 <0>        -0.4598
     26 O6          4.6684   -0.9910    2.5383 O.3       1 <0>        -0.3297
     27 C20         4.5541    0.1656    3.3698 C.3       1 <0>         0.0310
     28 C21         5.6775   -3.0962    1.9258 C.ar      1 <0>         0.1213
     29 C22         6.9247   -2.5757    1.6046 C.ar      1 <0>        -0.0894
     30 C23         7.8631   -2.3732    2.5974 C.ar      1 <0>        -0.1101
     31 C24         7.5662   -2.6983    3.9084 C.ar      1 <0>        -0.1027
     32 C25         6.3275   -3.2220    4.2306 C.ar      1 <0>        -0.1107
     33 C26         5.3825   -3.4216    3.2436 C.ar      1 <0>        -0.0814
     34 O7          2.8731   -7.1369   -3.3761 O.3       1 <0>        -0.2984
     35 C27         3.9021   -8.0873   -3.0934 C.3       1 <0>         0.0206
     36 O8          0.9439   -5.2333   -3.8235 O.3       1 <0>        -0.2954
     37 C28        -0.0321   -4.2056   -4.0061 C.3       1 <0>         0.0207
     38 H1          3.5232    2.1084   -0.8496 H         1 <0>         0.0574
     39 H2          3.3154    1.5796   -2.5365 H         1 <0>         0.0552
     40 H3          3.1275    3.2982   -2.1130 H         1 <0>         0.1033
     41 H4          3.1973    0.0597   -1.1067 H         1 <0>         0.1298
     42 H5          0.1279   -2.6708    0.1280 H         1 <0>         0.1360
     43 H6         -0.9050    1.8071   -3.0681 H         1 <0>         0.0443
     44 H7         -2.1782    0.6752   -2.5523 H         1 <0>         0.0442
     45 H8         -2.4019    2.4271   -2.3311 H         1 <0>         0.0926
     46 H9         -1.8484   -3.0141   -0.4595 H         1 <0>         0.0555
     47 H10        -1.6402   -2.4849    1.2272 H         1 <0>         0.0576
     48 H11        -3.2349   -2.3617    0.4462 H         1 <0>         0.1042
     49 H12         1.0757   -3.1368   -2.2720 H         1 <0>         0.1521
     50 H13         4.5591   -6.5757   -1.4642 H         1 <0>         0.1571
     51 H14         5.2751    0.1000    4.1846 H         1 <0>         0.1041
     52 H15         4.7543    1.0592    2.7786 H         1 <0>         0.0623
     53 H16         3.5458    0.2198    3.7802 H         1 <0>         0.0635
     54 H17         7.1588   -2.3258    0.5804 H         1 <0>         0.1216
     55 H18         8.8315   -1.9648    2.3490 H         1 <0>         0.1290
     56 H19         8.3032   -2.5425    4.6823 H         1 <0>         0.1274
     57 H20         6.0988   -3.4748    5.2554 H         1 <0>         0.1291
     58 H21         4.4151   -3.8300    3.4960 H         1 <0>         0.1214
     59 H22         3.8037   -8.9400   -3.7651 H         1 <0>         0.1068
     60 H23         4.8768   -7.6213   -3.2381 H         1 <0>         0.0601
     61 H24         3.8107   -8.4254   -2.0612 H         1 <0>         0.0601
     62 H25        -0.7095   -4.4868   -4.8124 H         1 <0>         0.1079
     63 H26        -0.5989   -4.0750   -3.0842 H         1 <0>         0.0586
     64 H27         0.4677   -3.2710   -4.2608 H         1 <0>         0.0601
@<TRIPOS>BOND
     1    1    2 1
     2    1   38 1
     3    1   39 1
     4    1   40 1
     5    2    3 1
     6    3    8 ar
     7    3    4 ar
     8    4    5 ar
     9    4   41 1
    10    5    6 ar
    11    5   13 1
    12    6    7 ar
    13    6   42 1
    14    7    8 ar
    15    7   11 1
    16    8    9 1
    17    9   10 1
    18   10   43 1
    19   10   44 1
    20   10   45 1
    21   11   12 1
    22   12   46 1
    23   12   47 1
    24   12   48 1
    25   13   23 2
    26   13   14 1
    27   14   19 ar
    28   14   15 ar
    29   15   16 ar
    30   15   49 1
    31   16   17 ar
    32   16   36 1
    33   17   18 ar
    34   17   34 1
    35   18   19 ar
    36   18   50 1
    37   19   20 1
    38   20   21 2
    39   20   22 am
    40   22   23 1
    41   22   28 1
    42   23   24 1
    43   24   25 2
    44   24   26 1
    45   26   27 1
    46   27   51 1
    47   27   52 1
    48   27   53 1
    49   28   33 ar
    50   28   29 ar
    51   29   30 ar
    52   29   54 1
    53   30   31 ar
    54   30   55 1
    55   31   32 ar
    56   31   56 1
    57   32   33 ar
    58   32   57 1
    59   33   58 1
    60   34   35 1
    61   35   59 1
    62   35   60 1
    63   35   61 1
    64   36   37 1
    65   37   62 1
    66   37   63 1
    67   37   64 1
@<TRIPOS>MOLECULE
ZINC04199935
   68    72     0     0     0
SMALL
USER_CHARGES

@<TRIPOS>ATOM
      1 C1         -8.1937    8.3672    5.6050 C.3       1 <0>         0.0249
      2 O1         -9.1261    7.4613    5.0117 O.3       1 <0>        -0.3029
      3 C2         -8.9851    7.2132    3.6820 C.ar      1 <0>         0.1304
      4 C3         -7.9699    7.8247    2.9688 C.ar      1 <0>        -0.1555
      5 C4         -7.8290    7.5736    1.6024 C.ar      1 <0>         0.0210
      6 C5         -8.7078    6.6975    0.9615 C.ar      1 <0>        -0.1483
      7 C6         -9.7182    6.0850    1.6800 C.ar      1 <0>         0.1282
      8 C7         -9.8595    6.3406    3.0411 C.ar      1 <0>         0.0457
      9 O2        -10.8539    5.7370    3.7454 O.3       1 <0>        -0.3151
     10 C8        -10.5508    4.4758    4.3450 C.3       1 <0>         0.0349
     11 O3        -10.5742    5.2318    1.0565 O.3       1 <0>        -0.4800
     12 C9         -6.7481    8.2292    0.8371 C.2       1 <0>        -0.0228
     13 C10        -5.6645    7.4313    0.2452 C.ar      1 <0>        -0.0410
     14 C11        -5.6183    6.0445    0.3841 C.ar      1 <0>        -0.0606
     15 C12        -4.5844    5.3363   -0.1865 C.ar      1 <0>        -0.1713
     16 C13        -3.5851    5.9929   -0.9013 C.ar      1 <0>         0.1363
     17 C14        -3.6112    7.3698   -1.0451 C.ar      1 <0>        -0.0841
     18 C15        -4.6524    8.1005   -0.4787 C.ar      1 <0>        -0.0868
     19 C16        -4.7252    9.5631   -0.6093 C.2       1 <0>         0.5503
     20 O4         -3.8653   10.1634   -1.2277 O.2       1 <0>        -0.4958
     21 N1         -5.7437   10.2377   -0.0438 N.am      1 <0>        -0.4585
     22 C17        -6.7419    9.6014    0.6678 C.2       1 <0>         0.1112
     23 C18        -7.8209   10.3999    1.2567 C.2       1 <0>         0.4965
     24 O5         -8.7668    9.8479    1.7855 O.2       1 <0>        -0.4628
     25 O6         -7.7648   11.7471    1.2120 O.3       1 <0>        -0.3250
     26 C19        -8.7908   12.4625    1.9032 C.3       1 <0>         0.0313
     27 C20        -5.7925   11.6304   -0.1813 C.ar      1 <0>         0.0578
     28 C21        -5.1800   12.4434    0.7640 C.ar      1 <0>        -0.0312
     29 C22        -5.2239   13.8160    0.6260 C.ar      1 <0>        -0.1897
     30 C23        -5.8897   14.3848   -0.4525 C.ar      1 <0>         0.2336
     31 C24        -6.5067   13.5717   -1.3950 C.ar      1 <0>        -0.1884
     32 C25        -6.4582   12.1990   -1.2597 C.ar      1 <0>        -0.0375
     33 N2         -5.9391   15.7753   -0.5892 N.pl3     1 <0>        -0.8753
     34 O7         -2.5736    5.2769   -1.4573 O.3       1 <0>        -0.3059
     35 C26        -2.6010    3.8607   -1.2681 C.3       1 <0>         0.1122
     36 C27        -1.4092    3.2397   -1.9501 C.ar      1 <0>         0.1186
     37 C28        -0.5087    4.0462   -2.6204 C.ar      1 <0>        -0.1492
     38 C29         0.5845    3.4650   -3.2441 C.ar      1 <0>        -0.0733
     39 C30         0.7317    2.0882   -3.1700 C.ar      1 <0>        -0.1702
     40 C31        -0.2095    1.3464   -2.4819 C.ar      1 <0>         0.1048
     41 N3         -1.2403    1.9328   -1.9049 N.ar      1 <0>        -0.4801
     42 H1         -7.1826    7.9782    5.4852 H         1 <0>         0.0555
     43 H2         -8.2697    9.3385    5.1162 H         1 <0>         0.0558
     44 H3         -8.4178    8.4760    6.6662 H         1 <0>         0.1032
     45 H4         -7.2889    8.4983    3.4676 H         1 <0>         0.1295
     46 H5         -8.5986    6.4988   -0.0944 H         1 <0>         0.1376
     47 H6         -9.7259    4.5962    5.0473 H         1 <0>         0.0469
     48 H7        -11.4282    4.1054    4.8752 H         1 <0>         0.0950
     49 H8        -10.2671    3.7638    3.5699 H         1 <0>         0.0410
     50 H9        -10.2823    4.3099    1.0593 H         1 <0>         0.3887
     51 H10        -6.3894    5.5285    0.9368 H         1 <0>         0.1423
     52 H11        -4.5481    4.2622   -0.0793 H         1 <0>         0.1426
     53 H12        -2.8309    7.8735   -1.5964 H         1 <0>         0.1526
     54 H13        -8.5796   13.5310    1.8620 H         1 <0>         0.1021
     55 H14        -9.7531   12.2639    1.4314 H         1 <0>         0.0625
     56 H15        -8.8222   12.1381    2.9433 H         1 <0>         0.0605
     57 H16        -4.6662   12.0014    1.6049 H         1 <0>         0.1207
     58 H17        -4.7439   14.4480    1.3586 H         1 <0>         0.1259
     59 H18        -7.0246   14.0138   -2.2333 H         1 <0>         0.1261
     60 H19        -6.9382   11.5670   -1.9922 H         1 <0>         0.1213
     61 H20        -6.4043   16.1724   -1.3421 H         1 <0>         0.4001
     62 H21        -5.5083   16.3429    0.0689 H         1 <0>         0.3999
     63 H22        -3.5173    3.4545   -1.6965 H         1 <0>         0.0902
     64 H23        -2.5675    3.6359   -0.2021 H         1 <0>         0.0899
     65 H24        -0.6551    5.1156   -2.6580 H         1 <0>         0.1453
     66 H25         1.3042    4.0702   -3.7753 H         1 <0>         0.1384
     67 H26         1.5711    1.6016   -3.6444 H         1 <0>         0.1385
     68 H27        -0.1021    0.2736   -2.4195 H         1 <0>         0.1614
@<TRIPOS>BOND
     1    1    2 1
     2    1   42 1
     3    1   43 1
     4    1   44 1
     5    2    3 1
     6    3    8 ar
     7    3    4 ar
     8    4    5 ar
     9    4   45 1
    10    5    6 ar
    11    5   12 1
    12    6    7 ar
    13    6   46 1
    14    7    8 ar
    15    7   11 1
    16    8    9 1
    17    9   10 1
    18   10   47 1
    19   10   48 1
    20   10   49 1
    21   11   50 1
    22   12   22 2
    23   12   13 1
    24   13   18 ar
    25   13   14 ar
    26   14   15 ar
    27   14   51 1
    28   15   16 ar
    29   15   52 1
    30   16   17 ar
    31   16   34 1
    32   17   18 ar
    33   17   53 1
    34   18   19 1
    35   19   20 2
    36   19   21 am
    37   21   22 1
    38   21   27 1
    39   22   23 1
    40   23   24 2
    41   23   25 1
    42   25   26 1
    43   26   54 1
    44   26   55 1
    45   26   56 1
    46   27   32 ar
    47   27   28 ar
    48   28   29 ar
    49   28   57 1
    50   29   30 ar
    51   29   58 1
    52   30   31 ar
    53   30   33 1
    54   31   32 ar
    55   31   59 1
    56   32   60 1
    57   33   61 1
    58   33   62 1
    59   34   35 1
    60   35   36 1
    61   35   63 1
    62   35   64 1
    63   36   41 ar
    64   36   37 ar
    65   37   38 ar
    66   37   65 1
    67   38   39 ar
    68   38   66 1
    69   39   40 ar
    70   39   67 1
    71   40   41 ar
    72   40   68 1
@<TRIPOS>MOLECULE
ZINC04199936
   73    77     0     0     0
SMALL
USER_CHARGES

@<TRIPOS>ATOM
      1 C1         -8.8124    7.9410    4.3779 C.3       1 <0>        -0.1052
      2 C2         -7.9421    7.0579    3.5213 C.ar      1 <0>         0.1200
      3 C3         -7.6338    7.4472    2.2313 C.ar      1 <0>        -0.1623
      4 C4         -6.8325    6.6275    1.4517 C.ar      1 <0>        -0.0641
      5 C5         -6.3735    5.4391    1.9993 C.ar      1 <0>        -0.1534
      6 C6         -6.7187    5.1187    3.2984 C.ar      1 <0>         0.1001
      7 N1         -7.4833    5.9230    4.0112 N.ar      1 <0>        -0.4787
      8 C7         -6.4739    7.0158    0.0404 C.3       1 <0>         0.1135
      9 N2         -5.1734    7.6902    0.0349 N.am      1 <0>        -0.5052
     10 C8         -5.1382    9.0670    0.0919 C.2       1 <0>         0.1419
     11 C9         -3.9435    9.7614    0.0901 C.2       1 <0>        -0.0461
     12 C10        -2.6849    9.0066    0.0256 C.ar      1 <0>         0.0738
     13 C11        -1.4350    9.6251    0.0191 C.ar      1 <0>        -0.2013
     14 C12        -0.3066    8.8329   -0.0440 C.ar      1 <0>         0.1811
     15 N3         -0.3882    7.5148   -0.0932 N.ar      1 <0>        -0.5433
     16 C13        -1.5452    6.8731   -0.0952 C.ar      1 <0>         0.4002
     17 C14        -2.7425    7.5957   -0.0327 C.ar      1 <0>        -0.2126
     18 C15        -4.0544    6.9430   -0.0260 C.2       1 <0>         0.5615
     19 O1         -4.1327    5.7289   -0.0759 O.2       1 <0>        -0.4875
     20 O2         -1.5711    5.5202   -0.1519 O.3       1 <0>        -0.2699
     21 C16        -0.3109    4.8493   -0.2139 C.3       1 <0>         0.1209
     22 C17        -0.5367    3.3604   -0.2711 C.ar      1 <0>         0.1175
     23 C18        -1.8267    2.8641   -0.2575 C.ar      1 <0>        -0.1487
     24 C19        -2.0236    1.4931   -0.3158 C.ar      1 <0>        -0.0744
     25 C20        -0.9104    0.6683   -0.3750 C.ar      1 <0>        -0.1718
     26 C21         0.3490    1.2368   -0.3843 C.ar      1 <0>         0.1025
     27 N4          0.4986    2.5462   -0.3331 N.ar      1 <0>        -0.4789
     28 C22        -3.9322   11.2378    0.1524 C.ar      1 <0>         0.0318
     29 C23        -4.4610   11.9864   -0.9014 C.ar      1 <0>        -0.1657
     30 C24        -4.4540   13.3680   -0.8383 C.ar      1 <0>         0.1490
     31 C25        -3.9101   14.0125    0.2690 C.ar      1 <0>         0.0428
     32 C26        -3.3777   13.2687    1.3182 C.ar      1 <0>         0.1465
     33 C27        -3.3875   11.8869    1.2625 C.ar      1 <0>        -0.2102
     34 O3         -2.8471   13.9014    2.3987 O.3       1 <0>        -0.3004
     35 C28        -2.3178   13.0763    3.4385 C.3       1 <0>         0.0239
     36 O4         -3.8993   15.3711    0.3261 O.3       1 <0>        -0.3127
     37 C29        -2.7546   16.0341   -0.2144 C.3       1 <0>         0.0356
     38 O5         -4.9738   14.0975   -1.8616 O.3       1 <0>        -0.3003
     39 C30        -5.5154   13.3710   -2.9666 C.3       1 <0>         0.0255
     40 C31        -6.4017    9.8143    0.1567 C.2       1 <0>         0.4943
     41 O6         -6.3930   11.0287    0.1028 O.2       1 <0>        -0.4438
     42 O7         -7.5710    9.1528    0.2760 O.3       1 <0>        -0.3389
     43 C32        -8.7795    9.9556    0.3341 C.3       1 <0>         0.0140
     44 H1         -9.8580    7.6667    4.2376 H         1 <0>         0.0796
     45 H2         -8.5405    7.8127    5.4256 H         1 <0>         0.0781
     46 H3         -8.6682    8.9824    4.0900 H         1 <0>         0.0722
     47 H4         -8.0121    8.3783    1.8359 H         1 <0>         0.1511
     48 H5         -5.7505    4.7743    1.4193 H         1 <0>         0.1440
     49 H6         -6.3619    4.1969    3.7336 H         1 <0>         0.1567
     50 H7         -7.2341    7.6893   -0.3555 H         1 <0>         0.1444
     51 H8         -6.4220    6.1214   -0.5805 H         1 <0>         0.1113
     52 H9         -1.3518   10.7010    0.0629 H         1 <0>         0.1530
     53 H10         0.6666    9.3013   -0.0493 H         1 <0>         0.1739
     54 H11         0.2750    5.0941    0.6721 H         1 <0>         0.0940
     55 H12         0.2279    5.1696   -1.1057 H         1 <0>         0.0942
     56 H13        -2.6707    3.5361   -0.2069 H         1 <0>         0.1525
     57 H14        -3.0203    1.0770   -0.3113 H         1 <0>         0.1365
     58 H15        -1.0264   -0.4046   -0.4179 H         1 <0>         0.1371
     59 H16         1.2210    0.6016   -0.4345 H         1 <0>         0.1603
     60 H17        -4.8790   11.4868   -1.7628 H         1 <0>         0.1300
     61 H18        -2.9747   11.3103    2.0770 H         1 <0>         0.1356
     62 H19        -1.9272   13.7054    4.2383 H         1 <0>         0.1042
     63 H20        -3.1077   12.4366    3.8323 H         1 <0>         0.0567
     64 H21        -1.5150   12.4574    3.0380 H         1 <0>         0.0575
     65 H22        -2.6553   15.7845   -1.2708 H         1 <0>         0.0447
     66 H23        -2.8738   17.1120   -0.1053 H         1 <0>         0.0928
     67 H24        -1.8615   15.7113    0.3207 H         1 <0>         0.0449
     68 H25        -5.8955   14.0712   -3.7105 H         1 <0>         0.1033
     69 H26        -4.7355   12.7542   -3.4132 H         1 <0>         0.0554
     70 H27        -6.3283   12.7335   -2.6189 H         1 <0>         0.0571
     71 H28        -8.7314   10.6230    1.1946 H         1 <0>         0.0736
     72 H29        -8.8683   10.5452   -0.5784 H         1 <0>         0.0732
     73 H30        -9.6461    9.3014    0.4297 H         1 <0>         0.1106
@<TRIPOS>BOND
     1    1    2 1
     2    1   44 1
     3    1   45 1
     4    1   46 1
     5    2    7 ar
     6    2    3 ar
     7    3    4 ar
     8    3   47 1
     9    4    5 ar
    10    4    8 1
    11    5    6 ar
    12    5   48 1
    13    6    7 ar
    14    6   49 1
    15    8    9 1
    16    8   50 1
    17    8   51 1
    18    9   18 am
    19    9   10 1
    20   10   11 2
    21   10   40 1
    22   11   12 1
    23   11   28 1
    24   12   17 ar
    25   12   13 ar
    26   13   14 ar
    27   13   52 1
    28   14   15 ar
    29   14   53 1
    30   15   16 ar
    31   16   17 ar
    32   16   20 1
    33   17   18 1
    34   18   19 2
    35   20   21 1
    36   21   22 1
    37   21   54 1
    38   21   55 1
    39   22   27 ar
    40   22   23 ar
    41   23   24 ar
    42   23   56 1
    43   24   25 ar
    44   24   57 1
    45   25   26 ar
    46   25   58 1
    47   26   27 ar
    48   26   59 1
    49   28   33 ar
    50   28   29 ar
    51   29   30 ar
    52   29   60 1
    53   30   31 ar
    54   30   38 1
    55   31   32 ar
    56   31   36 1
    57   32   33 ar
    58   32   34 1
    59   33   61 1
    60   34   35 1
    61   35   62 1
    62   35   63 1
    63   35   64 1
    64   36   37 1
    65   37   65 1
    66   37   66 1
    67   37   67 1
    68   38   39 1
    69   39   68 1
    70   39   69 1
    71   39   70 1
    72   40   41 2
    73   40   42 1
    74   42   43 1
    75   43   71 1
    76   43   72 1
    77   43   73 1
@<TRIPOS>MOLECULE
ZINC04199937
   74    77     0     0     0
SMALL
USER_CHARGES

@<TRIPOS>ATOM
      1 C1          7.0151    5.3635   -0.2750 C.3       1 <0>         0.0211
      2 O1          6.4570    5.1053    1.0149 O.3       1 <0>        -0.2962
      3 C2          5.2748    4.4367    1.0530 C.ar      1 <0>         0.1416
      4 C3          4.6813    4.0475   -0.1132 C.ar      1 <0>        -0.1826
      5 C4          3.4582    3.3553   -0.0826 C.ar      1 <0>        -0.0342
      6 C5          2.8430    2.9527   -1.2817 C.ar      1 <0>        -0.0563
      7 C6          1.6416    2.2727   -1.2540 C.ar      1 <0>        -0.1133
      8 C7          1.0047    1.9691    0.0272 C.ar      1 <0>        -0.0613
      9 C8          1.6166    2.3755    1.2144 C.ar      1 <0>         0.0273
     10 C9          2.8513    3.0676    1.1652 C.ar      1 <0>        -0.0084
     11 C10         3.4803    3.4773    2.3502 C.ar      1 <0>        -0.1826
     12 C11         4.6775    4.1534    2.2899 C.ar      1 <0>         0.1456
     13 O2          5.2858    4.5502    3.4382 O.3       1 <0>        -0.2936
     14 C12         4.6264    4.2313    4.6652 C.3       1 <0>         0.0191
     15 C13         0.9819    2.0804    2.5160 C.ar      1 <0>        -0.0320
     16 C14        -0.2425    2.6661    2.8462 C.ar      1 <0>        -0.1737
     17 C15        -0.8349    2.3836    4.0625 C.ar      1 <0>         0.1308
     18 C16        -0.2059    1.5245    4.9612 C.ar      1 <0>         0.0887
     19 C17         1.0135    0.9463    4.6356 C.ar      1 <0>        -0.0209
     20 C18         1.6075    1.2203    3.4204 C.ar      1 <0>        -0.1137
     21 Cl1         1.7924   -0.1238    5.7590 Cl        1 <0>        -0.0324
     22 O3         -0.7876    1.2515    6.1589 O.3       1 <0>        -0.3140
     23 C19        -0.4569    2.1110    7.2516 C.3       1 <0>         0.0341
     24 O4         -2.0296    2.9481    4.3842 O.3       1 <0>        -0.2956
     25 C20        -2.6176    3.8188    3.4156 C.3       1 <0>         0.0202
     26 C21        -0.2758    1.2454    0.0644 C.2       1 <0>         0.5210
     27 O5         -0.2863    0.0313    0.1206 O.2       1 <0>        -0.4921
     28 O6         -1.4375    1.9287    0.0306 O.3       1 <0>        -0.3379
     29 C22        -2.6620    1.1491    0.0643 C.3       1 <0>         0.0342
     30 C23         1.0007    1.8522   -2.5162 C.2       1 <0>         0.5723
     31 O7         -0.1764    2.0877   -2.7082 O.2       1 <0>        -0.4891
     32 N1          1.7209    1.2074   -3.4553 N.am      1 <0>        -0.6280
     33 C24         3.1152    0.8151   -3.2002 C.3       1 <0>         0.0755
     34 C25         3.2665   -0.6760   -3.5405 C.3       1 <0>        -0.0170
     35 C26         1.3662   -0.6060   -5.0457 C.3       1 <0>        -0.0185
     36 C27         1.1351    0.8826   -4.7648 C.3       1 <0>         0.0893
     37 C28         3.0855   -2.2852   -5.3407 C.3       1 <0>        -0.0013
     38 C29         3.0642   -2.3591   -6.8687 C.3       1 <0>         0.0443
     39 O8          4.1084   -1.5406   -7.3997 O.3       1 <0>        -0.5821
     40 H1          7.1961    4.4190   -0.7882 H         1 <0>         0.0593
     41 H2          6.3188    5.9662   -0.8581 H         1 <0>         0.0608
     42 H3          7.9560    5.9021   -0.1626 H         1 <0>         0.1094
     43 H4          5.1514    4.2716   -1.0593 H         1 <0>         0.1498
     44 H5          3.3126    3.1761   -2.2282 H         1 <0>         0.1435
     45 H6          3.0265    3.2632    3.3065 H         1 <0>         0.1510
     46 H7          3.6409    4.6968    4.6798 H         1 <0>         0.0608
     47 H8          4.5187    3.1499    4.7494 H         1 <0>         0.0621
     48 H9          5.2166    4.6038    5.5024 H         1 <0>         0.1115
     49 H10        -0.7272    3.3354    2.1509 H         1 <0>         0.1488
     50 H11         2.5560    0.7692    3.1690 H         1 <0>         0.1449
     51 H12         0.6174    2.0722    7.4322 H         1 <0>         0.0489
     52 H13        -0.7481    3.1334    7.0108 H         1 <0>         0.0508
     53 H14        -0.9876    1.7830    8.1454 H         1 <0>         0.1020
     54 H15        -1.9432    4.6524    3.2195 H         1 <0>         0.0600
     55 H16        -2.7931    3.2684    2.4913 H         1 <0>         0.0602
     56 H17        -3.5649    4.1999    3.7971 H         1 <0>         0.1098
     57 H18        -3.5207    1.8197    0.0316 H         1 <0>         0.1078
     58 H19        -2.6906    0.4800   -0.7957 H         1 <0>         0.0650
     59 H20        -2.6940    0.5623    0.9823 H         1 <0>         0.0660
     60 H21         3.7825    1.4064   -3.8272 H         1 <0>         0.1027
     61 H22         3.3551    0.9784   -2.1495 H         1 <0>         0.1353
     62 H23         2.6736   -1.2723   -2.8469 H         1 <0>         0.1380
     63 H24         4.3154   -0.9618   -3.4611 H         1 <0>         0.1451
     64 H25         0.7997   -1.2032   -4.3311 H         1 <0>         0.1370
     65 H26         1.0366   -0.8406   -6.0578 H         1 <0>         0.1411
     66 H27         0.0652    1.0905   -4.7491 H         1 <0>         0.1377
     67 H28         1.6134    1.4828   -5.5389 H         1 <0>         0.0995
     68 H29         4.0694   -2.5804   -4.9763 H         1 <0>         0.1389
     69 H30         2.3305   -2.9580   -4.9339 H         1 <0>         0.1444
     70 H31         3.2153   -3.3912   -7.1847 H         1 <0>         0.0965
     71 H32         2.1015   -2.0038   -7.2363 H         1 <0>         0.0714
     72 H33         4.1545   -1.5395   -8.3656 H         1 <0>         0.4109
     73 N2          2.8130   -0.8917   -4.9318 N.4       1 <0>        -0.3942
     74 H34         3.3276   -0.2555   -5.5520 H         1 <0>         0.4351
@<TRIPOS>BOND
     1    1    2 1
     2    1   40 1
     3    1   41 1
     4    1   42 1
     5    2    3 1
     6    3   12 ar
     7    3    4 ar
     8    4    5 ar
     9    4   43 1
    10    5   10 ar
    11    5    6 ar
    12    6    7 ar
    13    6   44 1
    14    7    8 ar
    15    7   30 1
    16    8    9 ar
    17    8   26 1
    18    9   10 ar
    19    9   15 1
    20   10   11 ar
    21   11   12 ar
    22   11   45 1
    23   12   13 1
    24   13   14 1
    25   14   46 1
    26   14   47 1
    27   14   48 1
    28   15   20 ar
    29   15   16 ar
    30   16   17 ar
    31   16   49 1
    32   17   18 ar
    33   17   24 1
    34   18   19 ar
    35   18   22 1
    36   19   20 ar
    37   19   21 1
    38   20   50 1
    39   22   23 1
    40   23   51 1
    41   23   52 1
    42   23   53 1
    43   24   25 1
    44   25   54 1
    45   25   55 1
    46   25   56 1
    47   26   27 2
    48   26   28 1
    49   28   29 1
    50   29   57 1
    51   29   58 1
    52   29   59 1
    53   30   31 2
    54   30   32 am
    55   32   36 1
    56   32   33 1
    57   33   34 1
    58   33   60 1
    59   33   61 1
    60   34   62 1
    61   34   63 1
    62   34   73 1
    63   35   36 1
    64   35   64 1
    65   35   65 1
    66   35   73 1
    67   36   66 1
    68   36   67 1
    69   37   38 1
    70   37   68 1
    71   37   69 1
    72   37   73 1
    73   38   39 1
    74   38   70 1
    75   38   71 1
    76   39   72 1
    77   73   74 1
@<TRIPOS>MOLECULE
ZINC04199938
   72    76     0     0     0
SMALL
USER_CHARGES

@<TRIPOS>ATOM
      1 C1          5.4274    9.0296    4.0548 C.3       1 <0>        -0.1067
      2 C2          4.4352    9.9531    3.3962 C.ar      1 <0>         0.1278
      3 C3          4.1064    9.7665    2.0666 C.ar      1 <0>        -0.1454
      4 C4          3.1926   10.6216    1.4703 C.ar      1 <0>        -0.0619
      5 C5          2.6451   11.6402    2.2355 C.ar      1 <0>        -0.1742
      6 C6          3.0177   11.7616    3.5606 C.ar      1 <0>         0.0994
      7 N1          3.8904   10.9295    4.0950 N.ar      1 <0>        -0.4784
      8 C7          2.8081   10.4520    0.0230 C.3       1 <0>         0.1140
      9 N2          1.5667    9.6791   -0.0651 N.am      1 <0>        -0.4988
     10 C8          0.3613   10.3495   -0.0423 C.2       1 <0>         0.1065
     11 C9         -0.8422    9.6739   -0.1225 C.2       1 <0>        -0.0115
     12 C10        -0.8327    8.2092   -0.2335 C.ar      1 <0>        -0.0906
     13 C11        -2.0175    7.4682   -0.3174 C.ar      1 <0>        -0.0233
     14 C12        -1.9205    6.1067   -0.4242 C.ar      1 <0>        -0.1468
     15 C13        -0.6616    5.5021   -0.4358 C.ar      1 <0>         0.3418
     16 N3          0.4456    6.2155   -0.3558 N.ar      1 <0>        -0.4841
     17 C14         0.4063    7.5385   -0.2559 C.ar      1 <0>         0.1326
     18 C15         1.6409    8.3391   -0.1659 C.2       1 <0>         0.5566
     19 O1          2.7264    7.7887   -0.1823 O.2       1 <0>        -0.4790
     20 O2         -0.5750    4.1529   -0.5371 O.3       1 <0>        -0.2980
     21 C16         0.7368    3.5862   -0.5504 C.3       1 <0>         0.1278
     22 C17         0.6352    2.0872   -0.6674 C.ar      1 <0>         0.0720
     23 C18        -0.6069    1.4816   -0.7422 C.ar      1 <0>         0.0693
     24 N4         -0.6958    0.1673   -0.8453 N.ar      1 <0>        -0.4345
     25 C19         0.4013   -0.5688   -0.8769 C.ar      1 <0>         0.0497
     26 C20         1.6430    0.0367   -0.8026 C.ar      1 <0>         0.0591
     27 N5          1.7320    1.3512   -0.6995 N.ar      1 <0>        -0.4303
     28 C21        -2.1206   10.4150   -0.0971 C.ar      1 <0>         0.0263
     29 C22        -2.4985   11.1184    1.0486 C.ar      1 <0>        -0.1636
     30 C23        -3.6933   11.8147    1.0684 C.ar      1 <0>         0.1493
     31 C24        -4.5232   11.8069   -0.0489 C.ar      1 <0>         0.0435
     32 C25        -4.1513   11.1023   -1.1901 C.ar      1 <0>         0.1463
     33 C26        -2.9553   10.4084   -1.2166 C.ar      1 <0>        -0.2126
     34 O3         -4.9648   11.0959   -2.2799 O.3       1 <0>        -0.3003
     35 C27        -4.5211   10.3518   -3.4163 C.3       1 <0>         0.0237
     36 O4         -5.6997   12.4885   -0.0253 O.3       1 <0>        -0.3125
     37 C28        -6.8520   11.7781    0.4327 C.3       1 <0>         0.0355
     38 O5         -4.0597   12.5038    2.1822 O.3       1 <0>        -0.2999
     39 C29        -3.1602   12.4687    3.2920 C.3       1 <0>         0.0252
     40 C30         0.3564   11.8121    0.0691 C.2       1 <0>         0.4975
     41 O6         -0.6953   12.4084    0.1995 O.2       1 <0>        -0.4474
     42 O7          1.5187   12.4957    0.0268 O.3       1 <0>        -0.3365
     43 C31         1.4394   13.9179    0.1412 C.3       1 <0>         0.0145
     44 H1          6.4331    9.4327    3.9362 H         1 <0>         0.0805
     45 H2          5.1937    8.9424    5.1158 H         1 <0>         0.0780
     46 H3          5.3729    8.0458    3.5886 H         1 <0>         0.0763
     47 H4          4.5555    8.9645    1.4996 H         1 <0>         0.1410
     48 H5          1.9332   12.3273    1.8025 H         1 <0>         0.1426
     49 H6          2.5928   12.5498    4.1645 H         1 <0>         0.1557
     50 H7          3.6027    9.9245   -0.5046 H         1 <0>         0.1138
     51 H8          2.6590   11.4319   -0.4305 H         1 <0>         0.1490
     52 H9         -2.9805    7.9569   -0.3024 H         1 <0>         0.1595
     53 H10        -2.8131    5.5029   -0.4949 H         1 <0>         0.1601
     54 H11         1.2535    3.8443    0.3740 H         1 <0>         0.0996
     55 H12         1.2941    3.9801   -1.4003 H         1 <0>         0.0999
     56 H13        -1.5033    2.0835   -0.7209 H         1 <0>         0.1768
     57 H14         0.3285   -1.6430   -0.9611 H         1 <0>         0.1744
     58 H15         2.5395   -0.5648   -0.8291 H         1 <0>         0.1766
     59 H16        -1.8567   11.1214    1.9172 H         1 <0>         0.1304
     60 H17        -2.6673    9.8615   -2.1022 H         1 <0>         0.1366
     61 H18        -3.5690   10.7528   -3.7640 H         1 <0>         0.0574
     62 H19        -4.3950    9.3053   -3.1388 H         1 <0>         0.0571
     63 H20        -5.2608   10.4298   -4.2131 H         1 <0>         0.1042
     64 H21        -7.7206   12.4359    0.4014 H         1 <0>         0.0930
     65 H22        -7.0262   10.9153   -0.2102 H         1 <0>         0.0449
     66 H23        -6.6880   11.4413    1.4564 H         1 <0>         0.0448
     67 H24        -3.0244   11.4372    3.6172 H         1 <0>         0.0552
     68 H25        -2.1982   12.8851    2.9933 H         1 <0>         0.0577
     69 H26        -3.5718   13.0570    4.1121 H         1 <0>         0.1037
     70 H27         2.4419   14.3428    0.0922 H         1 <0>         0.1101
     71 H28         0.8362   14.3150   -0.6753 H         1 <0>         0.0704
     72 H29         0.9795   14.1807    1.0938 H         1 <0>         0.0686
@<TRIPOS>BOND
     1    1    2 1
     2    1   44 1
     3    1   45 1
     4    1   46 1
     5    2    7 ar
     6    2    3 ar
     7    3    4 ar
     8    3   47 1
     9    4    5 ar
    10    4    8 1
    11    5    6 ar
    12    5   48 1
    13    6    7 ar
    14    6   49 1
    15    8    9 1
    16    8   50 1
    17    8   51 1
    18    9   18 am
    19    9   10 1
    20   10   11 2
    21   10   40 1
    22   11   12 1
    23   11   28 1
    24   12   17 ar
    25   12   13 ar
    26   13   14 ar
    27   13   52 1
    28   14   15 ar
    29   14   53 1
    30   15   16 ar
    31   15   20 1
    32   16   17 ar
    33   17   18 1
    34   18   19 2
    35   20   21 1
    36   21   22 1
    37   21   54 1
    38   21   55 1
    39   22   27 ar
    40   22   23 ar
    41   23   24 ar
    42   23   56 1
    43   24   25 ar
    44   25   26 ar
    45   25   57 1
    46   26   27 ar
    47   26   58 1
    48   28   33 ar
    49   28   29 ar
    50   29   30 ar
    51   29   59 1
    52   30   31 ar
    53   30   38 1
    54   31   32 ar
    55   31   36 1
    56   32   33 ar
    57   32   34 1
    58   33   60 1
    59   34   35 1
    60   35   61 1
    61   35   62 1
    62   35   63 1
    63   36   37 1
    64   37   64 1
    65   37   65 1
    66   37   66 1
    67   38   39 1
    68   39   67 1
    69   39   68 1
    70   39   69 1
    71   40   41 2
    72   40   42 1
    73   42   43 1
    74   43   70 1
    75   43   71 1
    76   43   72 1
@<TRIPOS>MOLECULE
ZINC04199939
   47    49     0     0     0
SMALL
USER_CHARGES

@<TRIPOS>ATOM
      1 C1          1.1150    2.1981   -2.6387 C.3       1 <0>        -0.1299
      2 C2         -0.3594    1.8894   -2.6831 C.2       1 <0>        -0.1256
      3 C3         -0.8814    1.0598   -1.8140 C.2       1 <0>        -0.1648
      4 C4          0.0101    0.3145   -0.8543 C.3       1 <0>        -0.0443
      5 C5         -0.4656    0.5467    0.5567 C.ar      1 <0>        -0.1634
      6 C6          0.0347    1.6115    1.2899 C.ar      1 <0>         0.2182
      7 C7         -0.3974    1.8411    2.5916 C.ar      1 <0>        -0.2680
      8 C8         -1.3279    1.0002    3.1732 C.ar      1 <0>         0.2309
      9 C9         -1.8343   -0.0808    2.4400 C.ar      1 <0>        -0.2622
     10 C10        -1.3990   -0.3081    1.1225 C.ar      1 <0>         0.2016
     11 O1         -1.8912   -1.3521    0.4233 O.3       1 <0>        -0.2003
     12 C11        -2.7968   -2.2001    0.9401 C.2       1 <0>         0.1650
     13 C12        -3.2827   -2.0679    2.2062 C.2       1 <0>        -0.0666
     14 C13        -2.8255   -1.0002    3.0213 C.2       1 <0>         0.4092
     15 O2         -3.2385   -0.8499    4.1602 O.2       1 <0>        -0.4348
     16 O3         -4.1994   -2.9525    2.6850 O.3       1 <0>        -0.4562
     17 C14        -3.2823   -3.3151    0.1062 C.ar      1 <0>        -0.0826
     18 C15        -3.3055   -4.6154    0.6187 C.ar      1 <0>        -0.0416
     19 C16        -3.7648   -5.6531   -0.1621 C.ar      1 <0>        -0.1510
     20 C17        -4.1943   -5.4106   -1.4611 C.ar      1 <0>         0.1345
     21 C18        -4.1677   -4.1205   -1.9767 C.ar      1 <0>        -0.1525
     22 C19        -3.7154   -3.0758   -1.2012 C.ar      1 <0>        -0.0606
     23 O4         -4.6409   -6.4374   -2.2292 O.3       1 <0>        -0.4976
     24 O5         -1.7473    1.2199    4.4451 O.3       1 <0>        -0.2784
     25 C20        -1.1855    2.3421    5.1286 C.3       1 <0>         0.0185
     26 O6          0.9527    2.4405    0.7303 O.3       1 <0>        -0.4839
     27 C21        -1.2334    2.5351   -3.7273 C.3       1 <0>        -0.1198
     28 H1          1.6637    1.4294   -3.1830 H         1 <0>         0.0674
     29 H2          1.2969    3.1692   -3.0992 H         1 <0>         0.0623
     30 H3          1.4508    2.2190   -1.6020 H         1 <0>         0.0763
     31 H4         -1.9505    0.9099   -1.7852 H         1 <0>         0.1073
     32 H5         -0.0252   -0.7515   -1.0788 H         1 <0>         0.0872
     33 H6          1.0342    0.6736   -0.9562 H         1 <0>         0.0947
     34 H7         -0.0028    2.6767    3.1506 H         1 <0>         0.1492
     35 H8         -5.1170   -2.6964    2.5192 H         1 <0>         0.3867
     36 H9         -2.9676   -4.8055    1.6268 H         1 <0>         0.1412
     37 H10        -3.7875   -6.6573    0.2347 H         1 <0>         0.1391
     38 H11        -4.5024   -3.9366   -2.9869 H         1 <0>         0.1374
     39 H12        -3.6951   -2.0734   -1.6027 H         1 <0>         0.1347
     40 H13        -3.9492   -6.8703   -2.7481 H         1 <0>         0.3972
     41 H14        -0.1039    2.2240    5.1932 H         1 <0>         0.0619
     42 H15        -1.4193    3.2552    4.5812 H         1 <0>         0.0609
     43 H16        -1.6050    2.4030    6.1329 H         1 <0>         0.1088
     44 H17         0.5684    3.1956    0.2642 H         1 <0>         0.4012
     45 H18        -2.0113    3.1212   -3.2381 H         1 <0>         0.0644
     46 H19        -0.6272    3.1881   -4.3552 H         1 <0>         0.0625
     47 H20        -1.6937    1.7630   -4.3438 H         1 <0>         0.0658
@<TRIPOS>BOND
     1    1    2 1
     2    1   28 1
     3    1   29 1
     4    1   30 1
     5    2    3 2
     6    2   27 1
     7    3    4 1
     8    3   31 1
     9    4    5 1
    10    4   32 1
    11    4   33 1
    12    5   10 ar
    13    5    6 ar
    14    6    7 ar
    15    6   26 1
    16    7    8 ar
    17    7   34 1
    18    8    9 ar
    19    8   24 1
    20    9   14 1
    21    9   10 ar
    22   10   11 1
    23   11   12 1
    24   12   13 2
    25   12   17 1
    26   13   14 1
    27   13   16 1
    28   14   15 2
    29   16   35 1
    30   17   22 ar
    31   17   18 ar
    32   18   19 ar
    33   18   36 1
    34   19   20 ar
    35   19   37 1
    36   20   21 ar
    37   20   23 1
    38   21   22 ar
    39   21   38 1
    40   22   39 1
    41   23   40 1
    42   24   25 1
    43   25   41 1
    44   25   42 1
    45   25   43 1
    46   26   44 1
    47   27   45 1
    48   27   46 1
    49   27   47 1
@<TRIPOS>MOLECULE
ZINC04199940
   62    63     0     0     0
SMALL
USER_CHARGES

@<TRIPOS>ATOM
      1 C1        -10.4423    0.4074   -0.0381 C.3       1 <0>        -0.1208
      2 C2        -10.0884    1.7393    0.5717 C.2       1 <0>        -0.1350
      3 C3         -9.0434    1.8442    1.3548 C.2       1 <0>        -0.1566
      4 C4         -8.1211    0.6673    1.5422 C.3       1 <0>        -0.0864
      5 C5         -6.6835    1.0921    1.2361 C.3       1 <0>        -0.0382
      6 H1         -6.4203    1.9528    1.8510 H         1 <0>         0.0780
      7 C6         -5.7326   -0.0658    1.5458 C.3       1 <0>        -0.0562
      8 C7         -4.3076    0.3986    1.3883 C.ar      1 <0>        -0.1623
      9 C8         -3.6345    0.1761    0.1936 C.ar      1 <0>         0.1890
     10 C9         -2.3212    0.6000    0.0383 C.ar      1 <0>        -0.2458
     11 C10        -1.6729    1.2484    1.0736 C.ar      1 <0>         0.1880
     12 C11        -2.3442    1.4725    2.2860 C.ar      1 <0>        -0.2206
     13 C12        -3.6734    1.0445    2.4334 C.ar      1 <0>         0.1943
     14 O1         -4.3322    1.2602    3.5998 O.3       1 <0>        -0.4829
     15 C13        -1.6597    2.1565    3.3953 C.2       1 <0>         0.4543
     16 O2         -0.9616    1.5202    4.1654 O.2       1 <0>        -0.4530
     17 C14        -1.8127    3.5559    3.5679 C.2       1 <0>        -0.2317
     18 C15        -1.1036    4.2012    4.5221 C.2       1 <0>         0.0042
     19 C16        -1.2618    5.6486    4.7006 C.ar      1 <0>        -0.1204
     20 C17        -2.1420    6.3667    3.8810 C.ar      1 <0>        -0.0618
     21 C18        -2.2913    7.7130    4.0522 C.ar      1 <0>        -0.1569
     22 C19        -1.5646    8.3831    5.0321 C.ar      1 <0>         0.1414
     23 C20        -0.6843    7.6885    5.8495 C.ar      1 <0>        -0.1778
     24 C21        -0.5265    6.3227    5.6912 C.ar      1 <0>         0.1536
     25 O3          0.3332    5.6383    6.4872 O.3       1 <0>        -0.4897
     26 O4         -1.7175    9.7227    5.1887 O.3       1 <0>        -0.4952
     27 O5         -0.3898    1.6618    0.9199 O.3       1 <0>        -0.3088
     28 C22         0.2316    1.3944   -0.3388 C.3       1 <0>         0.0254
     29 O6         -4.2641   -0.4588   -0.8276 O.3       1 <0>        -0.4821
     30 C23        -6.5680    1.4612   -0.2204 C.2       1 <0>        -0.0920
     31 C24        -6.1050    2.6377   -0.5633 C.2       1 <0>        -0.2030
     32 C25        -6.9851    0.4768   -1.2825 C.3       1 <0>        -0.1085
     33 C26       -10.9365    2.9505    0.2807 C.3       1 <0>        -0.1164
     34 H2        -10.7109   -0.2940    0.7519 H         1 <0>         0.0642
     35 H3        -11.2865    0.5313   -0.7165 H         1 <0>         0.0575
     36 H4         -9.5856    0.0217   -0.5907 H         1 <0>         0.0688
     37 H5         -8.8429    2.7742    1.8660 H         1 <0>         0.1050
     38 H6         -8.4145   -0.1356    0.8658 H         1 <0>         0.0735
     39 H7         -8.1847    0.3162    2.5721 H         1 <0>         0.0702
     40 H8         -5.9250   -0.8881    0.8568 H         1 <0>         0.0757
     41 H9         -5.8934   -0.4042    2.5694 H         1 <0>         0.0741
     42 H10        -1.8049    0.4232   -0.8937 H         1 <0>         0.1416
     43 H11        -4.1746    0.5827    4.2716 H         1 <0>         0.3978
     44 H12        -2.4954    4.1063    2.9375 H         1 <0>         0.1317
     45 H13        -0.4209    3.6509    5.1525 H         1 <0>         0.1400
     46 H14        -2.7059    5.8543    3.1156 H         1 <0>         0.1387
     47 H15        -2.9742    8.2619    3.4207 H         1 <0>         0.1370
     48 H16        -0.1226    8.2132    6.6081 H         1 <0>         0.1412
     49 H17         1.2331    5.5827    6.1378 H         1 <0>         0.3977
     50 H18        -1.1110   10.2530    4.6538 H         1 <0>         0.3968
     51 H19         0.2474    0.3189   -0.5150 H         1 <0>         0.0597
     52 H20         1.2526    1.7758   -0.3283 H         1 <0>         0.1051
     53 H21        -0.3312    1.8845   -1.1333 H         1 <0>         0.0606
     54 H22        -4.1594   -1.4200   -0.8173 H         1 <0>         0.3923
     55 H23        -5.8061    3.3432    0.1978 H         1 <0>         0.0887
     56 H24        -6.0223    2.9022   -1.6071 H         1 <0>         0.0907
     57 H25        -8.0236    0.6589   -1.5590 H         1 <0>         0.0592
     58 H26        -6.3491    0.5973   -2.1595 H         1 <0>         0.0617
     59 H27        -6.8842   -0.5378   -0.8972 H         1 <0>         0.0599
     60 H28       -10.5283    3.8144    0.8052 H         1 <0>         0.0587
     61 H29       -10.9377    3.1440   -0.7920 H         1 <0>         0.0643
     62 H30       -11.9569    2.7692    0.6183 H         1 <0>         0.0617
@<TRIPOS>BOND
     1    1    2 1
     2    1   34 1
     3    1   35 1
     4    1   36 1
     5    2    3 2
     6    2   33 1
     7    3    4 1
     8    3   37 1
     9    4    5 1
    10    4   38 1
    11    4   39 1
    12    5    6 1
    13    5    7 1
    14    5   30 1
    15    7    8 1
    16    7   40 1
    17    7   41 1
    18    8   13 ar
    19    8    9 ar
    20    9   10 ar
    21    9   29 1
    22   10   11 ar
    23   10   42 1
    24   11   12 ar
    25   11   27 1
    26   12   13 ar
    27   12   15 1
    28   13   14 1
    29   14   43 1
    30   15   16 2
    31   15   17 1
    32   17   18 2
    33   17   44 1
    34   18   19 1
    35   18   45 1
    36   19   24 ar
    37   19   20 ar
    38   20   21 ar
    39   20   46 1
    40   21   22 ar
    41   21   47 1
    42   22   23 ar
    43   22   26 1
    44   23   24 ar
    45   23   48 1
    46   24   25 1
    47   25   49 1
    48   26   50 1
    49   27   28 1
    50   28   51 1
    51   28   52 1
    52   28   53 1
    53   29   54 1
    54   30   31 2
    55   30   32 1
    56   31   55 1
    57   31   56 1
    58   32   57 1
    59   32   58 1
    60   32   59 1
    61   33   60 1
    62   33   61 1
    63   33   62 1
@<TRIPOS>MOLECULE
ZINC04199941
   59    65     0     0     0
SMALL
USER_CHARGES

@<TRIPOS>ATOM
      1 C1          1.4641    6.1490    0.1734 C.ar      1 <0>        -0.1488
      2 C2          2.8218    6.2146    0.4407 C.ar      1 <0>        -0.0956
      3 C3          3.5755    5.0871    0.7171 C.ar      1 <0>        -0.1306
      4 C4          2.9064    3.8649    0.7157 C.ar      1 <0>         0.1076
      5 C5          1.5159    3.8037    0.4420 C.ar      1 <0>        -0.1023
      6 C6          0.7787    4.9592    0.1658 C.ar      1 <0>        -0.0643
      7 C7          1.1525    2.4033    0.5247 C.2       1 <0>        -0.1465
      8 C8          2.2791    1.7209    0.8234 C.2       1 <0>         0.0554
      9 N1          3.3325    2.5877    0.9417 N.pl3     1 <0>        -0.5743
     10 H1          4.2441    2.3328    1.1538 H         1 <0>         0.4176
     11 C9          2.3245    0.2187    0.9928 C.3       1 <0>         0.2488
     12 H2          2.8402   -0.0350    1.9190 H         1 <0>         0.1231
     13 N2          0.9335   -0.2629    1.0466 N.am      1 <0>        -0.5908
     14 C10        -0.0285    0.2753    0.0732 C.3       1 <0>         0.1010
     15 C11        -0.2043    1.7776    0.3253 C.3       1 <0>        -0.0626
     16 C12         0.5524   -1.1738    1.9640 C.2       1 <0>         0.6123
     17 O1         -0.6215   -1.4781    2.0682 O.2       1 <0>        -0.5022
     18 C13         1.5512   -1.7976    2.8359 C.2       1 <0>        -0.0652
     19 C14         1.2898   -2.6625    3.8759 C.2       1 <0>        -0.1057
     20 C15         2.5255   -3.0131    4.4294 C.2       1 <0>        -0.1780
     21 C16         3.4855   -2.3494    3.7209 C.2       1 <0>         0.0406
     22 O2          2.8873   -1.6205    2.7639 O.3       1 <0>        -0.1554
     23 C17         4.9403   -2.4205    3.9662 C.ar      1 <0>        -0.0152
     24 C18         5.4391   -3.2140    5.0015 C.ar      1 <0>        -0.0449
     25 C19         6.7990   -3.2800    5.2216 C.ar      1 <0>        -0.1053
     26 C20         7.6680   -2.5539    4.4260 C.ar      1 <0>        -0.0470
     27 C21         7.1802   -1.7613    3.4023 C.ar      1 <0>        -0.0342
     28 C22         5.8226   -1.6902    3.1677 C.ar      1 <0>        -0.0494
     29 N3          8.1172   -0.9875    2.5571 N.pl3     1 <0>         0.0255
     30 O3          7.6893   -0.2890    1.6558 O.2       1 <0>        -0.1512
     31 O4          9.3160   -1.0493    2.7631 O.3       1 <0>        -0.1494
     32 C23         3.0379   -0.4070   -0.1779 C.ar      1 <0>        -0.0973
     33 C24         2.5918   -0.1692   -1.4647 C.ar      1 <0>        -0.0869
     34 C25         3.2463   -0.7364   -2.5422 C.ar      1 <0>        -0.0970
     35 C26         4.3444   -1.5550   -2.3338 C.ar      1 <0>         0.0450
     36 C27         4.7905   -1.7989   -1.0372 C.ar      1 <0>         0.0383
     37 C28         4.1333   -1.2222    0.0375 C.ar      1 <0>        -0.0842
     38 O5          5.8746   -2.6262   -1.0972 O.3       1 <0>        -0.3054
     39 C29         5.8383   -3.2128   -2.4117 C.3       1 <0>         0.2126
     40 O6          5.1491   -2.2294   -3.2061 O.3       1 <0>        -0.3046
     41 H3          0.9276    7.0628   -0.0353 H         1 <0>         0.1190
     42 H4          3.3088    7.1785    0.4335 H         1 <0>         0.1219
     43 H5          4.6336    5.1516    0.9239 H         1 <0>         0.1288
     44 H6         -0.2799    4.9179   -0.0439 H         1 <0>         0.1298
     45 H7         -0.9876   -0.2291    0.1909 H         1 <0>         0.1075
     46 H8          0.3457    0.1164   -0.9381 H         1 <0>         0.0861
     47 H9         -0.6951    2.2366   -0.5329 H         1 <0>         0.0910
     48 H10        -0.8106    1.9292    1.2183 H         1 <0>         0.0813
     49 H11         0.3183   -3.0053    4.1999 H         1 <0>         0.1711
     50 H12         2.6892   -3.6795    5.2634 H         1 <0>         0.1658
     51 H13         4.7618   -3.7779    5.6258 H         1 <0>         0.1533
     52 H14         7.1865   -3.8967    6.0191 H         1 <0>         0.1594
     53 H15         8.7317   -2.6059    4.6054 H         1 <0>         0.1609
     54 H16         5.4432   -1.0714    2.3680 H         1 <0>         0.1540
     55 H17         1.7329    0.4647   -1.6287 H         1 <0>         0.1454
     56 H18         2.8982   -0.5455   -3.5466 H         1 <0>         0.1412
     57 H19         4.4773   -1.4093    1.0440 H         1 <0>         0.1295
     58 H20         5.2833   -4.1509   -2.3972 H         1 <0>         0.0859
     59 H21         6.8478   -3.3722   -2.7905 H         1 <0>         0.1348
@<TRIPOS>BOND
     1    1    6 ar
     2    1    2 ar
     3    1   41 1
     4    2    3 ar
     5    2   42 1
     6    3    4 ar
     7    3   43 1
     8    4    9 1
     9    4    5 ar
    10    5    6 ar
    11    5    7 1
    12    6   44 1
    13    7   15 1
    14    7    8 2
    15    8    9 1
    16    8   11 1
    17    9   10 1
    18   11   12 1
    19   11   13 1
    20   11   32 1
    21   13   14 1
    22   13   16 am
    23   14   15 1
    24   14   45 1
    25   14   46 1
    26   15   47 1
    27   15   48 1
    28   16   17 2
    29   16   18 1
    30   18   22 1
    31   18   19 2
    32   19   20 1
    33   19   49 1
    34   20   21 2
    35   20   50 1
    36   21   22 1
    37   21   23 1
    38   23   28 ar
    39   23   24 ar
    40   24   25 ar
    41   24   51 1
    42   25   26 ar
    43   25   52 1
    44   26   27 ar
    45   26   53 1
    46   27   28 ar
    47   27   29 1
    48   28   54 1
    49   29   30 2
    50   29   31 1
    51   32   37 ar
    52   32   33 ar
    53   33   34 ar
    54   33   55 1
    55   34   35 ar
    56   34   56 1
    57   35   40 1
    58   35   36 ar
    59   36   37 ar
    60   36   38 1
    61   37   57 1
    62   38   39 1
    63   39   40 1
    64   39   58 1
    65   39   59 1
@<TRIPOS>MOLECULE
ZINC04199942
   59    65     0     0     0
SMALL
USER_CHARGES

@<TRIPOS>ATOM
      1 C1          0.2791    9.8478   -0.5759 C.ar      1 <0>        -0.1420
      2 C2         -1.0301    9.8721   -0.1238 C.ar      1 <0>        -0.0862
      3 C3         -1.7241    8.7169    0.1913 C.ar      1 <0>        -0.1319
      4 C4         -1.0458    7.5100    0.0345 C.ar      1 <0>         0.1096
      5 C5          0.2956    7.4906   -0.4292 C.ar      1 <0>        -0.1035
      6 C6          0.9724    8.6742   -0.7402 C.ar      1 <0>        -0.0627
      7 C7          0.6803    6.0977   -0.4730 C.2       1 <0>        -0.1385
      8 C8         -0.3847    5.3754   -0.0566 C.2       1 <0>         0.0515
      9 N1         -1.4217    6.2145    0.2483 N.pl3     1 <0>        -0.5700
     10 H1         -2.2926    5.9317    0.5685 H         1 <0>         0.4159
     11 C9         -0.3698    3.8682    0.0394 C.3       1 <0>         0.1859
     12 H2         -0.9112    3.4420   -0.8052 H         1 <0>         0.0870
     13 N2          1.0294    3.4124    0.0106 N.pl3     1 <0>        -0.4625
     14 C10         1.7566    3.9841   -1.1315 C.3       1 <0>         0.0500
     15 C11         1.9921    5.4813   -0.8894 C.3       1 <0>        -0.0464
     16 C12         1.1010    2.0260    0.0024 C.ar      1 <0>         0.3762
     17 C13         2.3461    1.4021   -0.0128 C.ar      1 <0>        -0.1468
     18 C14         2.4089    0.0234   -0.0208 C.ar      1 <0>         0.0608
     19 C15         1.2088   -0.6981   -0.0132 C.ar      1 <0>        -0.0544
     20 C16         0.0021   -0.0041    0.0020 C.ar      1 <0>         0.1455
     21 C17         1.2230   -2.1806   -0.0218 C.ar      1 <0>         0.1429
     22 C18         0.0230   -2.8829   -0.1201 C.ar      1 <0>        -0.1545
     23 C19         0.0524   -4.2662   -0.1273 C.ar      1 <0>        -0.0643
     24 C20         1.2823   -4.9035   -0.0359 C.ar      1 <0>        -0.1463
     25 C21         2.4337   -4.1447    0.0590 C.ar      1 <0>         0.1173
     26 N3          2.3784   -2.8280    0.0586 N.ar      1 <0>        -0.4687
     27 C22        -1.0164    3.4366    1.3304 C.ar      1 <0>        -0.1853
     28 C23        -0.3064    3.4955    2.5157 C.ar      1 <0>        -0.0375
     29 C24        -0.8939    3.1029    3.7002 C.ar      1 <0>        -0.1311
     30 C25        -2.2048    2.6323    3.7109 C.ar      1 <0>         0.1394
     31 C26        -2.9079    2.5786    2.5144 C.ar      1 <0>        -0.1632
     32 C27        -2.3204    2.9745    1.3331 C.ar      1 <0>        -0.0878
     33 C28        -4.2920    2.0490    2.8358 C.3       1 <0>        -0.1145
     34 C29        -4.3499    2.2177    4.3725 C.3       1 <0>         0.0480
     35 O1         -2.9627    2.1835    4.7489 O.3       1 <0>        -0.2941
     36 H3          0.7700   10.7816   -0.8068 H         1 <0>         0.1248
     37 H4         -1.5262   10.8251   -0.0136 H         1 <0>         0.1272
     38 H5         -2.7448    8.7494    0.5427 H         1 <0>         0.1304
     39 H6          1.9931    8.6655   -1.0929 H         1 <0>         0.1332
     40 H7          2.7160    3.4784   -1.2414 H         1 <0>         0.1140
     41 H8          1.1693    3.8508   -2.0399 H         1 <0>         0.0777
     42 H9          2.7297    5.6151   -0.0981 H         1 <0>         0.0946
     43 H10         2.3464    5.9516   -1.8066 H         1 <0>         0.1010
     44 H11         3.2518    1.9903   -0.0187 H         1 <0>         0.1939
     45 H12         3.3607   -0.4868   -0.0323 H         1 <0>         0.1875
     46 H13        -0.9291   -0.5512    0.0076 H         1 <0>         0.1940
     47 H14        -0.9164   -2.3548   -0.1900 H         1 <0>         0.1365
     48 H15        -0.8611   -4.8374   -0.2020 H         1 <0>         0.1478
     49 H16         1.3389   -5.9820   -0.0393 H         1 <0>         0.1494
     50 H17         3.3920   -4.6376    0.1302 H         1 <0>         0.1720
     51 H18         0.7122    3.8545    2.5144 H         1 <0>         0.1458
     52 H19        -0.3339    3.1563    4.6221 H         1 <0>         0.1422
     53 H20        -2.8778    2.9247    0.4094 H         1 <0>         0.1346
     54 H21        -5.0612    2.6484    2.3488 H         1 <0>         0.1011
     55 H22        -4.3826    0.9997    2.5548 H         1 <0>         0.0982
     56 H23        -4.7989    3.1744    4.6393 H         1 <0>         0.0872
     57 H24        -4.8949    1.3928    4.8313 H         1 <0>         0.1178
     58 N4         -0.0861    1.3514    0.0102 N.ar      1 <0>        -0.5152
     59 H25        -0.9898    1.8387    0.0215 H         1 <0>         0.4665
@<TRIPOS>BOND
     1    1    6 ar
     2    1    2 ar
     3    1   36 1
     4    2    3 ar
     5    2   37 1
     6    3    4 ar
     7    3   38 1
     8    4    9 1
     9    4    5 ar
    10    5    6 ar
    11    5    7 1
    12    6   39 1
    13    7   15 1
    14    7    8 2
    15    8    9 1
    16    8   11 1
    17    9   10 1
    18   11   12 1
    19   11   13 1
    20   11   27 1
    21   13   14 1
    22   13   16 1
    23   14   15 1
    24   14   40 1
    25   14   41 1
    26   15   42 1
    27   15   43 1
    28   16   17 ar
    29   16   58 ar
    30   17   18 ar
    31   17   44 1
    32   18   19 ar
    33   18   45 1
    34   19   20 ar
    35   19   21 1
    36   20   46 1
    37   20   58 ar
    38   21   26 ar
    39   21   22 ar
    40   22   23 ar
    41   22   47 1
    42   23   24 ar
    43   23   48 1
    44   24   25 ar
    45   24   49 1
    46   25   26 ar
    47   25   50 1
    48   27   32 ar
    49   27   28 ar
    50   28   29 ar
    51   28   51 1
    52   29   30 ar
    53   29   52 1
    54   30   35 1
    55   30   31 ar
    56   31   32 ar
    57   31   33 1
    58   32   53 1
    59   33   34 1
    60   33   54 1
    61   33   55 1
    62   34   35 1
    63   34   56 1
    64   34   57 1
    65   58   59 1
@<TRIPOS>MOLECULE
ZINC04199943
   46    51     0     0     0
SMALL
USER_CHARGES

@<TRIPOS>ATOM
      1 C1          1.1617    2.0830    0.0022 C.ar      1 <0>        -0.1556
      2 C2          2.3753    1.4091   -0.0122 C.ar      1 <0>        -0.0516
      3 C3          2.4157    0.0323   -0.0204 C.ar      1 <0>        -0.1706
      4 C4          1.2273   -0.6932   -0.0134 C.ar      1 <0>         0.2015
      5 C5          0.0021   -0.0041    0.0020 C.ar      1 <0>        -0.1933
      6 C6         -0.0168    1.3903    0.0097 C.ar      1 <0>        -0.0259
      7 C7         -1.2406   -0.7930    0.0091 C.2       1 <0>         0.4401
      8 O1         -2.3313   -0.2466    0.0229 O.2       1 <0>        -0.4823
      9 C8         -1.1327   -2.2059   -0.0009 C.2       1 <0>        -0.2878
     10 C9          0.0798   -2.7961   -0.0155 C.2       1 <0>         0.1903
     11 N1          1.2306   -2.0674   -0.0217 N.pl3     1 <0>        -0.5913
     12 H1          2.1072   -2.5485   -0.0327 H         1 <0>         0.4244
     13 C10        -0.1035   -4.2973   -0.0229 C.3       1 <0>         0.2362
     14 H2          0.3616   -4.7308    0.8624 H         1 <0>         0.1179
     15 N2         -1.5440   -4.5695   -0.0114 N.am      1 <0>        -0.6037
     16 C11        -2.2094   -3.2626    0.0026 C.3       1 <0>         0.1714
     17 C12        -2.1382   -5.7792   -0.0139 C.2       1 <0>         0.6347
     18 O2         -1.4604   -6.7900   -0.0269 O.2       1 <0>        -0.4901
     19 C13        -3.6004   -5.8774   -0.0010 C.2       1 <0>        -0.0575
     20 C14        -4.3271   -7.0340   -0.0074 C.2       1 <0>        -0.1061
     21 C15        -5.6793   -6.6614    0.0126 C.2       1 <0>        -0.1652
     22 C16        -5.7197   -5.3090    0.0217 C.2       1 <0>         0.0022
     23 O3         -4.4646   -4.8409    0.0135 O.3       1 <0>        -0.1423
     24 Br1        -7.2888   -4.2538    0.0416 Br        1 <0>         0.0696
     25 C17         0.5170   -4.8817   -1.2657 C.ar      1 <0>        -0.0977
     26 C18        -0.1657   -4.8308   -2.4669 C.ar      1 <0>        -0.0801
     27 C19         0.3994   -5.3651   -3.6097 C.ar      1 <0>        -0.0956
     28 C20         1.6528   -5.9529   -3.5538 C.ar      1 <0>         0.0452
     29 C21         2.3405   -6.0041   -2.3439 C.ar      1 <0>         0.0369
     30 C22         1.7699   -5.4623   -1.2035 C.ar      1 <0>        -0.0831
     31 O4          3.5386   -6.6250   -2.5490 O.3       1 <0>        -0.3054
     32 C23         3.7523   -6.5877   -3.9724 C.3       1 <0>         0.2126
     33 O5          2.4201   -6.5416   -4.5170 O.3       1 <0>        -0.3057
     34 H3          1.1486    3.1629    0.0077 H         1 <0>         0.1337
     35 H4          3.2978    1.9705   -0.0176 H         1 <0>         0.1354
     36 H5          3.3651   -0.4823   -0.0325 H         1 <0>         0.1358
     37 H6         -0.9578    1.9203    0.0170 H         1 <0>         0.1413
     38 H7         -2.8351   -3.1564   -0.8836 H         1 <0>         0.0894
     39 H8         -2.8203   -3.1680    0.9004 H         1 <0>         0.0920
     40 H9         -3.9361   -8.0407   -0.0229 H         1 <0>         0.1728
     41 H10        -6.5286   -7.3286    0.0155 H         1 <0>         0.1713
     42 H11        -1.1426   -4.3724   -2.5125 H         1 <0>         0.1351
     43 H12        -0.1361   -5.3240   -4.5467 H         1 <0>         0.1401
     44 H13         2.3029   -5.4967   -0.2648 H         1 <0>         0.1391
     45 H14         4.3116   -5.6950   -4.2525 H         1 <0>         0.0869
     46 H15         4.2737   -7.4852   -4.3051 H         1 <0>         0.1352
@<TRIPOS>BOND
     1    1    6 ar
     2    1    2 ar
     3    1   34 1
     4    2    3 ar
     5    2   35 1
     6    3    4 ar
     7    3   36 1
     8    4   11 1
     9    4    5 ar
    10    5    6 ar
    11    5    7 1
    12    6   37 1
    13    7    8 2
    14    7    9 1
    15    9   16 1
    16    9   10 2
    17   10   11 1
    18   10   13 1
    19   11   12 1
    20   13   14 1
    21   13   15 1
    22   13   25 1
    23   15   16 1
    24   15   17 am
    25   16   38 1
    26   16   39 1
    27   17   18 2
    28   17   19 1
    29   19   23 1
    30   19   20 2
    31   20   21 1
    32   20   40 1
    33   21   22 2
    34   21   41 1
    35   22   23 1
    36   22   24 1
    37   25   30 ar
    38   25   26 ar
    39   26   27 ar
    40   26   42 1
    41   27   28 ar
    42   27   43 1
    43   28   33 1
    44   28   29 ar
    45   29   30 ar
    46   29   31 1
    47   30   44 1
    48   31   32 1
    49   32   33 1
    50   32   45 1
    51   32   46 1
@<TRIPOS>MOLECULE
ZINC04199943
   46    51     0     0     0
SMALL
USER_CHARGES

@<TRIPOS>ATOM
      1 C1          1.1617    2.0830    0.0012 C.ar      1 <0>        -0.1369
      2 C2          2.3753    1.4091   -0.0140 C.ar      1 <0>        -0.0765
      3 C3          2.4157    0.0323   -0.0223 C.ar      1 <0>        -0.1102
      4 C4          1.2273   -0.6932   -0.0148 C.ar      1 <0>         0.1813
      5 C5          0.0021   -0.0041    0.0023 C.ar      1 <0>        -0.1542
      6 C6         -0.0168    1.3903    0.0094 C.ar      1 <0>        -0.0668
      7 C7         -1.2406   -0.7930    0.0099 C.ar      1 <0>         0.2949
      8 O1         -2.3313   -0.2466    0.0241 O.3       1 <0>        -0.3830
      9 C8         -1.1327   -2.2059    0.0002 C.ar      1 <0>        -0.3588
     10 C9          0.0798   -2.7961   -0.0153 C.ar      1 <0>         0.2106
     11 N1          1.2306   -2.0674   -0.0226 N.ar      1 <0>        -0.5033
     12 H1         -3.0516   -0.9403    0.0271 H         1 <0>         0.4262
     13 C10        -0.1035   -4.2973   -0.0220 C.3       1 <0>         0.2415
     14 H2          0.3623   -4.7305    0.8631 H         1 <0>         0.1153
     15 N2         -1.5440   -4.5695   -0.0094 N.am      1 <0>        -0.6005
     16 C11        -2.2094   -3.2626    0.0042 C.3       1 <0>         0.1642
     17 C12        -2.1382   -5.7792   -0.0111 C.2       1 <0>         0.6319
     18 O2         -1.4604   -6.7900   -0.0244 O.2       1 <0>        -0.4847
     19 C13        -3.6004   -5.8774    0.0030 C.2       1 <0>        -0.0536
     20 C14        -4.3271   -7.0340   -0.0025 C.2       1 <0>        -0.1070
     21 C15        -5.6792   -6.6614    0.0185 C.2       1 <0>        -0.1609
     22 C16        -5.7196   -5.3090    0.0273 C.2       1 <0>        -0.0043
     23 O3         -4.4646   -4.8409    0.0179 O.3       1 <0>        -0.1486
     24 Br1        -7.2887   -4.2538    0.0482 Br        1 <0>         0.0681
     25 C17         0.5161   -4.8822   -1.2650 C.ar      1 <0>        -0.0746
     26 C18        -0.1675   -4.8317   -2.4657 C.ar      1 <0>        -0.0900
     27 C19         0.3968   -5.3664   -3.6088 C.ar      1 <0>        -0.0992
     28 C20         1.6502   -5.9542   -3.5536 C.ar      1 <0>         0.0386
     29 C21         2.3388   -6.0049   -2.3442 C.ar      1 <0>         0.0358
     30 C22         1.7690   -5.4627   -1.2035 C.ar      1 <0>        -0.0673
     31 O4          3.5368   -6.6259   -2.5499 O.3       1 <0>        -0.3062
     32 C23         3.7494   -6.5891   -3.9735 C.3       1 <0>         0.2130
     33 O5          2.4168   -6.5432   -4.5171 O.3       1 <0>        -0.3085
     34 H3          1.1486    3.1629    0.0068 H         1 <0>         0.1315
     35 H4          3.2978    1.9705   -0.0199 H         1 <0>         0.1340
     36 H5          3.3651   -0.4823   -0.0351 H         1 <0>         0.1396
     37 H6         -0.9578    1.9203    0.0173 H         1 <0>         0.1326
     38 H7         -2.8353   -3.1566   -0.8819 H         1 <0>         0.0833
     39 H8         -2.8201   -3.1678    0.9021 H         1 <0>         0.0859
     40 H9         -3.9361   -8.0407   -0.0181 H         1 <0>         0.1735
     41 H10        -6.5285   -7.3286    0.0222 H         1 <0>         0.1713
     42 H11        -1.1444   -4.3733   -2.5108 H         1 <0>         0.1285
     43 H12        -0.1394   -5.3257   -4.5454 H         1 <0>         0.1360
     44 H13         2.3027   -5.4968   -0.2652 H         1 <0>         0.1392
     45 H14         4.3085   -5.6965   -4.2543 H         1 <0>         0.0851
     46 H15         4.2706   -7.4867   -4.3062 H         1 <0>         0.1331
@<TRIPOS>BOND
     1    1    6 ar
     2    1    2 ar
     3    1   34 1
     4    2    3 ar
     5    2   35 1
     6    3    4 ar
     7    3   36 1
     8    4   11 ar
     9    4    5 ar
    10    5    6 ar
    11    5    7 ar
    12    6   37 1
    13    7    8 1
    14    7    9 ar
    15    8   12 1
    16    9   16 1
    17    9   10 ar
    18   10   13 1
    19   10   11 ar
    20   13   14 1
    21   13   15 1
    22   13   25 1
    23   15   16 1
    24   15   17 am
    25   16   38 1
    26   16   39 1
    27   17   18 2
    28   17   19 1
    29   19   23 1
    30   19   20 2
    31   20   21 1
    32   20   40 1
    33   21   22 2
    34   21   41 1
    35   22   23 1
    36   22   24 1
    37   25   30 ar
    38   25   26 ar
    39   26   27 ar
    40   26   42 1
    41   27   28 ar
    42   27   43 1
    43   28   33 1
    44   28   29 ar
    45   29   30 ar
    46   29   31 1
    47   30   44 1
    48   31   32 1
    49   32   33 1
    50   32   45 1
    51   32   46 1
@<TRIPOS>MOLECULE
ZINC04199944
   58    63     0     0     0
SMALL
USER_CHARGES

@<TRIPOS>ATOM
      1 C1          2.4257    4.1084    0.0005 C.3       1 <0>         0.0266
      2 O1          1.1601    3.4449    0.0090 O.3       1 <0>        -0.3164
      3 C2          1.1759    2.0860    0.0020 C.ar      1 <0>         0.1428
      4 C3         -0.0167    1.3772    0.0096 C.ar      1 <0>        -0.1564
      5 C4          0.0021   -0.0041    0.0020 C.ar      1 <0>        -0.0627
      6 C5          1.2080   -0.6802   -0.0131 C.ar      1 <0>        -0.1461
      7 C6          2.3980    0.0239   -0.0207 C.ar      1 <0>        -0.0082
      8 C7          2.3846    1.4052   -0.0127 C.ar      1 <0>        -0.2073
      9 C8          1.2256   -2.1871   -0.0209 C.3       1 <0>         0.3026
     10 H1          0.2645   -2.5705   -0.3637 H         1 <0>         0.1076
     11 C9          1.5297   -2.7114    1.3687 C.2       1 <0>         0.0629
     12 C10         2.5208   -3.5916    1.6334 C.2       1 <0>        -0.1549
     13 C11         2.4820   -3.8450    3.0621 C.ar      1 <0>        -0.0997
     14 C12         3.2501   -4.6614    3.8977 C.ar      1 <0>        -0.0657
     15 C13         2.9306   -4.6560    5.2332 C.ar      1 <0>        -0.1470
     16 C14         1.8986   -3.8832    5.7400 C.ar      1 <0>        -0.0960
     17 C15         1.1223   -3.0674    4.9353 C.ar      1 <0>        -0.1296
     18 C16         1.4237   -3.0529    3.5748 C.ar      1 <0>         0.1056
     19 N1          0.8734   -2.3808    2.5219 N.pl3     1 <0>        -0.5698
     20 H2          0.1285   -1.7624    2.5819 H         1 <0>         0.4187
     21 C17         3.4722   -4.1829    0.6237 C.3       1 <0>        -0.0379
     22 C18         2.8806   -4.0320   -0.7828 C.3       1 <0>         0.0924
     23 H3          2.1450   -4.8038   -1.0092 H         1 <0>         0.1401
     24 N2          2.3024   -2.6744   -0.8917 N.am      1 <0>        -0.6160
     25 C19         2.9464   -2.0468   -1.8774 C.2       1 <0>         0.7059
     26 O2          2.6712   -0.9275   -2.2628 O.2       1 <0>        -0.5210
     27 N3          3.9328   -2.7943   -2.3930 N.am      1 <0>        -0.5780
     28 C20         3.9990   -4.0062   -1.8049 C.2       1 <0>         0.5261
     29 O3          4.7903   -4.8928   -2.0448 O.2       1 <0>        -0.4540
     30 C21         4.8283   -2.3496   -3.4639 C.3       1 <0>         0.1300
     31 C22         6.0542   -1.6677   -2.8533 C.3       1 <0>        -0.0829
     32 C23         6.9753   -1.2102   -3.9548 C.ar      1 <0>         0.1308
     33 C24         7.3586    0.1164   -4.0180 C.ar      1 <0>        -0.1646
     34 C25         8.2110    0.5256   -5.0318 C.ar      1 <0>        -0.0719
     35 C26         8.6388   -0.4166   -5.9549 C.ar      1 <0>        -0.1748
     36 C27         8.2088   -1.7240   -5.8313 C.ar      1 <0>         0.1048
     37 N4          7.4020   -2.0789   -4.8502 N.ar      1 <0>        -0.4803
     38 H4          2.9777    3.8266   -0.8961 H         1 <0>         0.0569
     39 H5          2.2703    5.1873    0.0074 H         1 <0>         0.1017
     40 H6          2.9944    3.8176    0.8838 H         1 <0>         0.0557
     41 H7         -0.9589    1.9049    0.0169 H         1 <0>         0.1333
     42 H8         -0.9260   -0.5563    0.0083 H         1 <0>         0.1303
     43 H9          3.3387   -0.5065   -0.0325 H         1 <0>         0.1124
     44 H10         3.3144    1.9547   -0.0186 H         1 <0>         0.1267
     45 H11         4.0560   -5.2676    3.5113 H         1 <0>         0.1305
     46 H12         3.5019   -5.2741    5.9100 H         1 <0>         0.1196
     47 H13         1.6928   -3.9183    6.7997 H         1 <0>         0.1223
     48 H14         0.3206   -2.4695    5.3428 H         1 <0>         0.1290
     49 H15         3.6241   -5.2398    0.8427 H         1 <0>         0.1006
     50 H16         4.4273   -3.6602    0.6743 H         1 <0>         0.0817
     51 H17         5.1466   -3.2102   -4.0522 H         1 <0>         0.1076
     52 H18         4.3028   -1.6440   -4.1073 H         1 <0>         0.0965
     53 H19         5.7359   -0.8070   -2.2650 H         1 <0>         0.0850
     54 H20         6.5797   -2.3733   -2.2098 H         1 <0>         0.0893
     55 H21         7.0019    0.8242   -3.2844 H         1 <0>         0.1345
     56 H22         8.5311    1.5546   -5.1033 H         1 <0>         0.1359
     57 H23         9.3000   -0.1323   -6.7601 H         1 <0>         0.1365
     58 H24         8.5375   -2.4638   -6.5462 H         1 <0>         0.1585
@<TRIPOS>BOND
     1    1    2 1
     2    1   38 1
     3    1   39 1
     4    1   40 1
     5    2    3 1
     6    3    8 ar
     7    3    4 ar
     8    4    5 ar
     9    4   41 1
    10    5    6 ar
    11    5   42 1
    12    6    7 ar
    13    6    9 1
    14    7    8 ar
    15    7   43 1
    16    8   44 1
    17    9   10 1
    18    9   24 1
    19    9   11 1
    20   11   19 1
    21   11   12 2
    22   12   13 1
    23   12   21 1
    24   13   18 ar
    25   13   14 ar
    26   14   15 ar
    27   14   45 1
    28   15   16 ar
    29   15   46 1
    30   16   17 ar
    31   16   47 1
    32   17   18 ar
    33   17   48 1
    34   18   19 1
    35   19   20 1
    36   21   22 1
    37   21   49 1
    38   21   50 1
    39   22   23 1
    40   22   28 1
    41   22   24 1
    42   24   25 am
    43   25   26 2
    44   25   27 am
    45   27   28 am
    46   27   30 1
    47   28   29 2
    48   30   31 1
    49   30   51 1
    50   30   52 1
    51   31   32 1
    52   31   53 1
    53   31   54 1
    54   32   37 ar
    55   32   33 ar
    56   33   34 ar
    57   33   55 1
    58   34   35 ar
    59   34   56 1
    60   35   36 ar
    61   35   57 1
    62   36   37 ar
    63   36   58 1
@<TRIPOS>MOLECULE
ZINC04199945
   65    71     0     0     0
SMALL
USER_CHARGES

@<TRIPOS>ATOM
      1 C1         -4.1383   -5.7913   -4.4074 C.ar      1 <0>        -0.1424
      2 C2         -4.7776   -4.5668   -4.5132 C.ar      1 <0>        -0.0928
      3 C3         -4.5896   -3.5531   -3.5899 C.ar      1 <0>        -0.1267
      4 C4         -3.7191   -3.8149   -2.5339 C.ar      1 <0>         0.1068
      5 C5         -3.0678   -5.0708   -2.4300 C.ar      1 <0>        -0.0985
      6 C6         -3.2762   -6.0775   -3.3778 C.ar      1 <0>        -0.0691
      7 C7         -2.2531   -5.0018   -1.2338 C.2       1 <0>        -0.1624
      8 C8         -2.4368   -3.7741   -0.7016 C.2       1 <0>         0.0640
      9 N1         -3.3135   -3.0579   -1.4726 N.pl3     1 <0>        -0.5706
     10 H1         -3.6023   -2.1497   -1.2921 H         1 <0>         0.4204
     11 C9         -1.7543   -3.3018    0.5619 C.3       1 <0>         0.2577
     12 H2         -2.4868   -2.8585    1.2365 H         1 <0>         0.1360
     13 N2         -1.1354   -4.4838    1.1988 N.am      1 <0>        -0.5865
     14 C10        -0.3908   -5.4082    0.3447 C.3       1 <0>         0.1211
     15 H3          0.3505   -4.8447   -0.2220 H         1 <0>         0.1304
     16 C11        -1.3580   -6.0649   -0.6504 C.3       1 <0>        -0.0394
     17 C12         0.3082   -6.4654    1.1372 C.2       1 <0>         0.5304
     18 O1          1.0340   -7.2340    0.5427 O.2       1 <0>        -0.5138
     19 N3          0.1843   -6.6174    2.4542 N.am      1 <0>        -0.6007
     20 C13        -0.6450   -5.7669    3.2917 C.3       1 <0>         0.1015
     21 C14        -1.2809   -4.6614    2.5135 C.2       1 <0>         0.5160
     22 O2         -1.9765   -3.8723    3.1171 O.2       1 <0>        -0.5155
     23 C15         0.9265   -7.7052    3.0962 C.3       1 <0>         0.0823
     24 C16         0.0659   -8.9701    3.1117 C.3       1 <0>        -0.0247
     25 C17         1.9770  -10.4495    2.9501 C.3       1 <0>        -0.0430
     26 C18         2.7552  -11.5445    3.6844 C.3       1 <0>         0.0357
     27 O3          1.8844  -12.6489    3.9440 O.3       1 <0>        -0.3559
     28 C19         0.7375  -12.3061    4.7267 C.3       1 <0>         0.0351
     29 C20        -0.0611  -11.2188    4.0029 C.3       1 <0>        -0.0376
     30 C21        -0.6921   -2.2882    0.2221 C.ar      1 <0>        -0.1072
     31 C22        -0.6810   -1.0608    0.8584 C.ar      1 <0>        -0.0823
     32 C23         0.2912   -0.1278    0.5501 C.ar      1 <0>        -0.0981
     33 C24         1.2579   -0.4212   -0.3980 C.ar      1 <0>         0.0494
     34 C25         1.2465   -1.6573   -1.0393 C.ar      1 <0>         0.0351
     35 C26         0.2688   -2.5874   -0.7256 C.ar      1 <0>        -0.0857
     36 O4          2.2891   -1.7020   -1.9193 O.3       1 <0>        -0.3057
     37 C27         2.6931   -0.3326   -2.1064 C.3       1 <0>         0.2122
     38 O5          2.3076    0.3088   -0.8762 O.3       1 <0>        -0.3040
     39 H4         -4.3237   -6.5446   -5.1588 H         1 <0>         0.1217
     40 H5         -5.4457   -4.3976   -5.3447 H         1 <0>         0.1255
     41 H6         -5.0945   -2.6030   -3.6835 H         1 <0>         0.1316
     42 H7         -2.7820   -7.0349   -3.3037 H         1 <0>         0.1288
     43 H8         -0.7910   -6.5434   -1.4490 H         1 <0>         0.1022
     44 H9         -1.9638   -6.8092   -0.1337 H         1 <0>         0.0791
     45 H10        -0.0277   -5.3357    4.0798 H         1 <0>         0.1230
     46 H11        -1.4268   -6.3746    3.7472 H         1 <0>         0.1155
     47 H12         1.8441   -7.8968    2.5399 H         1 <0>         0.1157
     48 H13         1.1743   -7.4217    4.1191 H         1 <0>         0.1078
     49 H14        -0.8517   -8.7785    3.6680 H         1 <0>         0.1345
     50 H15        -0.1819   -9.2535    2.0888 H         1 <0>         0.1382
     51 H16         1.6429  -10.8263    1.9834 H         1 <0>         0.1434
     52 H17         2.6212   -9.5830    2.8008 H         1 <0>         0.1421
     53 H18         3.1351  -11.1511    4.6273 H         1 <0>         0.0817
     54 H19         3.5889  -11.8761    3.0654 H         1 <0>         0.1428
     55 H20         1.0587  -11.9349    5.6998 H         1 <0>         0.0817
     56 H21         0.1117  -13.1882    4.8621 H         1 <0>         0.1424
     57 H22        -0.9048  -10.9139    4.6221 H         1 <0>         0.1416
     58 H23        -0.4285  -11.6075    3.0531 H         1 <0>         0.1411
     59 H24        -1.4334   -0.8307    1.5983 H         1 <0>         0.1450
     60 H25         0.2976    0.8301    1.0490 H         1 <0>         0.1440
     61 H26         0.2575   -3.5468   -1.2214 H         1 <0>         0.1359
     62 H27         3.7716   -0.2678   -2.2505 H         1 <0>         0.1379
     63 H28         2.1654    0.1104   -2.9510 H         1 <0>         0.0903
     64 N4          0.8199  -10.0530    3.7796 N.4       1 <0>        -0.3918
     65 H29         1.1601   -9.7126    4.6866 H         1 <0>         0.4268
@<TRIPOS>BOND
     1    1    6 ar
     2    1    2 ar
     3    1   39 1
     4    2    3 ar
     5    2   40 1
     6    3    4 ar
     7    3   41 1
     8    4    9 1
     9    4    5 ar
    10    5    6 ar
    11    5    7 1
    12    6   42 1
    13    7   16 1
    14    7    8 2
    15    8    9 1
    16    8   11 1
    17    9   10 1
    18   11   12 1
    19   11   13 1
    20   11   30 1
    21   13   21 am
    22   13   14 1
    23   14   15 1
    24   14   16 1
    25   14   17 1
    26   16   43 1
    27   16   44 1
    28   17   18 2
    29   17   19 am
    30   19   20 1
    31   19   23 1
    32   20   21 1
    33   20   45 1
    34   20   46 1
    35   21   22 2
    36   23   24 1
    37   23   47 1
    38   23   48 1
    39   24   49 1
    40   24   50 1
    41   24   64 1
    42   25   26 1
    43   25   51 1
    44   25   52 1
    45   25   64 1
    46   26   27 1
    47   26   53 1
    48   26   54 1
    49   27   28 1
    50   28   29 1
    51   28   55 1
    52   28   56 1
    53   29   57 1
    54   29   58 1
    55   29   64 1
    56   30   35 ar
    57   30   31 ar
    58   31   32 ar
    59   31   59 1
    60   32   33 ar
    61   32   60 1
    62   33   38 1
    63   33   34 ar
    64   34   35 ar
    65   34   36 1
    66   35   61 1
    67   36   37 1
    68   37   38 1
    69   37   62 1
    70   37   63 1
    71   64   65 1
@<TRIPOS>MOLECULE
ZINC04199946
   71    77     0     0     0
SMALL
USER_CHARGES

@<TRIPOS>ATOM
      1 C1         -7.4104    1.9103   -1.5015 C.3       1 <0>        -0.1221
      2 C2         -6.0079    2.2891   -1.1010 C.ar      1 <0>        -0.0675
      3 C3         -5.7256    3.5863   -0.7156 C.ar      1 <0>        -0.1187
      4 C4         -4.4391    3.9338   -0.3483 C.ar      1 <0>        -0.0913
      5 C5         -3.4350    2.9839   -0.3655 C.ar      1 <0>        -0.1198
      6 C6         -3.7162    1.6879   -0.7554 C.ar      1 <0>        -0.0979
      7 C7         -5.0036    1.3393   -1.1186 C.ar      1 <0>        -0.1193
      8 C8         -2.0324    3.3627    0.0351 C.3       1 <0>         0.2531
      9 H1         -2.0186    4.3825    0.4198 H         1 <0>         0.1293
     10 C9         -1.5237    2.4078    1.0912 C.2       1 <0>         0.0653
     11 C10        -0.5828    1.4654    0.8559 C.2       1 <0>        -0.1632
     12 C11        -0.3722    0.7582    2.1009 C.ar      1 <0>        -0.0978
     13 C12         0.4660   -0.3030    2.4568 C.ar      1 <0>        -0.0689
     14 C13         0.4086   -0.7282    3.7611 C.ar      1 <0>        -0.1427
     15 C14        -0.4354   -0.1419    4.6901 C.ar      1 <0>        -0.0933
     16 C15        -1.2759    0.9087    4.3649 C.ar      1 <0>        -0.1273
     17 C16        -1.2398    1.3611    3.0474 C.ar      1 <0>         0.1057
     18 N1         -1.9201    2.3526    2.4009 N.pl3     1 <0>        -0.5706
     19 H2         -2.5842    2.9309    2.8079 H         1 <0>         0.4195
     20 C17         0.0848    1.2366   -0.4760 C.3       1 <0>        -0.0396
     21 C18        -0.7477    1.9130   -1.5742 C.3       1 <0>         0.1221
     22 H3         -1.6575    1.3340   -1.7330 H         1 <0>         0.1313
     23 N2         -1.1297    3.2530   -1.1308 N.am      1 <0>        -0.5837
     24 C19        -0.7079    4.3682   -1.7301 C.2       1 <0>         0.5160
     25 O1         -1.0306    5.4299   -1.2406 O.2       1 <0>        -0.5194
     26 C20         0.1351    4.3972   -2.9633 C.3       1 <0>         0.0972
     27 N3          0.4242    3.0617   -3.4585 N.am      1 <0>        -0.6007
     28 C21         0.0333    1.9447   -2.8483 C.2       1 <0>         0.5326
     29 O2          0.3301    0.8853   -3.3587 O.2       1 <0>        -0.5064
     30 C22         1.1906    2.9373   -4.7008 C.3       1 <0>         0.1141
     31 H4          1.3438    1.8865   -4.9468 H         1 <0>         0.1494
     32 C23         0.4617    3.6568   -5.8544 C.3       1 <0>        -0.1645
     33 C24         1.4389    4.7564   -6.3225 C.3       1 <0>        -0.0073
     34 C25         2.5469    3.6627   -4.5690 C.3       1 <0>        -0.0253
     35 C26         3.7397    5.3767   -5.8215 C.3       1 <0>         0.0556
     36 C27         4.0481    5.8802   -7.2080 C.ar      1 <0>        -0.1622
     37 C28         5.0984    5.3361   -7.9233 C.ar      1 <0>        -0.0914
     38 C29         5.3783    5.7947   -9.1970 C.ar      1 <0>        -0.1140
     39 C30         4.6141    6.8043   -9.7515 C.ar      1 <0>        -0.0822
     40 C31         3.5673    7.3524   -9.0340 C.ar      1 <0>        -0.1146
     41 C32         3.2841    6.8902   -7.7624 C.ar      1 <0>        -0.0933
     42 H5         -7.5358    2.0625   -2.5735 H         1 <0>         0.0748
     43 H6         -7.5865    0.8620   -1.2603 H         1 <0>         0.0706
     44 H7         -8.1233    2.5323   -0.9603 H         1 <0>         0.0709
     45 H8         -6.5102    4.3284   -0.7018 H         1 <0>         0.1282
     46 H9         -4.2185    4.9474   -0.0475 H         1 <0>         0.1270
     47 H10        -2.9308    0.9468   -0.7731 H         1 <0>         0.1234
     48 H11        -5.2242    0.3258   -1.4194 H         1 <0>         0.1270
     49 H12         1.1275   -0.7662    1.7396 H         1 <0>         0.1295
     50 H13         1.0420   -1.5456    4.0729 H         1 <0>         0.1217
     51 H14        -0.4380   -0.5176    5.7026 H         1 <0>         0.1252
     52 H15        -1.9298    1.3569    5.0984 H         1 <0>         0.1309
     53 H16         0.1488    0.1665   -0.6733 H         1 <0>         0.1027
     54 H17         1.0867    1.6657   -0.4608 H         1 <0>         0.0799
     55 H18         1.0743    4.9027   -2.7386 H         1 <0>         0.1106
     56 H19        -0.3911    4.9558   -3.7374 H         1 <0>         0.1171
     57 H20         0.2588    2.9596   -6.6673 H         1 <0>         0.1145
     58 H21        -0.4663    4.1025   -5.4962 H         1 <0>         0.1169
     59 H22         1.3952    4.8677   -7.4059 H         1 <0>         0.1421
     60 H23         1.2094    5.7026   -5.8326 H         1 <0>         0.1327
     61 H24         2.4908    4.4378   -3.8047 H         1 <0>         0.1364
     62 H25         3.3375    2.9506   -4.3321 H         1 <0>         0.1495
     63 H26         3.3116    6.1848   -5.2284 H         1 <0>         0.1329
     64 H27         4.6577    5.0265   -5.3496 H         1 <0>         0.1387
     65 H28         5.6981    4.5501   -7.4884 H         1 <0>         0.1317
     66 H29         6.1964    5.3667   -9.7573 H         1 <0>         0.1363
     67 H30         4.8351    7.1651  -10.7452 H         1 <0>         0.1359
     68 H31         2.9704    8.1414   -9.4672 H         1 <0>         0.1359
     69 H32         2.4663    7.3184   -7.2019 H         1 <0>         0.1296
     70 N4          2.7486    4.2568   -5.8884 N.4       1 <0>        -0.3920
     71 H33         3.0886    3.5447   -6.5453 H         1 <0>         0.4332
@<TRIPOS>BOND
     1    1    2 1
     2    1   42 1
     3    1   43 1
     4    1   44 1
     5    2    7 ar
     6    2    3 ar
     7    3    4 ar
     8    3   45 1
     9    4    5 ar
    10    4   46 1
    11    5    6 ar
    12    5    8 1
    13    6    7 ar
    14    6   47 1
    15    7   48 1
    16    8    9 1
    17    8   23 1
    18    8   10 1
    19   10   18 1
    20   10   11 2
    21   11   12 1
    22   11   20 1
    23   12   17 ar
    24   12   13 ar
    25   13   14 ar
    26   13   49 1
    27   14   15 ar
    28   14   50 1
    29   15   16 ar
    30   15   51 1
    31   16   17 ar
    32   16   52 1
    33   17   18 1
    34   18   19 1
    35   20   21 1
    36   20   53 1
    37   20   54 1
    38   21   22 1
    39   21   28 1
    40   21   23 1
    41   23   24 am
    42   24   25 2
    43   24   26 1
    44   26   27 1
    45   26   55 1
    46   26   56 1
    47   27   28 am
    48   27   30 1
    49   28   29 2
    50   30   31 1
    51   30   34 1
    52   30   32 1
    53   32   33 1
    54   32   57 1
    55   32   58 1
    56   33   59 1
    57   33   60 1
    58   33   70 1
    59   34   61 1
    60   34   62 1
    61   34   70 1
    62   35   36 1
    63   35   63 1
    64   35   64 1
    65   35   70 1
    66   36   41 ar
    67   36   37 ar
    68   37   38 ar
    69   37   65 1
    70   38   39 ar
    71   38   66 1
    72   39   40 ar
    73   39   67 1
    74   40   41 ar
    75   40   68 1
    76   41   69 1
    77   70   71 1
@<TRIPOS>MOLECULE
ZINC04199947
   42    44     0     0     0
SMALL
USER_CHARGES

@<TRIPOS>ATOM
      1 C1          4.9495    3.9382    3.4839 C.3       1 <0>        -0.1775
      2 C2          4.0278    4.7479    2.5697 C.3       1 <0>         0.1175
      3 N1          2.8880    3.9198    2.1681 N.pl3     1 <0>        -0.3762
      4 C3          2.8328    3.1150    1.0650 C.ar      1 <0>         0.3269
      5 C4          1.5615    2.5134    1.0749 C.ar      1 <0>        -0.2466
      6 C5          0.8822    2.9946    2.2179 C.2       1 <0>         0.1167
      7 N2          1.6696    3.8169    2.8490 N.2       1 <0>        -0.2195
      8 C6          1.2164    1.6205    0.0424 C.ar      1 <0>         0.3543
      9 C7          2.1755    1.3691   -0.9557 C.ar      1 <0>        -0.1607
     10 C8          3.4156    2.0179   -0.8865 C.ar      1 <0>         0.2448
     11 C9          1.8791    0.4424   -2.0584 C.2       1 <0>         0.4951
     12 O1          0.7697   -0.0432   -2.1627 O.co2     1 <0>        -0.5590
     13 N3         -0.0191    1.0081    0.0135 N.pl3     1 <0>        -0.6093
     14 C10        -0.0380   -0.1801    0.8770 C.3       1 <0>         0.1257
     15 C11        -1.3938   -0.8338    0.8024 C.ar      1 <0>        -0.1221
     16 C12        -2.3879   -0.4643    1.6897 C.ar      1 <0>        -0.0664
     17 C13        -3.6333   -1.0583    1.6207 C.ar      1 <0>        -0.2040
     18 C14        -3.8835   -2.0339    0.6670 C.ar      1 <0>         0.1460
     19 C15        -2.8827   -2.4073   -0.2194 C.ar      1 <0>        -0.0714
     20 C16        -1.6397   -1.8058   -0.1494 C.ar      1 <0>        -0.0256
     21 Cl1        -3.1915   -3.6275   -1.4150 Cl        1 <0>        -0.0497
     22 O2         -5.1066   -2.6230    0.6004 O.3       1 <0>        -0.3039
     23 C17        -6.0880   -2.1892    1.5441 C.3       1 <0>         0.0253
     24 H1          5.7976    4.5543    3.7827 H         1 <0>         0.0922
     25 H2          4.3980    3.6247    4.3703 H         1 <0>         0.0752
     26 H3          5.3096    3.0587    2.9500 H         1 <0>         0.0611
     27 H4          4.5793    5.0614    1.6833 H         1 <0>         0.0979
     28 H5          3.6678    5.6274    3.1036 H         1 <0>         0.1181
     29 H6         -0.1200    2.7251    2.5169 H         1 <0>         0.2142
     30 H7          4.1536    1.8311   -1.6525 H         1 <0>         0.2150
     31 H8         -0.7493    1.6547    0.2721 H         1 <0>         0.3667
     32 H9          0.7238   -0.8844    0.5426 H         1 <0>         0.1001
     33 H10         0.1668    0.1152    1.9060 H         1 <0>         0.0563
     34 H11        -2.1916    0.2922    2.4351 H         1 <0>         0.1282
     35 H12        -4.4103   -0.7661    2.3115 H         1 <0>         0.1375
     36 H13        -0.8603   -2.0959   -0.8384 H         1 <0>         0.1527
     37 H14        -7.0158   -2.7378    1.3817 H         1 <0>         0.1039
     38 H15        -5.7273   -2.3767    2.5555 H         1 <0>         0.0574
     39 H16        -6.2694   -1.1222    1.4151 H         1 <0>         0.0579
     40 N4          3.7744    2.8802    0.0928 N.ar      1 <0>        -0.5209
     41 H17         4.6961    3.3324    0.1082 H         1 <0>         0.4618
     42 O3          2.8378    0.1314   -2.9535 O.co2     1 <0>        -0.7356
@<TRIPOS>BOND
     1    1    2 1
     2    1   24 1
     3    1   25 1
     4    1   26 1
     5    2    3 1
     6    2   27 1
     7    2   28 1
     8    3    7 1
     9    3    4 1
    10    4    5 ar
    11    4   40 ar
    12    5    6 1
    13    5    8 ar
    14    6    7 2
    15    6   29 1
    16    8    9 ar
    17    8   13 1
    18    9   10 ar
    19    9   11 1
    20   10   30 1
    21   10   40 ar
    22   11   12 2
    23   11   42 1
    24   13   14 1
    25   13   31 1
    26   14   15 1
    27   14   32 1
    28   14   33 1
    29   15   20 ar
    30   15   16 ar
    31   16   17 ar
    32   16   34 1
    33   17   18 ar
    34   17   35 1
    35   18   19 ar
    36   18   22 1
    37   19   20 ar
    38   19   21 1
    39   20   36 1
    40   22   23 1
    41   23   37 1
    42   23   38 1
    43   23   39 1
    44   40   41 1
@<TRIPOS>MOLECULE
ZINC04199948
   36    38     0     0     0
SMALL
USER_CHARGES

@<TRIPOS>ATOM
      1 C1          1.1788   -4.7663    0.6012 C.3       1 <0>         0.0235
      2 O1          0.0609   -4.1300   -0.0212 O.3       1 <0>        -0.3027
      3 C2          0.0413   -2.7709   -0.0133 C.ar      1 <0>         0.1510
      4 C3          1.0768   -2.0645    0.5807 C.ar      1 <0>        -0.2004
      5 C4          1.0575   -0.6831    0.5824 C.ar      1 <0>        -0.0505
      6 C5          0.0021   -0.0041    0.0020 C.ar      1 <0>        -0.1453
      7 C6         -1.0316   -0.7049   -0.5909 C.ar      1 <0>        -0.0497
      8 C7         -1.0148   -2.0873   -0.6001 C.ar      1 <0>        -0.0738
      9 Cl1        -2.3132   -2.9672   -1.3442 Cl        1 <0>        -0.0489
     10 C8         -0.0184    1.5028    0.0103 C.3       1 <0>         0.1729
     11 N1         -0.7041    1.9752    1.2156 N.pl3     1 <0>        -0.6905
     12 C9         -0.8469    3.3335    1.4434 C.ar      1 <0>         0.3886
     13 C10        -1.5069    3.8042    2.6032 C.ar      1 <0>        -0.1087
     14 C11        -2.0408    2.9449    3.5654 C.ar      1 <0>        -0.0274
     15 C12        -2.6740    3.4832    4.6774 C.ar      1 <0>        -0.0071
     16 C13        -2.7782    4.8766    4.8359 C.ar      1 <0>        -0.0476
     17 C14        -2.2631    5.7254    3.9071 C.ar      1 <0>        -0.0897
     18 C15        -1.6183    5.2091    2.7741 C.ar      1 <0>        -0.0103
     19 C16        -1.0638    6.0349    1.7772 C.ar      1 <0>         0.0848
     20 N2         -0.4736    5.4806    0.7424 N.ar      1 <0>        -0.1854
     21 N3         -0.3647    4.2142    0.5844 N.ar      1 <0>        -0.3156
     22 Cl2        -1.1585    7.7629    1.9139 Cl        1 <0>        -0.0011
     23 C17        -3.2252    2.6123    5.6715 C.1       1 <0>         0.2432
     24 N4         -3.6624    1.9214    6.4602 N.1       1 <0>        -0.3918
     25 H1          2.0971   -4.4573    0.1019 H         1 <0>         0.0602
     26 H2          1.2220   -4.4788    1.6518 H         1 <0>         0.0594
     27 H3          1.0700   -5.8482    0.5247 H         1 <0>         0.1064
     28 H4          1.8995   -2.5941    1.0379 H         1 <0>         0.1413
     29 H5          1.8659   -0.1330    1.0410 H         1 <0>         0.1359
     30 H6         -1.8526   -0.1721   -1.0475 H         1 <0>         0.1435
     31 H7          1.0042    1.8801    0.0026 H         1 <0>         0.0879
     32 H8         -0.5455    1.8639   -0.8728 H         1 <0>         0.0872
     33 H9         -1.0580    1.3365    1.8541 H         1 <0>         0.4126
     34 H10        -1.9617    1.8744    3.4463 H         1 <0>         0.1447
     35 H11        -3.2746    5.2779    5.7071 H         1 <0>         0.1484
     36 H12        -2.3506    6.7935    4.0413 H         1 <0>         0.1552
@<TRIPOS>BOND
     1    1    2 1
     2    1   25 1
     3    1   26 1
     4    1   27 1
     5    2    3 1
     6    3    8 ar
     7    3    4 ar
     8    4    5 ar
     9    4   28 1
    10    5    6 ar
    11    5   29 1
    12    6    7 ar
    13    6   10 1
    14    7    8 ar
    15    7   30 1
    16    8    9 1
    17   10   11 1
    18   10   31 1
    19   10   32 1
    20   11   12 1
    21   11   33 1
    22   12   21 ar
    23   12   13 ar
    24   13   18 ar
    25   13   14 ar
    26   14   15 ar
    27   14   34 1
    28   15   16 ar
    29   15   23 1
    30   16   17 ar
    31   16   35 1
    32   17   18 ar
    33   17   36 1
    34   18   19 ar
    35   19   20 ar
    36   19   22 1
    37   20   21 ar
    38   23   24 3
@<TRIPOS>MOLECULE
ZINC04199949
   36    39     0     0     0
SMALL
USER_CHARGES

@<TRIPOS>ATOM
      1 C1         -1.7494    0.8235   -1.7737 C.ar      1 <0>        -0.0835
      2 C2         -2.4247    1.2797   -2.8909 C.ar      1 <0>        -0.1021
      3 C3         -2.0847    2.4971   -3.4572 C.ar      1 <0>         0.0481
      4 C4         -1.0652    3.2622   -2.8950 C.ar      1 <0>         0.0311
      5 C5         -0.3967    2.8014   -1.7730 C.ar      1 <0>        -0.0789
      6 C6         -0.7416    1.5850   -1.2129 C.ar      1 <0>        -0.1125
      7 C7         -0.0127    1.0858    0.0080 C.3       1 <0>         0.1707
      8 N1         -0.6984    1.5583    1.2133 N.pl3     1 <0>        -0.6855
      9 C8         -0.2084    1.2232    2.4657 C.ar      1 <0>         0.3970
     10 C9         -0.8599    1.6721    3.6375 C.ar      1 <0>        -0.1154
     11 C10        -2.0129    2.4633    3.6068 C.ar      1 <0>        -0.0022
     12 C11        -2.5858    2.8578    4.7799 C.ar      1 <0>        -0.0303
     13 C12        -2.0410    2.4853    6.0064 C.ar      1 <0>        -0.0429
     14 C13        -0.9179    1.7151    6.0721 C.ar      1 <0>        -0.0833
     15 C14        -0.3044    1.2921    4.8865 C.ar      1 <0>         0.0053
     16 C15         0.8568    0.4945    4.8720 C.ar      1 <0>         0.0786
     17 N2          1.3725    0.1389    3.7173 N.ar      1 <0>        -0.1693
     18 N3          0.8727    0.4741    2.5866 N.ar      1 <0>        -0.3088
     19 Cl1         1.5954   -0.0117    6.3592 Cl        1 <0>         0.0083
     20 N4         -3.8063    3.6948    4.7491 N.pl3     1 <0>         0.0228
     21 O1         -4.2910    4.0258    3.6819 O.2       1 <0>        -0.1526
     22 O2         -4.3258    4.0525    5.7911 O.3       1 <0>        -0.1403
     23 O3         -0.9230    4.4051   -3.6277 O.3       1 <0>        -0.3063
     24 C16        -1.5845    4.1440   -4.8797 C.3       1 <0>         0.2125
     25 O4         -2.5808    3.1610   -4.5418 O.3       1 <0>        -0.3060
     26 H1         -2.0131   -0.1279   -1.3359 H         1 <0>         0.1426
     27 H2         -3.2146    0.6845   -3.3246 H         1 <0>         0.1413
     28 H3          0.3940    3.3925   -1.3351 H         1 <0>         0.1389
     29 H4          0.0021   -0.0041    0.0020 H         1 <0>         0.0931
     30 H5          1.0099    1.4631    0.0003 H         1 <0>         0.0904
     31 H6         -1.4954    2.1056    1.1349 H         1 <0>         0.4154
     32 H7         -2.4458    2.7589    2.6625 H         1 <0>         0.1642
     33 H8         -2.5155    2.8120    6.9199 H         1 <0>         0.1678
     34 H9         -0.5056    1.4332    7.0297 H         1 <0>         0.1673
     35 H10        -0.8806    3.7411   -5.6080 H         1 <0>         0.0886
     36 H11        -2.0547    5.0505   -5.2609 H         1 <0>         0.1359
@<TRIPOS>BOND
     1    1    6 ar
     2    1    2 ar
     3    1   26 1
     4    2    3 ar
     5    2   27 1
     6    3   25 1
     7    3    4 ar
     8    4    5 ar
     9    4   23 1
    10    5    6 ar
    11    5   28 1
    12    6    7 1
    13    7    8 1
    14    7   29 1
    15    7   30 1
    16    8    9 1
    17    8   31 1
    18    9   18 ar
    19    9   10 ar
    20   10   15 ar
    21   10   11 ar
    22   11   12 ar
    23   11   32 1
    24   12   13 ar
    25   12   20 1
    26   13   14 ar
    27   13   33 1
    28   14   15 ar
    29   14   34 1
    30   15   16 ar
    31   16   17 ar
    32   16   19 1
    33   17   18 ar
    34   20   21 2
    35   20   22 1
    36   23   24 1
    37   24   25 1
    38   24   35 1
    39   24   36 1
@<TRIPOS>MOLECULE
ZINC04199950
   43    46     0     0     0
SMALL
USER_CHARGES

@<TRIPOS>ATOM
      1 C1          1.1788   -4.7663    0.6012 C.3       1 <0>         0.0234
      2 O1          0.0609   -4.1300   -0.0212 O.3       1 <0>        -0.3025
      3 C2          0.0413   -2.7709   -0.0133 C.ar      1 <0>         0.1515
      4 C3          1.0768   -2.0645    0.5807 C.ar      1 <0>        -0.2004
      5 C4          1.0575   -0.6831    0.5824 C.ar      1 <0>        -0.0504
      6 C5          0.0021   -0.0041    0.0020 C.ar      1 <0>        -0.1460
      7 C6         -1.0316   -0.7049   -0.5909 C.ar      1 <0>        -0.0497
      8 C7         -1.0148   -2.0873   -0.6001 C.ar      1 <0>        -0.0739
      9 Cl1        -2.3132   -2.9672   -1.3442 Cl        1 <0>        -0.0484
     10 C8         -0.0184    1.5028    0.0103 C.3       1 <0>         0.1729
     11 N1         -0.7041    1.9752    1.2156 N.pl3     1 <0>        -0.6898
     12 C9         -0.8471    3.3348    1.4436 C.ar      1 <0>         0.3867
     13 C10        -1.5126    3.8042    2.6012 C.ar      1 <0>        -0.1016
     14 C11        -2.0514    2.9436    3.5594 C.ar      1 <0>        -0.0254
     15 C12        -2.6902    3.4804    4.6690 C.ar      1 <0>        -0.0041
     16 C13        -2.7950    4.8734    4.8285 C.ar      1 <0>        -0.0419
     17 C14        -2.2664    5.7233    3.9074 C.ar      1 <0>        -0.1081
     18 C15        -1.6204    5.2083    2.7762 C.ar      1 <0>        -0.0158
     19 C16        -1.0644    6.0378    1.7767 C.ar      1 <0>         0.2493
     20 N2         -0.4724    5.4808    0.7396 N.ar      1 <0>        -0.1966
     21 N3         -0.3695    4.2140    0.5817 N.ar      1 <0>        -0.3086
     22 N4         -1.1410    7.4288    1.8866 N.pl3     1 <0>        -0.3985
     23 C17        -0.1908    8.3322    1.4838 C.2       1 <0>        -0.0231
     24 C18        -0.6698    9.5569    1.7732 C.2       1 <0>        -0.0252
     25 N5         -1.8748    9.4116    2.3444 N.2       1 <0>        -0.4722
     26 C19        -2.1685    8.1421    2.4181 C.2       1 <0>         0.1799
     27 C20        -3.2466    2.6083    5.6593 C.1       1 <0>         0.2413
     28 N6         -3.6880    1.9165    6.4448 N.1       1 <0>        -0.3877
     29 H1          2.0971   -4.4573    0.1019 H         1 <0>         0.0603
     30 H2          1.2220   -4.4788    1.6518 H         1 <0>         0.0595
     31 H3          1.0700   -5.8482    0.5247 H         1 <0>         0.1067
     32 H4          1.8995   -2.5941    1.0379 H         1 <0>         0.1414
     33 H5          1.8659   -0.1330    1.0410 H         1 <0>         0.1358
     34 H6         -1.8526   -0.1721   -1.0475 H         1 <0>         0.1435
     35 H7          1.0042    1.8801    0.0026 H         1 <0>         0.0879
     36 H8         -0.5455    1.8639   -0.8728 H         1 <0>         0.0873
     37 H9         -1.0580    1.3365    1.8541 H         1 <0>         0.4131
     38 H10        -1.9718    1.8732    3.4392 H         1 <0>         0.1468
     39 H11        -3.2952    5.2740    5.6978 H         1 <0>         0.1506
     40 H12        -2.3537    6.7912    4.0424 H         1 <0>         0.1582
     41 H13         0.7585    8.1050    1.0216 H         1 <0>         0.1821
     42 H14        -0.1685   10.4942    1.5821 H         1 <0>         0.1787
     43 H15        -3.0758    7.7279    2.8323 H         1 <0>         0.2131
@<TRIPOS>BOND
     1    1    2 1
     2    1   29 1
     3    1   30 1
     4    1   31 1
     5    2    3 1
     6    3    8 ar
     7    3    4 ar
     8    4    5 ar
     9    4   32 1
    10    5    6 ar
    11    5   33 1
    12    6    7 ar
    13    6   10 1
    14    7    8 ar
    15    7   34 1
    16    8    9 1
    17   10   11 1
    18   10   35 1
    19   10   36 1
    20   11   12 1
    21   11   37 1
    22   12   21 ar
    23   12   13 ar
    24   13   18 ar
    25   13   14 ar
    26   14   15 ar
    27   14   38 1
    28   15   16 ar
    29   15   27 1
    30   16   17 ar
    31   16   39 1
    32   17   18 ar
    33   17   40 1
    34   18   19 ar
    35   19   20 ar
    36   19   22 1
    37   20   21 ar
    38   22   26 1
    39   22   23 1
    40   23   24 2
    41   23   41 1
    42   24   25 1
    43   24   42 1
    44   25   26 2
    45   26   43 1
    46   27   28 3
@<TRIPOS>MOLECULE
ZINC04199950
   43    46     0     0     0
SMALL
USER_CHARGES

@<TRIPOS>ATOM
      1 C1          1.1788   -4.7663    0.6012 C.3       1 <0>         0.0234
      2 O1          0.0609   -4.1300   -0.0212 O.3       1 <0>        -0.3025
      3 C2          0.0413   -2.7709   -0.0133 C.ar      1 <0>         0.1515
      4 C3          1.0768   -2.0645    0.5807 C.ar      1 <0>        -0.2004
      5 C4          1.0575   -0.6831    0.5824 C.ar      1 <0>        -0.0504
      6 C5          0.0021   -0.0041    0.0020 C.ar      1 <0>        -0.1460
      7 C6         -1.0316   -0.7049   -0.5909 C.ar      1 <0>        -0.0497
      8 C7         -1.0148   -2.0873   -0.6001 C.ar      1 <0>        -0.0739
      9 Cl1        -2.3132   -2.9672   -1.3442 Cl        1 <0>        -0.0484
     10 C8         -0.0184    1.5028    0.0103 C.3       1 <0>         0.1729
     11 N1         -0.7041    1.9752    1.2156 N.pl3     1 <0>        -0.6898
     12 C9         -0.8471    3.3348    1.4436 C.ar      1 <0>         0.3867
     13 C10        -1.5126    3.8042    2.6012 C.ar      1 <0>        -0.1016
     14 C11        -2.0514    2.9436    3.5594 C.ar      1 <0>        -0.0254
     15 C12        -2.6902    3.4804    4.6690 C.ar      1 <0>        -0.0041
     16 C13        -2.7950    4.8734    4.8285 C.ar      1 <0>        -0.0419
     17 C14        -2.2664    5.7233    3.9074 C.ar      1 <0>        -0.1081
     18 C15        -1.6204    5.2083    2.7762 C.ar      1 <0>        -0.0158
     19 C16        -1.0644    6.0378    1.7767 C.ar      1 <0>         0.2493
     20 N2         -0.4724    5.4808    0.7396 N.ar      1 <0>        -0.1966
     21 N3         -0.3695    4.2140    0.5817 N.ar      1 <0>        -0.3086
     22 N4         -1.1410    7.4288    1.8866 N.pl3     1 <0>        -0.3985
     23 C17        -0.1908    8.3322    1.4838 C.2       1 <0>        -0.0231
     24 C18        -0.6698    9.5569    1.7732 C.2       1 <0>        -0.0252
     25 N5         -1.8748    9.4116    2.3444 N.2       1 <0>        -0.4722
     26 C19        -2.1685    8.1421    2.4181 C.2       1 <0>         0.1799
     27 C20        -3.2466    2.6083    5.6593 C.1       1 <0>         0.2413
     28 N6         -3.6880    1.9165    6.4448 N.1       1 <0>        -0.3877
     29 H1          2.0971   -4.4573    0.1019 H         1 <0>         0.0603
     30 H2          1.2220   -4.4788    1.6518 H         1 <0>         0.0595
     31 H3          1.0700   -5.8482    0.5247 H         1 <0>         0.1067
     32 H4          1.8995   -2.5941    1.0379 H         1 <0>         0.1414
     33 H5          1.8659   -0.1330    1.0410 H         1 <0>         0.1358
     34 H6         -1.8526   -0.1721   -1.0475 H         1 <0>         0.1435
     35 H7          1.0042    1.8801    0.0026 H         1 <0>         0.0879
     36 H8         -0.5455    1.8639   -0.8728 H         1 <0>         0.0873
     37 H9         -1.0580    1.3365    1.8541 H         1 <0>         0.4131
     38 H10        -1.9718    1.8732    3.4392 H         1 <0>         0.1468
     39 H11        -3.2952    5.2740    5.6978 H         1 <0>         0.1506
     40 H12        -2.3537    6.7912    4.0424 H         1 <0>         0.1582
     41 H13         0.7585    8.1050    1.0216 H         1 <0>         0.1821
     42 H14        -0.1685   10.4942    1.5821 H         1 <0>         0.1787
     43 H15        -3.0758    7.7279    2.8323 H         1 <0>         0.2131
@<TRIPOS>BOND
     1    1    2 1
     2    1   29 1
     3    1   30 1
     4    1   31 1
     5    2    3 1
     6    3    8 ar
     7    3    4 ar
     8    4    5 ar
     9    4   32 1
    10    5    6 ar
    11    5   33 1
    12    6    7 ar
    13    6   10 1
    14    7    8 ar
    15    7   34 1
    16    8    9 1
    17   10   11 1
    18   10   35 1
    19   10   36 1
    20   11   12 1
    21   11   37 1
    22   12   21 ar
    23   12   13 ar
    24   13   18 ar
    25   13   14 ar
    26   14   15 ar
    27   14   38 1
    28   15   16 ar
    29   15   27 1
    30   16   17 ar
    31   16   39 1
    32   17   18 ar
    33   17   40 1
    34   18   19 ar
    35   19   20 ar
    36   19   22 1
    37   20   21 ar
    38   22   26 1
    39   22   23 1
    40   23   24 2
    41   23   41 1
    42   24   25 1
    43   24   42 1
    44   25   26 2
    45   26   43 1
    46   27   28 3
@<TRIPOS>MOLECULE
ZINC04199951
   54    57     0     0     0
SMALL
USER_CHARGES

@<TRIPOS>ATOM
      1 C1        -11.7612   -3.4698   -2.2915 C.3       1 <0>         0.0237
      2 O1        -11.2603   -3.2926   -0.9650 O.3       1 <0>        -0.3028
      3 C2        -10.0505   -2.6861   -0.8380 C.ar      1 <0>         0.1504
      4 C3         -9.3602   -2.2697   -1.9667 C.ar      1 <0>        -0.2001
      5 C4         -8.1334   -1.6483   -1.8349 C.ar      1 <0>        -0.0511
      6 C5         -7.5881   -1.4505   -0.5797 C.ar      1 <0>        -0.1439
      7 C6         -8.2733   -1.8642    0.5474 C.ar      1 <0>        -0.0500
      8 C7         -9.5039   -2.4819    0.4215 C.ar      1 <0>        -0.0733
      9 Cl1       -10.3640   -3.0019    1.8369 Cl        1 <0>        -0.0492
     10 C8         -6.2472   -0.7770   -0.4398 C.3       1 <0>         0.1763
     11 N1         -5.1877   -1.7884   -0.4658 N.pl3     1 <0>        -0.6974
     12 C9         -3.8572   -1.4040   -0.3521 C.ar      1 <0>         0.3848
     13 C10        -2.8251   -2.3710   -0.3758 C.ar      1 <0>        -0.1150
     14 C11        -3.0749   -3.7404   -0.5110 C.ar      1 <0>        -0.0311
     15 C12        -2.0273   -4.6140   -0.5252 C.ar      1 <0>        -0.1681
     16 C13        -0.7152   -4.1629   -0.4072 C.ar      1 <0>        -0.0633
     17 C14        -0.4379   -2.8340   -0.2738 C.ar      1 <0>        -0.0698
     18 C15        -1.4891   -1.9117   -0.2556 C.ar      1 <0>         0.0024
     19 C16        -1.2827   -0.5188   -0.1205 C.ar      1 <0>         0.2141
     20 N2         -2.3298    0.2827   -0.1071 N.ar      1 <0>        -0.2286
     21 N3         -3.5363   -0.1317   -0.2207 N.ar      1 <0>        -0.3221
     22 N4          0.0021   -0.0041    0.0020 N.pl3     1 <0>        -0.4740
     23 C17         0.3181    0.8938   -1.1162 C.3       1 <0>         0.0629
     24 C18         1.7836    1.3254   -1.0271 C.3       1 <0>        -0.1484
     25 C19         2.0203    2.0385    0.3071 C.3       1 <0>         0.1022
     26 C20         1.6378    1.0989    1.4540 C.3       1 <0>        -0.1093
     27 C21         0.1765    0.6738    1.2929 C.3       1 <0>         0.0629
     28 O2          3.3998    2.3937    0.4206 O.3       1 <0>        -0.5658
     29 C22        -2.2941   -6.0900   -0.6713 C.3       1 <0>         0.5077
     30 F1         -2.2979   -6.4311   -2.0280 F         1 <0>        -0.1725
     31 F2         -1.2938   -6.8122   -0.0117 F         1 <0>        -0.1716
     32 F3         -3.5381   -6.3968   -0.1097 F         1 <0>        -0.1750
     33 H1        -11.8692   -2.4973   -2.7719 H         1 <0>         0.0598
     34 H2        -11.0648   -4.0825   -2.8640 H         1 <0>         0.0595
     35 H3        -12.7315   -3.9646   -2.2505 H         1 <0>         0.1063
     36 H4         -9.7834   -2.4275   -2.9478 H         1 <0>         0.1412
     37 H5         -7.5978   -1.3200   -2.7135 H         1 <0>         0.1351
     38 H6         -7.8474   -1.7046    1.5270 H         1 <0>         0.1429
     39 H7         -6.2094   -0.2355    0.5055 H         1 <0>         0.0838
     40 H8         -6.1034   -0.0789   -1.2644 H         1 <0>         0.0844
     41 H9         -5.4149   -2.7265   -0.5624 H         1 <0>         0.4110
     42 H10        -4.0880   -4.1029   -0.6038 H         1 <0>         0.1427
     43 H11         0.0954   -4.8764   -0.4214 H         1 <0>         0.1466
     44 H12         0.5842   -2.4970   -0.1835 H         1 <0>         0.1602
     45 H13         0.1495    0.3731   -2.0588 H         1 <0>         0.0786
     46 H14        -0.3233    1.7738   -1.0678 H         1 <0>         0.0536
     47 H15         2.4261    0.4471   -1.0893 H         1 <0>         0.0826
     48 H16         2.0137    2.0042   -1.8483 H         1 <0>         0.0743
     49 H17         1.4074    2.9387    0.3538 H         1 <0>         0.0552
     50 H18         1.7637    1.6158    2.4053 H         1 <0>         0.0795
     51 H19         2.2780    0.2170    1.4308 H         1 <0>         0.0816
     52 H20        -0.4642    1.5548    1.3300 H         1 <0>         0.0545
     53 H21        -0.0946   -0.0067    2.1001 H         1 <0>         0.0824
     54 H22         3.7113    2.9888   -0.2751 H         1 <0>         0.3792
@<TRIPOS>BOND
     1    1    2 1
     2    1   33 1
     3    1   34 1
     4    1   35 1
     5    2    3 1
     6    3    8 ar
     7    3    4 ar
     8    4    5 ar
     9    4   36 1
    10    5    6 ar
    11    5   37 1
    12    6    7 ar
    13    6   10 1
    14    7    8 ar
    15    7   38 1
    16    8    9 1
    17   10   11 1
    18   10   39 1
    19   10   40 1
    20   11   12 1
    21   11   41 1
    22   12   21 ar
    23   12   13 ar
    24   13   18 ar
    25   13   14 ar
    26   14   15 ar
    27   14   42 1
    28   15   16 ar
    29   15   29 1
    30   16   17 ar
    31   16   43 1
    32   17   18 ar
    33   17   44 1
    34   18   19 ar
    35   19   20 ar
    36   19   22 1
    37   20   21 ar
    38   22   27 1
    39   22   23 1
    40   23   24 1
    41   23   45 1
    42   23   46 1
    43   24   25 1
    44   24   47 1
    45   24   48 1
    46   25   26 1
    47   25   28 1
    48   25   49 1
    49   26   27 1
    50   26   50 1
    51   26   51 1
    52   27   52 1
    53   27   53 1
    54   28   54 1
    55   29   30 1
    56   29   31 1
    57   29   32 1
@<TRIPOS>MOLECULE
ZINC04199952
   59    63     0     0     0
SMALL
USER_CHARGES

@<TRIPOS>ATOM
      1 C1          0.2204    0.9639   -0.6493 C.3       1 <0>        -0.1699
      2 C2          0.7789    0.6367    0.7371 C.3       1 <0>         0.1317
      3 N1         -0.0933    1.2131    1.7634 N.pl3     1 <0>        -0.3602
      4 C3          0.0285    2.4617    2.3096 C.ar      1 <0>         0.3040
      5 C4         -1.0165    2.5878    3.2428 C.ar      1 <0>        -0.2084
      6 C5         -1.7385    1.3796    3.2283 C.2       1 <0>         0.0735
      7 N2         -1.1902    0.5788    2.3578 N.2       1 <0>        -0.2295
      8 C6         -1.1255    3.8401    3.9773 C.ar      1 <0>        -0.0022
      9 C7         -0.1733    4.8531    3.6993 C.ar      1 <0>        -0.1087
     10 C8          0.8201    4.6078    2.7410 C.ar      1 <0>         0.2369
     11 N3          0.8807    3.4659    2.1037 N.ar      1 <0>        -0.4810
     12 C9         -0.2827    6.0650    4.4134 C.ar      1 <0>         0.2499
     13 N4         -1.2557    6.1982    5.2975 N.ar      1 <0>        -0.2489
     14 N5         -2.1140    5.2798    5.5455 N.ar      1 <0>        -0.2880
     15 C10        -2.1124    4.1046    4.9412 C.ar      1 <0>         0.3567
     16 N6         -3.0719    3.1465    5.2535 N.pl3     1 <0>        -0.7037
     17 C11        -4.1645    3.4763    6.1721 C.3       1 <0>         0.1758
     18 C12        -5.0587    2.2751    6.3409 C.ar      1 <0>        -0.1430
     19 C13        -6.1388    2.0947    5.4966 C.ar      1 <0>        -0.0521
     20 C14        -6.9576    0.9920    5.6458 C.ar      1 <0>        -0.1999
     21 C15        -6.7021    0.0704    6.6504 C.ar      1 <0>         0.1497
     22 C16        -5.6204    0.2560    7.5004 C.ar      1 <0>        -0.0729
     23 C17        -4.8011    1.3586    7.3433 C.ar      1 <0>        -0.0505
     24 Cl1        -5.2964   -0.8952    8.7587 Cl        1 <0>        -0.0497
     25 O1         -7.5096   -1.0123    6.8027 O.3       1 <0>        -0.3028
     26 C18        -8.6036   -1.1389    5.8920 C.3       1 <0>         0.0237
     27 N7          0.6157    7.0995    4.1909 N.pl3     1 <0>        -0.4741
     28 C19         0.1110    8.0238    3.1674 C.3       1 <0>         0.0617
     29 C20         1.1851    9.0649    2.8441 C.3       1 <0>        -0.1489
     30 C21         1.5450    9.8327    4.1191 C.3       1 <0>         0.1020
     31 C22         2.0217    8.8419    5.1848 C.3       1 <0>        -0.1112
     32 C23         0.9234    7.8073    5.4402 C.3       1 <0>         0.0643
     33 O2          2.5879   10.7674    3.8353 O.3       1 <0>        -0.5653
     34 H1         -0.7810    0.5443   -0.7459 H         1 <0>         0.0642
     35 H2          0.1749    2.0455   -0.7767 H         1 <0>         0.0628
     36 H3          0.8692    0.5350   -1.4129 H         1 <0>         0.0823
     37 H4          0.8243   -0.4449    0.8645 H         1 <0>         0.1001
     38 H5          1.7802    1.0563    0.8337 H         1 <0>         0.1020
     39 H6         -2.6018    1.1537    3.8367 H         1 <0>         0.1880
     40 H7          1.5486    5.3751    2.5243 H         1 <0>         0.1900
     41 H8         -3.0175    2.2602    4.8630 H         1 <0>         0.4064
     42 H9         -3.7520    3.7611    7.1400 H         1 <0>         0.0838
     43 H10        -4.7431    4.3058    5.7655 H         1 <0>         0.0817
     44 H11        -6.3404    2.8147    4.7172 H         1 <0>         0.1351
     45 H12        -7.7986    0.8498    4.9832 H         1 <0>         0.1409
     46 H13        -3.9595    1.5041    8.0043 H         1 <0>         0.1433
     47 H14        -9.2565   -0.2711    5.9856 H         1 <0>         0.0597
     48 H15        -8.2226   -1.1986    4.8725 H         1 <0>         0.0594
     49 H16        -9.1661   -2.0434    6.1234 H         1 <0>         0.1059
     50 H17        -0.1371    7.4656    2.2646 H         1 <0>         0.0817
     51 H18        -0.7814    8.5264    3.5403 H         1 <0>         0.0513
     52 H19         0.8046    9.7601    2.0958 H         1 <0>         0.0758
     53 H20         2.0730    8.5640    2.4582 H         1 <0>         0.0850
     54 H21         0.6673   10.3660    4.4842 H         1 <0>         0.0553
     55 H22         2.2388    9.3778    6.1088 H         1 <0>         0.0802
     56 H23         2.9227    8.3375    4.8356 H         1 <0>         0.0815
     57 H24         0.0271    8.3110    5.8024 H         1 <0>         0.0606
     58 H25         1.2653    7.0919    6.1881 H         1 <0>         0.0851
     59 H26         2.3546   11.4263    3.1671 H         1 <0>         0.3789
@<TRIPOS>BOND
     1    1    2 1
     2    1   34 1
     3    1   35 1
     4    1   36 1
     5    2    3 1
     6    2   37 1
     7    2   38 1
     8    3    7 1
     9    3    4 1
    10    4   11 ar
    11    4    5 ar
    12    5    6 1
    13    5    8 ar
    14    6    7 2
    15    6   39 1
    16    8   15 ar
    17    8    9 ar
    18    9   10 ar
    19    9   12 ar
    20   10   11 ar
    21   10   40 1
    22   12   13 ar
    23   12   27 1
    24   13   14 ar
    25   14   15 ar
    26   15   16 1
    27   16   17 1
    28   16   41 1
    29   17   18 1
    30   17   42 1
    31   17   43 1
    32   18   23 ar
    33   18   19 ar
    34   19   20 ar
    35   19   44 1
    36   20   21 ar
    37   20   45 1
    38   21   22 ar
    39   21   25 1
    40   22   23 ar
    41   22   24 1
    42   23   46 1
    43   25   26 1
    44   26   47 1
    45   26   48 1
    46   26   49 1
    47   27   32 1
    48   27   28 1
    49   28   29 1
    50   28   50 1
    51   28   51 1
    52   29   30 1
    53   29   52 1
    54   29   53 1
    55   30   31 1
    56   30   33 1
    57   30   54 1
    58   31   32 1
    59   31   55 1
    60   31   56 1
    61   32   57 1
    62   32   58 1
    63   33   59 1
@<TRIPOS>MOLECULE
ZINC04199953
   50    54     0     0     0
SMALL
USER_CHARGES

@<TRIPOS>ATOM
      1 C1         -0.6551    4.5665    1.7723 C.3       1 <0>         0.0806
      2 N1         -1.4634    3.4213    2.1981 N.pl3     1 <0>        -0.3193
      3 C2         -1.7635    2.3513    1.4440 C.2       1 <0>         0.2349
      4 C3         -2.5426    1.5148    2.2095 C.2       1 <0>        -0.3291
      5 C4         -2.6970    2.1244    3.4830 C.2       1 <0>         0.3223
      6 N2         -2.0517    3.2610    3.4589 N.2       1 <0>        -0.2613
      7 N3         -3.4481    1.4694    4.4597 N.pl3     1 <0>        -0.4804
      8 C5         -3.7646    1.8794    5.8418 C.3       1 <0>         0.0965
      9 C6         -4.6112    0.7122    6.3609 C.3       1 <0>         0.1323
     10 C7         -6.0035    1.1969    6.7888 C.3       1 <0>        -0.1306
     11 C8         -6.3459    0.3166    8.0185 C.3       1 <0>        -0.1286
     12 C9         -4.9792    0.1798    8.7359 C.3       1 <0>        -0.1273
     13 C10        -3.9567    0.0634    7.5840 C.3       1 <0>        -0.1313
     14 C11        -4.0293    0.2526    4.2120 C.cat     1 <0>         0.7193
     15 N4         -3.8851   -0.3569    2.9741 N.am      1 <0>        -0.5282
     16 C12        -3.1767    0.2089    1.9812 C.2       1 <0>         0.6052
     17 O1         -3.0670   -0.3498    0.9065 O.2       1 <0>        -0.4522
     18 C13        -4.5236   -1.6548    2.7419 C.3       1 <0>         0.0478
     19 C14        -1.3319    2.1138    0.0199 C.3       1 <0>        -0.0334
     20 C15        -0.0167    1.3781    0.0096 C.ar      1 <0>        -0.0992
     21 C16         1.1709    2.0855    0.0021 C.ar      1 <0>        -0.1148
     22 C17         2.3773    1.4107   -0.0141 C.ar      1 <0>        -0.1152
     23 C18         2.3960    0.0285   -0.0217 C.ar      1 <0>        -0.1078
     24 C19         1.2084   -0.6789   -0.0136 C.ar      1 <0>        -0.1169
     25 C20         0.0021   -0.0041    0.0020 C.ar      1 <0>        -0.1026
     26 H1         -1.3026    5.3245    1.3317 H         1 <0>         0.1011
     27 H2         -0.1381    4.9871    2.6349 H         1 <0>         0.1114
     28 H3          0.0769    4.2400    1.0337 H         1 <0>         0.1070
     29 H4         -2.8535    1.9867    6.4304 H         1 <0>         0.1327
     30 H5         -4.3371    2.8070    5.8473 H         1 <0>         0.1331
     31 H6         -5.9720    2.2497    7.0694 H         1 <0>         0.1059
     32 H7         -6.7268    1.0349    5.9896 H         1 <0>         0.0898
     33 H8         -6.7159   -0.6591    7.7037 H         1 <0>         0.0757
     34 H9         -7.0708    0.8164    8.6611 H         1 <0>         0.0888
     35 H10        -4.9610   -0.7176    9.3543 H         1 <0>         0.0847
     36 H11        -4.7735    1.0630    9.3408 H         1 <0>         0.0829
     37 H12        -3.7398   -0.9852    7.3805 H         1 <0>         0.0904
     38 H13        -3.0389    0.5919    7.8420 H         1 <0>         0.0972
     39 H14        -5.5293   -1.5002    2.3509 H         1 <0>         0.1017
     40 H15        -3.9371   -2.2245    2.0210 H         1 <0>         0.1246
     41 H16        -4.5795   -2.2055    3.6809 H         1 <0>         0.0927
     42 H17        -1.2169    3.0707   -0.4893 H         1 <0>         0.1065
     43 H18        -2.0859    1.5173   -0.4937 H         1 <0>         0.1233
     44 H19         1.1563    3.1654    0.0081 H         1 <0>         0.1218
     45 H20         3.3051    1.9634   -0.0207 H         1 <0>         0.1286
     46 H21         3.3385   -0.4987   -0.0343 H         1 <0>         0.1277
     47 H22         1.2231   -1.7587   -0.0199 H         1 <0>         0.1267
     48 H23        -0.9258   -0.5567    0.0079 H         1 <0>         0.1317
     49 N5         -4.6944   -0.2209    5.2397 N.pl3     1 <0>        -0.6201
     50 H24        -5.1988   -1.1151    5.2537 H         1 <0>         0.4736
@<TRIPOS>BOND
     1    1    2 1
     2    1   26 1
     3    1   27 1
     4    1   28 1
     5    2    6 1
     6    2    3 1
     7    3    4 2
     8    3   19 1
     9    4   16 1
    10    4    5 1
    11    5    6 2
    12    5    7 1
    13    7   14 1
    14    7    8 1
    15    8    9 1
    16    8   29 1
    17    8   30 1
    18    9   13 1
    19    9   10 1
    20    9   49 1
    21   10   11 1
    22   10   31 1
    23   10   32 1
    24   11   12 1
    25   11   33 1
    26   11   34 1
    27   12   13 1
    28   12   35 1
    29   12   36 1
    30   13   37 1
    31   13   38 1
    32   14   15 1
    33   14   49 2
    34   15   16 am
    35   15   18 1
    36   16   17 2
    37   18   39 1
    38   18   40 1
    39   18   41 1
    40   19   20 1
    41   19   42 1
    42   19   43 1
    43   20   25 ar
    44   20   21 ar
    45   21   22 ar
    46   21   44 1
    47   22   23 ar
    48   22   45 1
    49   23   24 ar
    50   23   46 1
    51   24   25 ar
    52   24   47 1
    53   25   48 1
    54   49   50 1
@<TRIPOS>MOLECULE
ZINC04199954
   56    61     0     0     0
SMALL
USER_CHARGES

@<TRIPOS>ATOM
      1 C1          1.3822   -8.3722   -0.0579 C.3       1 <0>         0.0420
      2 N1          0.6822   -7.0854   -0.0418 N.am      1 <0>        -0.5177
      3 C2          1.3963   -5.9464   -0.0437 C.2       1 <0>         0.6001
      4 O1          2.6137   -5.9899   -0.0575 O.2       1 <0>        -0.4615
      5 C3          0.7349   -4.7018   -0.0303 C.2       1 <0>        -0.1082
      6 C4         -0.6552   -4.6687   -0.0163 C.2       1 <0>         0.3157
      7 N2         -1.0297   -3.3906   -0.0063 N.2       1 <0>        -0.4524
      8 C5          0.0374   -2.6098   -0.0123 C.2       1 <0>         0.4383
      9 N3          1.1604   -3.3855   -0.0331 N.pl3     1 <0>        -0.3827
     10 C6          2.5477   -2.9152   -0.0512 C.3       1 <0>         0.1395
     11 C7          3.0447   -2.7621    1.3633 C.ar      1 <0>        -0.1344
     12 C8          2.8935   -1.5564    2.0223 C.ar      1 <0>        -0.0925
     13 C9          3.3454   -1.4173    3.3213 C.ar      1 <0>        -0.1185
     14 C10         3.9567   -2.4811    3.9580 C.ar      1 <0>        -0.0960
     15 C11         4.1127   -3.6852    3.2971 C.ar      1 <0>        -0.1217
     16 C12         3.6568   -3.8256    1.9997 C.ar      1 <0>        -0.0924
     17 C13         0.0180   -1.1779   -0.0044 C.1       1 <0>        -0.1578
     18 C14         0.0021   -0.0041    0.0020 C.1       1 <0>         0.0301
     19 C15        -0.0173    1.4278    0.0099 C.ar      1 <0>        -0.0278
     20 C16        -1.2356    2.1139    0.0194 C.ar      1 <0>        -0.0776
     21 C17        -1.2460    3.4928    0.0322 C.ar      1 <0>        -0.1193
     22 C18        -0.0549    4.1975    0.0242 C.ar      1 <0>        -0.0883
     23 C19         1.1549    3.5255    0.0095 C.ar      1 <0>        -0.1194
     24 C20         1.1818    2.1468    0.0023 C.ar      1 <0>        -0.0781
     25 N4         -1.3631   -5.8632   -0.0141 N.pl3     1 <0>        -0.4654
     26 C21        -0.7043   -7.0658   -0.0254 C.cat     1 <0>         0.7011
     27 C22        -2.9093   -7.6544   -0.0024 C.3       1 <0>         0.1098
     28 H1         -3.4450   -8.0333    0.8680 H         1 <0>         0.1524
     29 C23        -2.8141   -6.1107    0.0012 C.3       1 <0>         0.1156
     30 H2         -3.3084   -5.6661    0.8650 H         1 <0>         0.1526
     31 C24        -3.4324   -5.6542   -1.3612 C.3       1 <0>        -0.1329
     32 C25        -3.3035   -6.8899   -2.2854 C.3       1 <0>        -0.1335
     33 C26        -3.5910   -8.0682   -1.3224 C.3       1 <0>        -0.1358
     34 H3          2.4585   -8.2001   -0.0698 H         1 <0>         0.1332
     35 H4          1.1153   -8.9421    0.8321 H         1 <0>         0.1000
     36 H5          1.0938   -8.9317   -0.9477 H         1 <0>         0.0999
     37 H6          3.1697   -3.6384   -0.5786 H         1 <0>         0.1242
     38 H7          2.5985   -1.9527   -0.5603 H         1 <0>         0.1198
     39 H8          2.4192   -0.7241    1.5235 H         1 <0>         0.1235
     40 H9          3.2233   -0.4767    3.8377 H         1 <0>         0.1309
     41 H10         4.3122   -2.3716    4.9719 H         1 <0>         0.1303
     42 H11         4.5903   -4.5163    3.7946 H         1 <0>         0.1288
     43 H12         3.7787   -4.7663    1.4834 H         1 <0>         0.1315
     44 H13        -2.1659    1.5654    0.0208 H         1 <0>         0.1314
     45 H14        -2.1862    4.0242    0.0437 H         1 <0>         0.1354
     46 H15        -0.0696    5.2774    0.0297 H         1 <0>         0.1333
     47 H16         2.0803    4.0823    0.0040 H         1 <0>         0.1352
     48 H17         2.1266    1.6238   -0.0095 H         1 <0>         0.1309
     49 H18        -2.8744   -4.8122   -1.7709 H         1 <0>         0.0938
     50 H19        -4.4804   -5.3865   -1.2268 H         1 <0>         0.1106
     51 H20        -2.2960   -6.9627   -2.6949 H         1 <0>         0.0676
     52 H21        -4.0427   -6.8560   -3.0857 H         1 <0>         0.0989
     53 H22        -3.1524   -8.9895   -1.7056 H         1 <0>         0.0959
     54 H23        -4.6645   -8.1878   -1.1760 H         1 <0>         0.1125
     55 N5         -1.5079   -8.0998   -0.0181 N.pl3     1 <0>        -0.6253
     56 H24        -1.2033   -9.0804   -0.0228 H         1 <0>         0.4748
@<TRIPOS>BOND
     1    1    2 1
     2    1   34 1
     3    1   35 1
     4    1   36 1
     5    2   26 1
     6    2    3 am
     7    3    4 2
     8    3    5 1
     9    5    9 1
    10    5    6 2
    11    6    7 1
    12    6   25 1
    13    7    8 2
    14    8    9 1
    15    8   17 1
    16    9   10 1
    17   10   11 1
    18   10   37 1
    19   10   38 1
    20   11   16 ar
    21   11   12 ar
    22   12   13 ar
    23   12   39 1
    24   13   14 ar
    25   13   40 1
    26   14   15 ar
    27   14   41 1
    28   15   16 ar
    29   15   42 1
    30   16   43 1
    31   17   18 3
    32   18   19 1
    33   19   24 ar
    34   19   20 ar
    35   20   21 ar
    36   20   44 1
    37   21   22 ar
    38   21   45 1
    39   22   23 ar
    40   22   46 1
    41   23   24 ar
    42   23   47 1
    43   24   48 1
    44   25   29 1
    45   25   26 1
    46   26   55 2
    47   27   28 1
    48   27   33 1
    49   27   29 1
    50   27   55 1
    51   29   30 1
    52   29   31 1
    53   31   32 1
    54   31   49 1
    55   31   50 1
    56   32   33 1
    57   32   51 1
    58   32   52 1
    59   33   53 1
    60   33   54 1
    61   55   56 1
@<TRIPOS>MOLECULE
ZINC04199954
   56    61     0     0     0
SMALL
USER_CHARGES

@<TRIPOS>ATOM
      1 C1          1.3822   -8.3722   -0.0579 C.3       1 <0>         0.0420
      2 N1          0.6822   -7.0854   -0.0418 N.am      1 <0>        -0.5177
      3 C2          1.3963   -5.9464   -0.0437 C.2       1 <0>         0.6001
      4 O1          2.6137   -5.9899   -0.0575 O.2       1 <0>        -0.4615
      5 C3          0.7349   -4.7018   -0.0303 C.2       1 <0>        -0.1082
      6 C4         -0.6552   -4.6687   -0.0163 C.2       1 <0>         0.3157
      7 N2         -1.0297   -3.3906   -0.0063 N.2       1 <0>        -0.4524
      8 C5          0.0374   -2.6098   -0.0123 C.2       1 <0>         0.4383
      9 N3          1.1604   -3.3855   -0.0331 N.pl3     1 <0>        -0.3827
     10 C6          2.5477   -2.9152   -0.0512 C.3       1 <0>         0.1395
     11 C7          3.0447   -2.7621    1.3633 C.ar      1 <0>        -0.1344
     12 C8          2.8935   -1.5564    2.0223 C.ar      1 <0>        -0.0925
     13 C9          3.3454   -1.4173    3.3213 C.ar      1 <0>        -0.1185
     14 C10         3.9567   -2.4811    3.9580 C.ar      1 <0>        -0.0960
     15 C11         4.1127   -3.6852    3.2971 C.ar      1 <0>        -0.1217
     16 C12         3.6568   -3.8256    1.9997 C.ar      1 <0>        -0.0924
     17 C13         0.0180   -1.1779   -0.0044 C.1       1 <0>        -0.1578
     18 C14         0.0021   -0.0041    0.0020 C.1       1 <0>         0.0301
     19 C15        -0.0173    1.4278    0.0099 C.ar      1 <0>        -0.0278
     20 C16        -1.2356    2.1139    0.0194 C.ar      1 <0>        -0.0776
     21 C17        -1.2460    3.4928    0.0322 C.ar      1 <0>        -0.1193
     22 C18        -0.0549    4.1975    0.0242 C.ar      1 <0>        -0.0883
     23 C19         1.1549    3.5255    0.0095 C.ar      1 <0>        -0.1194
     24 C20         1.1818    2.1468    0.0023 C.ar      1 <0>        -0.0781
     25 N4         -1.3631   -5.8632   -0.0141 N.pl3     1 <0>        -0.4654
     26 C21        -0.7043   -7.0658   -0.0254 C.cat     1 <0>         0.7011
     27 C22        -2.9093   -7.6544   -0.0024 C.3       1 <0>         0.1098
     28 H1         -3.4450   -8.0333    0.8680 H         1 <0>         0.1524
     29 C23        -2.8141   -6.1107    0.0012 C.3       1 <0>         0.1156
     30 H2         -3.3084   -5.6661    0.8650 H         1 <0>         0.1526
     31 C24        -3.4324   -5.6542   -1.3612 C.3       1 <0>        -0.1329
     32 C25        -3.3035   -6.8899   -2.2854 C.3       1 <0>        -0.1335
     33 C26        -3.5910   -8.0682   -1.3224 C.3       1 <0>        -0.1358
     34 H3          2.4585   -8.2001   -0.0698 H         1 <0>         0.1332
     35 H4          1.1153   -8.9421    0.8321 H         1 <0>         0.1000
     36 H5          1.0938   -8.9317   -0.9477 H         1 <0>         0.0999
     37 H6          3.1697   -3.6384   -0.5786 H         1 <0>         0.1242
     38 H7          2.5985   -1.9527   -0.5603 H         1 <0>         0.1198
     39 H8          2.4192   -0.7241    1.5235 H         1 <0>         0.1235
     40 H9          3.2233   -0.4767    3.8377 H         1 <0>         0.1309
     41 H10         4.3122   -2.3716    4.9719 H         1 <0>         0.1303
     42 H11         4.5903   -4.5163    3.7946 H         1 <0>         0.1288
     43 H12         3.7787   -4.7663    1.4834 H         1 <0>         0.1315
     44 H13        -2.1659    1.5654    0.0208 H         1 <0>         0.1314
     45 H14        -2.1862    4.0242    0.0437 H         1 <0>         0.1354
     46 H15        -0.0696    5.2774    0.0297 H         1 <0>         0.1333
     47 H16         2.0803    4.0823    0.0040 H         1 <0>         0.1352
     48 H17         2.1266    1.6238   -0.0095 H         1 <0>         0.1309
     49 H18        -2.8744   -4.8122   -1.7709 H         1 <0>         0.0938
     50 H19        -4.4804   -5.3865   -1.2268 H         1 <0>         0.1106
     51 H20        -2.2960   -6.9627   -2.6949 H         1 <0>         0.0676
     52 H21        -4.0427   -6.8560   -3.0857 H         1 <0>         0.0989
     53 H22        -3.1524   -8.9895   -1.7056 H         1 <0>         0.0959
     54 H23        -4.6645   -8.1878   -1.1760 H         1 <0>         0.1125
     55 N5         -1.5079   -8.0998   -0.0181 N.pl3     1 <0>        -0.6253
     56 H24        -1.2033   -9.0804   -0.0228 H         1 <0>         0.4748
@<TRIPOS>BOND
     1    1    2 1
     2    1   34 1
     3    1   35 1
     4    1   36 1
     5    2   26 1
     6    2    3 am
     7    3    4 2
     8    3    5 1
     9    5    9 1
    10    5    6 2
    11    6    7 1
    12    6   25 1
    13    7    8 2
    14    8    9 1
    15    8   17 1
    16    9   10 1
    17   10   11 1
    18   10   37 1
    19   10   38 1
    20   11   16 ar
    21   11   12 ar
    22   12   13 ar
    23   12   39 1
    24   13   14 ar
    25   13   40 1
    26   14   15 ar
    27   14   41 1
    28   15   16 ar
    29   15   42 1
    30   16   43 1
    31   17   18 3
    32   18   19 1
    33   19   24 ar
    34   19   20 ar
    35   20   21 ar
    36   20   44 1
    37   21   22 ar
    38   21   45 1
    39   22   23 ar
    40   22   46 1
    41   23   24 ar
    42   23   47 1
    43   24   48 1
    44   25   29 1
    45   25   26 1
    46   26   55 2
    47   27   28 1
    48   27   33 1
    49   27   29 1
    50   27   55 1
    51   29   30 1
    52   29   31 1
    53   31   32 1
    54   31   49 1
    55   31   50 1
    56   32   33 1
    57   32   51 1
    58   32   52 1
    59   33   53 1
    60   33   54 1
    61   55   56 1
@<TRIPOS>MOLECULE
ZINC04199955
   46    49     0     0     0
SMALL
USER_CHARGES

@<TRIPOS>ATOM
      1 C1          8.2907   -3.9581   -2.9452 C.3       1 <0>        -0.1506
      2 C2          7.2360   -3.5460   -3.9741 C.3       1 <0>        -0.0967
      3 C3          6.2400   -4.6908   -4.1702 C.3       1 <0>        -0.1542
      4 C4          6.4941   -2.3045   -3.4748 C.3       1 <0>        -0.1079
      5 C5          5.5270   -1.8189   -4.5563 C.3       1 <0>        -0.0539
      6 C6          4.7963   -0.5961   -4.0645 C.2       1 <0>         0.3300
      7 N1          4.7531    0.5900   -4.7015 N.pl3     1 <0>        -0.5097
      8 H1          5.1928    0.8149   -5.5711 H         1 <0>         0.4549
      9 C7          3.9857    1.4369   -3.9248 C.2       1 <0>        -0.1211
     10 C8          3.5888    0.6985   -2.8199 C.2       1 <0>         0.3178
     11 N2          4.1074   -0.5259   -2.9542 N.2       1 <0>        -0.4718
     12 N3          2.7963    1.2959   -1.8503 N.pl3     1 <0>        -0.4682
     13 C9          2.2423    0.7483   -0.6010 C.3       1 <0>         0.1188
     14 H2          3.0178    0.3687    0.0643 H         1 <0>         0.1508
     15 C10         1.1884   -0.3243   -0.9403 C.3       1 <0>        -0.1351
     16 C11         0.0021   -0.0041    0.0020 C.3       1 <0>        -0.1218
     17 C12        -0.0189    1.5441    0.0105 C.3       1 <0>        -0.1401
     18 C13         1.4697    1.9464   -0.0015 C.3       1 <0>         0.1105
     19 H3          1.8284    2.2076    0.9941 H         1 <0>         0.1550
     20 C14         2.4101    2.6058   -1.9740 C.cat     1 <0>         0.7003
     21 N4          2.8113    3.3345   -3.0838 N.am      1 <0>        -0.5182
     22 C15         3.5760    2.7818   -4.0419 C.2       1 <0>         0.5968
     23 O1          3.9138    3.4408   -5.0089 O.2       1 <0>        -0.4638
     24 C16         2.3942    4.7327   -3.2146 C.3       1 <0>         0.0416
     25 H4          7.8040   -4.1829   -1.9961 H         1 <0>         0.0568
     26 H5          8.8192   -4.8426   -3.3010 H         1 <0>         0.0604
     27 H6          9.0002   -3.1426   -2.8056 H         1 <0>         0.0551
     28 H7          7.7226   -3.3213   -4.9232 H         1 <0>         0.0739
     29 H8          5.7534   -4.9156   -3.2211 H         1 <0>         0.0582
     30 H9          5.4887   -4.3972   -4.9032 H         1 <0>         0.0552
     31 H10         6.7685   -5.5753   -4.5259 H         1 <0>         0.0598
     32 H11         7.2136   -1.5170   -3.2506 H         1 <0>         0.0673
     33 H12         5.9352   -2.5536   -2.5728 H         1 <0>         0.0814
     34 H13         4.8075   -2.6064   -4.7806 H         1 <0>         0.1162
     35 H14         6.0860   -1.5699   -5.4584 H         1 <0>         0.0996
     36 H15         1.5794   -1.3211   -0.7360 H         1 <0>         0.1046
     37 H16         0.8803   -0.2427   -1.9826 H         1 <0>         0.0844
     38 H17         0.1878   -0.3934    1.0030 H         1 <0>         0.0919
     39 H18        -0.9309   -0.4009   -0.3983 H         1 <0>         0.0955
     40 H19        -0.5232    1.9232   -0.8783 H         1 <0>         0.0883
     41 H20        -0.5061    1.9136    0.9129 H         1 <0>         0.1048
     42 H21         2.7966    5.1469   -4.1390 H         1 <0>         0.1327
     43 H22         1.3057    4.7866   -3.2359 H         1 <0>         0.1001
     44 H23         2.7698    5.3048   -2.3663 H         1 <0>         0.1005
     45 N5          1.6732    3.0280   -0.9772 N.pl3     1 <0>        -0.6257
     46 H24         1.2923    3.9774   -0.8893 H         1 <0>         0.4755
@<TRIPOS>BOND
     1    1    2 1
     2    1   25 1
     3    1   26 1
     4    1   27 1
     5    2    3 1
     6    2    4 1
     7    2   28 1
     8    3   29 1
     9    3   30 1
    10    3   31 1
    11    4    5 1
    12    4   32 1
    13    4   33 1
    14    5    6 1
    15    5   34 1
    16    5   35 1
    17    6   11 2
    18    6    7 1
    19    7    8 1
    20    7    9 1
    21    9   22 1
    22    9   10 2
    23   10   11 1
    24   10   12 1
    25   12   20 1
    26   12   13 1
    27   13   14 1
    28   13   18 1
    29   13   15 1
    30   15   16 1
    31   15   36 1
    32   15   37 1
    33   16   17 1
    34   16   38 1
    35   16   39 1
    36   17   18 1
    37   17   40 1
    38   17   41 1
    39   18   19 1
    40   18   45 1
    41   20   21 1
    42   20   45 2
    43   21   22 am
    44   21   24 1
    45   22   23 2
    46   24   42 1
    47   24   43 1
    48   24   44 1
    49   45   46 1
@<TRIPOS>MOLECULE
ZINC04199955
   46    49     0     0     0
SMALL
USER_CHARGES

@<TRIPOS>ATOM
      1 C1          8.2907   -3.9581   -2.9452 C.3       1 <0>        -0.1506
      2 C2          7.2360   -3.5460   -3.9741 C.3       1 <0>        -0.0967
      3 C3          6.2400   -4.6908   -4.1702 C.3       1 <0>        -0.1542
      4 C4          6.4941   -2.3045   -3.4748 C.3       1 <0>        -0.1079
      5 C5          5.5270   -1.8189   -4.5563 C.3       1 <0>        -0.0539
      6 C6          4.7963   -0.5961   -4.0645 C.2       1 <0>         0.3300
      7 N1          4.7531    0.5900   -4.7015 N.pl3     1 <0>        -0.5097
      8 H1          5.1928    0.8149   -5.5711 H         1 <0>         0.4549
      9 C7          3.9857    1.4369   -3.9248 C.2       1 <0>        -0.1211
     10 C8          3.5888    0.6985   -2.8199 C.2       1 <0>         0.3178
     11 N2          4.1074   -0.5259   -2.9542 N.2       1 <0>        -0.4718
     12 N3          2.7963    1.2959   -1.8503 N.pl3     1 <0>        -0.4682
     13 C9          2.2423    0.7483   -0.6010 C.3       1 <0>         0.1188
     14 H2          3.0178    0.3687    0.0643 H         1 <0>         0.1508
     15 C10         1.1884   -0.3243   -0.9403 C.3       1 <0>        -0.1351
     16 C11         0.0021   -0.0041    0.0020 C.3       1 <0>        -0.1218
     17 C12        -0.0189    1.5441    0.0105 C.3       1 <0>        -0.1401
     18 C13         1.4697    1.9464   -0.0015 C.3       1 <0>         0.1105
     19 H3          1.8284    2.2076    0.9941 H         1 <0>         0.1550
     20 C14         2.4101    2.6058   -1.9740 C.cat     1 <0>         0.7003
     21 N4          2.8113    3.3345   -3.0838 N.am      1 <0>        -0.5182
     22 C15         3.5760    2.7818   -4.0419 C.2       1 <0>         0.5968
     23 O1          3.9138    3.4408   -5.0089 O.2       1 <0>        -0.4638
     24 C16         2.3942    4.7327   -3.2146 C.3       1 <0>         0.0416
     25 H4          7.8040   -4.1829   -1.9961 H         1 <0>         0.0568
     26 H5          8.8192   -4.8426   -3.3010 H         1 <0>         0.0604
     27 H6          9.0002   -3.1426   -2.8056 H         1 <0>         0.0551
     28 H7          7.7226   -3.3213   -4.9232 H         1 <0>         0.0739
     29 H8          5.7534   -4.9156   -3.2211 H         1 <0>         0.0582
     30 H9          5.4887   -4.3972   -4.9032 H         1 <0>         0.0552
     31 H10         6.7685   -5.5753   -4.5259 H         1 <0>         0.0598
     32 H11         7.2136   -1.5170   -3.2506 H         1 <0>         0.0673
     33 H12         5.9352   -2.5536   -2.5728 H         1 <0>         0.0814
     34 H13         4.8075   -2.6064   -4.7806 H         1 <0>         0.1162
     35 H14         6.0860   -1.5699   -5.4584 H         1 <0>         0.0996
     36 H15         1.5794   -1.3211   -0.7360 H         1 <0>         0.1046
     37 H16         0.8803   -0.2427   -1.9826 H         1 <0>         0.0844
     38 H17         0.1878   -0.3934    1.0030 H         1 <0>         0.0919
     39 H18        -0.9309   -0.4009   -0.3983 H         1 <0>         0.0955
     40 H19        -0.5232    1.9232   -0.8783 H         1 <0>         0.0883
     41 H20        -0.5061    1.9136    0.9129 H         1 <0>         0.1048
     42 H21         2.7966    5.1469   -4.1390 H         1 <0>         0.1327
     43 H22         1.3057    4.7866   -3.2359 H         1 <0>         0.1001
     44 H23         2.7698    5.3048   -2.3663 H         1 <0>         0.1005
     45 N5          1.6732    3.0280   -0.9772 N.pl3     1 <0>        -0.6257
     46 H24         1.2923    3.9774   -0.8893 H         1 <0>         0.4755
@<TRIPOS>BOND
     1    1    2 1
     2    1   25 1
     3    1   26 1
     4    1   27 1
     5    2    3 1
     6    2    4 1
     7    2   28 1
     8    3   29 1
     9    3   30 1
    10    3   31 1
    11    4    5 1
    12    4   32 1
    13    4   33 1
    14    5    6 1
    15    5   34 1
    16    5   35 1
    17    6   11 2
    18    6    7 1
    19    7    8 1
    20    7    9 1
    21    9   22 1
    22    9   10 2
    23   10   11 1
    24   10   12 1
    25   12   20 1
    26   12   13 1
    27   13   14 1
    28   13   18 1
    29   13   15 1
    30   15   16 1
    31   15   36 1
    32   15   37 1
    33   16   17 1
    34   16   38 1
    35   16   39 1
    36   17   18 1
    37   17   40 1
    38   17   41 1
    39   18   19 1
    40   18   45 1
    41   20   21 1
    42   20   45 2
    43   21   22 am
    44   21   24 1
    45   22   23 2
    46   24   42 1
    47   24   43 1
    48   24   44 1
    49   45   46 1
@<TRIPOS>MOLECULE
ZINC04642455
   33    35     0     0     0
SMALL
USER_CHARGES

@<TRIPOS>ATOM
      1 C1          7.2719    1.4056   -0.0633 C.3       1 <0>        -0.1505
      2 C2          5.9865    2.2353   -0.0455 C.3       1 <0>        -0.1200
      3 C3          4.7758    1.2998   -0.0385 C.3       1 <0>         0.0499
      4 O1          3.5752    2.0747   -0.0219 O.3       1 <0>        -0.2639
      5 C4          2.4019    1.3928   -0.0137 C.ar      1 <0>         0.2025
      6 C5          2.4022    0.0064   -0.0216 C.ar      1 <0>        -0.2194
      7 C6          1.2074   -0.6864   -0.0135 C.ar      1 <0>        -0.0409
      8 C7          0.0021   -0.0041    0.0023 C.ar      1 <0>        -0.1611
      9 C8         -0.0166    1.3741    0.0099 C.ar      1 <0>        -0.0469
     10 C9          1.1846    2.0869    0.0017 C.ar      1 <0>        -0.1205
     11 C10         1.1719    3.5623    0.0092 C.2       1 <0>         0.4842
     12 N1         -0.0319    4.2084    0.0187 N.am      1 <0>        -0.6529
     13 H1         -0.8809    3.6800    0.0172 H         1 <0>         0.4318
     14 C11        -0.0794    5.5603    0.0301 C.2       1 <0>         0.6034
     15 O2         -1.1437    6.1532    0.0423 O.2       1 <0>        -0.4890
     16 C12         1.1922    6.2870    0.0218 C.2       1 <0>        -0.1349
     17 C13         2.3777    5.5386    0.0070 C.2       1 <0>         0.2770
     18 N2          2.3174    4.2028    0.0010 N.2       1 <0>        -0.4698
     19 N3          3.3962    6.4459    0.0018 N.2       1 <0>        -0.2608
     20 H2          3.2961    8.5867    0.0158 H         1 <0>         0.4877
     21 N4          2.8025    7.7170    0.0148 N.pl3     1 <0>        -0.2544
     22 N5          1.5215    7.5866    0.0253 N.2       1 <0>        -0.1505
     23 H3          8.1344    2.0721   -0.0683 H         1 <0>         0.0647
     24 H4          7.3076    0.7718    0.8227 H         1 <0>         0.0567
     25 H5          7.2895    0.7820   -0.9571 H         1 <0>         0.0567
     26 H6          5.9508    2.8691   -0.9315 H         1 <0>         0.0753
     27 H7          5.9689    2.8589    0.8483 H         1 <0>         0.0753
     28 H8          4.8115    0.6660    0.8476 H         1 <0>         0.0637
     29 H9          4.7933    0.6762   -0.9323 H         1 <0>         0.0637
     30 H10         3.3380   -0.5326   -0.0339 H         1 <0>         0.1389
     31 H11         1.2129   -1.7663   -0.0197 H         1 <0>         0.1342
     32 H12        -0.9272   -0.5544    0.0083 H         1 <0>         0.1363
     33 H13        -0.9587    1.9021    0.0176 H         1 <0>         0.1335
@<TRIPOS>BOND
     1    1    2 1
     2    1   23 1
     3    1   24 1
     4    1   25 1
     5    2    3 1
     6    2   26 1
     7    2   27 1
     8    3    4 1
     9    3   28 1
    10    3   29 1
    11    4    5 1
    12    5   10 ar
    13    5    6 ar
    14    6    7 ar
    15    6   30 1
    16    7    8 ar
    17    7   31 1
    18    8    9 ar
    19    8   32 1
    20    9   10 ar
    21    9   33 1
    22   10   11 1
    23   11   18 2
    24   11   12 1
    25   12   13 1
    26   12   14 am
    27   14   15 2
    28   14   16 1
    29   16   17 1
    30   16   22 2
    31   17   18 1
    32   17   19 2
    33   19   21 1
    34   20   21 1
    35   21   22 1
@<TRIPOS>MOLECULE
ZINC04642455
   33    35     0     0     0
SMALL
USER_CHARGES

@<TRIPOS>ATOM
      1 C1          7.2719    1.4056   -0.0633 C.3       1 <0>        -0.1505
      2 C2          5.9865    2.2353   -0.0455 C.3       1 <0>        -0.1200
      3 C3          4.7758    1.2998   -0.0385 C.3       1 <0>         0.0499
      4 O1          3.5752    2.0747   -0.0219 O.3       1 <0>        -0.2639
      5 C4          2.4019    1.3928   -0.0137 C.ar      1 <0>         0.2025
      6 C5          2.4022    0.0064   -0.0216 C.ar      1 <0>        -0.2194
      7 C6          1.2074   -0.6864   -0.0135 C.ar      1 <0>        -0.0409
      8 C7          0.0021   -0.0041    0.0023 C.ar      1 <0>        -0.1611
      9 C8         -0.0166    1.3741    0.0099 C.ar      1 <0>        -0.0469
     10 C9          1.1846    2.0869    0.0017 C.ar      1 <0>        -0.1205
     11 C10         1.1719    3.5623    0.0092 C.2       1 <0>         0.4842
     12 N1         -0.0319    4.2084    0.0187 N.am      1 <0>        -0.6529
     13 H1         -0.8809    3.6800    0.0172 H         1 <0>         0.4318
     14 C11        -0.0794    5.5603    0.0301 C.2       1 <0>         0.6034
     15 O2         -1.1437    6.1532    0.0423 O.2       1 <0>        -0.4890
     16 C12         1.1922    6.2870    0.0218 C.2       1 <0>        -0.1349
     17 C13         2.3777    5.5386    0.0070 C.2       1 <0>         0.2770
     18 N2          2.3174    4.2028    0.0010 N.2       1 <0>        -0.4698
     19 N3          3.3962    6.4459    0.0018 N.2       1 <0>        -0.2608
     20 H2          3.2961    8.5867    0.0158 H         1 <0>         0.4877
     21 N4          2.8025    7.7170    0.0148 N.pl3     1 <0>        -0.2544
     22 N5          1.5215    7.5866    0.0253 N.2       1 <0>        -0.1505
     23 H3          8.1344    2.0721   -0.0683 H         1 <0>         0.0647
     24 H4          7.3076    0.7718    0.8227 H         1 <0>         0.0567
     25 H5          7.2895    0.7820   -0.9571 H         1 <0>         0.0567
     26 H6          5.9508    2.8691   -0.9315 H         1 <0>         0.0753
     27 H7          5.9689    2.8589    0.8483 H         1 <0>         0.0753
     28 H8          4.8115    0.6660    0.8476 H         1 <0>         0.0637
     29 H9          4.7933    0.6762   -0.9323 H         1 <0>         0.0637
     30 H10         3.3380   -0.5326   -0.0339 H         1 <0>         0.1389
     31 H11         1.2129   -1.7663   -0.0197 H         1 <0>         0.1342
     32 H12        -0.9272   -0.5544    0.0083 H         1 <0>         0.1363
     33 H13        -0.9587    1.9021    0.0176 H         1 <0>         0.1335
@<TRIPOS>BOND
     1    1    2 1
     2    1   23 1
     3    1   24 1
     4    1   25 1
     5    2    3 1
     6    2   26 1
     7    2   27 1
     8    3    4 1
     9    3   28 1
    10    3   29 1
    11    4    5 1
    12    5   10 ar
    13    5    6 ar
    14    6    7 ar
    15    6   30 1
    16    7    8 ar
    17    7   31 1
    18    8    9 ar
    19    8   32 1
    20    9   10 ar
    21    9   33 1
    22   10   11 1
    23   11   18 2
    24   11   12 1
    25   12   13 1
    26   12   14 am
    27   14   15 2
    28   14   16 1
    29   16   17 1
    30   16   22 2
    31   17   18 1
    32   17   19 2
    33   19   21 1
    34   20   21 1
    35   21   22 1
