@<TRIPOS>MOLECULE
ZINC01483030
   31    33     0     0     0
SMALL
USER_CHARGES

@<TRIPOS>ATOM
      1 C1          4.5555    7.4608   -0.9943 C.ar      1 <0>         0.3478
      2 N1          3.9483    8.4531   -1.6196 N.ar      1 <0>        -0.5755
      3 C2          2.7596    8.2829   -2.1889 C.ar      1 <0>         0.4484
      4 C3          2.1497    7.0198   -2.1007 C.ar      1 <0>        -0.0720
      5 C4          2.8351    5.9982   -1.4223 C.ar      1 <0>         0.2994
      6 N2          4.0248    6.2608   -0.8909 N.ar      1 <0>        -0.5348
      7 N3          2.0274    4.8912   -1.4901 N.pl3     1 <0>        -0.4630
      8 C5          0.9036    5.2466   -2.1747 C.2       1 <0>         0.2549
      9 N4          0.9773    6.4959   -2.5321 N.2       1 <0>        -0.4504
     10 C6          2.3169    3.5710   -0.9248 C.3       1 <0>         0.1460
     11 H1          3.2600    3.5819   -0.3785 H         1 <0>         0.1314
     12 C7          1.1586    3.0991   -0.0098 C.3       1 <0>        -0.1237
     13 C8          1.2864    1.5618   -0.0018 C.3       1 <0>         0.0744
     14 H2          1.8526    1.2387    0.8717 H         1 <0>         0.0807
     15 C9          2.0363    1.1752   -1.2887 C.3       1 <0>         0.0359
     16 H3          1.4106    0.5308   -1.9062 H         1 <0>         0.0797
     17 C10         2.3381    2.4911   -2.0350 C.3       1 <0>         0.1050
     18 H4          1.5672    2.6934   -2.7787 H         1 <0>         0.0832
     19 O1          3.6248    2.4314   -2.6538 O.3       1 <0>        -0.5384
     20 O2          3.2558    0.5057   -0.9622 O.3       1 <0>        -0.5446
     21 O3         -0.0110    0.9628    0.0073 O.3       1 <0>        -0.5570
     22 N5          2.1304    9.3291   -2.8405 N.pl3     1 <0>        -0.7433
     23 H5          5.5237    7.6409   -0.5509 H         1 <0>         0.2066
     24 H6          0.0745    4.5886   -2.3893 H         1 <0>         0.2226
     25 H7          0.1972    3.3999   -0.4260 H         1 <0>         0.0963
     26 H8          1.2807    3.4973    0.9975 H         1 <0>         0.0954
     27 H9          3.7101    1.7333   -3.3174 H         1 <0>         0.3856
     28 H10         3.1328   -0.3193   -0.4729 H         1 <0>         0.3822
     29 H11         0.0021   -0.0041    0.0020 H         1 <0>         0.3841
     30 H12         1.9701    9.0789   -3.7953 H         1 <0>         0.3696
     31 H13         2.5617   10.1963   -2.8947 H         1 <0>         0.3737
@<TRIPOS>BOND
     1    1    6 ar
     2    1    2 ar
     3    1   23 1
     4    2    3 ar
     5    3    4 ar
     6    3   22 1
     7    4    9 1
     8    4    5 ar
     9    5    6 ar
    10    5    7 1
    11    7    8 1
    12    7   10 1
    13    8    9 2
    14    8   24 1
    15   10   11 1
    16   10   17 1
    17   10   12 1
    18   12   13 1
    19   12   25 1
    20   12   26 1
    21   13   14 1
    22   13   15 1
    23   13   21 1
    24   15   16 1
    25   15   17 1
    26   15   20 1
    27   17   18 1
    28   17   19 1
    29   19   27 1
    30   20   28 1
    31   21   29 1
    32   22   30 1
    33   22   31 1
@<TRIPOS>MOLECULE
ZINC03600042
   31    33     0     0     0
SMALL
USER_CHARGES

@<TRIPOS>ATOM
      1 C1          1.5456    7.7253    3.0041 C.ar      1 <0>         0.3481
      2 N1          2.3896    8.6099    2.5046 N.ar      1 <0>        -0.5753
      3 C2          3.2616    8.2722    1.5604 C.ar      1 <0>         0.4484
      4 C3          3.2689    6.9444    1.0995 C.ar      1 <0>        -0.0725
      5 C4          2.3477    6.0431    1.6589 C.ar      1 <0>         0.2989
      6 N2          1.5164    6.4720    2.6033 N.ar      1 <0>        -0.5338
      7 N3          2.5730    4.8394    1.0404 N.pl3     1 <0>        -0.4657
      8 C5          3.5828    5.0236    0.1435 C.2       1 <0>         0.2511
      9 N4          3.9896    6.2592    0.1797 N.2       1 <0>        -0.4500
     10 C6          1.8556    3.5873    1.2931 C.3       1 <0>         0.1448
     11 H1          1.1283    3.7204    2.0940 H         1 <0>         0.1332
     12 C7          2.8509    2.4535    1.6437 C.3       1 <0>        -0.1233
     13 C8          2.0558    1.1755    1.2783 C.3       1 <0>         0.0730
     14 H2          2.7356    0.3470    1.0794 H         1 <0>         0.0775
     15 C9          1.2864    1.5618   -0.0018 C.3       1 <0>         0.0365
     16 H3          1.8403    1.2385   -0.8832 H         1 <0>         0.0785
     17 C10         1.1591    3.0952    0.0076 C.3       1 <0>         0.1052
     18 H4          1.6520    3.5162   -0.8687 H         1 <0>         0.0739
     19 O1         -0.2193    3.4719    0.0228 O.3       1 <0>        -0.5380
     20 O2         -0.0110    0.9628    0.0073 O.3       1 <0>        -0.5421
     21 O3          1.1451    0.8364    2.3260 O.3       1 <0>        -0.5436
     22 N5          4.1424    9.2059    1.0434 N.pl3     1 <0>        -0.7437
     23 H5          0.8533    8.0424    3.7700 H         1 <0>         0.2069
     24 H6          3.9857    4.2571   -0.5020 H         1 <0>         0.2223
     25 H7          3.7546    2.5322    1.0393 H         1 <0>         0.0971
     26 H8          3.0957    2.4691    2.7057 H         1 <0>         0.0988
     27 H9         -0.7174    3.1726   -0.7501 H         1 <0>         0.3869
     28 H10         0.0021   -0.0041    0.0020 H         1 <0>         0.3814
     29 H11         0.5802    0.0775    2.1258 H         1 <0>         0.3822
     30 H12         5.0817    8.9054    1.2088 H         1 <0>         0.3694
     31 H13         4.1277   10.1193    1.3697 H         1 <0>         0.3737
@<TRIPOS>BOND
     1    1    6 ar
     2    1    2 ar
     3    1   23 1
     4    2    3 ar
     5    3    4 ar
     6    3   22 1
     7    4    9 1
     8    4    5 ar
     9    5    6 ar
    10    5    7 1
    11    7    8 1
    12    7   10 1
    13    8    9 2
    14    8   24 1
    15   10   11 1
    16   10   17 1
    17   10   12 1
    18   12   13 1
    19   12   25 1
    20   12   26 1
    21   13   14 1
    22   13   15 1
    23   13   21 1
    24   15   16 1
    25   15   17 1
    26   15   20 1
    27   17   18 1
    28   17   19 1
    29   19   27 1
    30   20   28 1
    31   21   29 1
    32   22   30 1
    33   22   31 1
@<TRIPOS>MOLECULE
ZINC03600044
   34    36     0     0     0
SMALL
USER_CHARGES

@<TRIPOS>ATOM
      1 C1          3.1560   -0.9322    0.7807 C.3       1 <0>         0.0259
      2 O1          3.2783    0.4874    0.8892 O.3       1 <0>        -0.3769
      3 C2          2.0665    1.1487    1.2585 C.3       1 <0>         0.0570
      4 H1          1.4556    0.4913    1.8771 H         1 <0>         0.0857
      5 C3          2.3863    2.4488    2.0247 C.3       1 <0>        -0.1271
      6 C4          1.3053    3.4486    1.5443 C.3       1 <0>         0.1459
      7 H2          0.3667    3.2870    2.0745 H         1 <0>         0.1316
      8 C5          1.1593    3.0985    0.0425 C.3       1 <0>         0.1064
      9 H3          1.9565    3.5641   -0.5370 H         1 <0>         0.0837
     10 C6          1.2864    1.5618   -0.0018 C.3       1 <0>         0.0464
     11 H4          1.8316    1.2571   -0.8951 H         1 <0>         0.0809
     12 O2         -0.0110    0.9628    0.0073 O.3       1 <0>        -0.5444
     13 O3         -0.1200    3.5089   -0.4446 O.3       1 <0>        -0.5386
     14 N1          1.7636    4.8297    1.7133 N.pl3     1 <0>        -0.4626
     15 C7          2.8829    5.3810    1.1643 C.2       1 <0>         0.2598
     16 N2          2.9834    6.6293    1.5186 N.2       1 <0>        -0.4625
     17 C8          1.9433    6.9547    2.3233 C.ar      1 <0>        -0.1052
     18 C9          1.1481    5.8039    2.4579 C.ar      1 <0>         0.3023
     19 N3          0.0524    5.8601    3.2078 N.ar      1 <0>        -0.5380
     20 C10        -0.2868    6.9763    3.8176 C.ar      1 <0>         0.3503
     21 N4          0.4283    8.0822    3.7211 N.ar      1 <0>        -0.5497
     22 C11         1.5399    8.1219    2.9936 C.ar      1 <0>         0.4567
     23 N5          2.2824    9.2858    2.8980 N.pl3     1 <0>        -0.7512
     24 H5          2.8442   -1.3444    1.7404 H         1 <0>         0.0476
     25 H6          2.4125   -1.1759    0.0218 H         1 <0>         0.0422
     26 H7          4.1180   -1.3592    0.4972 H         1 <0>         0.0930
     27 H8          2.3061    2.2876    3.0998 H         1 <0>         0.0946
     28 H9          3.3817    2.8095    1.7654 H         1 <0>         0.0966
     29 H10         0.0021   -0.0041    0.0020 H         1 <0>         0.3808
     30 H11        -0.2880    3.2627   -1.3645 H         1 <0>         0.3861
     31 H12         3.5817    4.8597    0.5269 H         1 <0>         0.2227
     32 H13        -1.1837    6.9881    4.4192 H         1 <0>         0.2097
     33 H14         1.7175   10.0100    2.5026 H         1 <0>         0.3675
     34 H15         3.0920    9.3021    2.3639 H         1 <0>         0.3828
@<TRIPOS>BOND
     1    1    2 1
     2    1   24 1
     3    1   25 1
     4    1   26 1
     5    2    3 1
     6    3    4 1
     7    3   10 1
     8    3    5 1
     9    5    6 1
    10    5   27 1
    11    5   28 1
    12    6    7 1
    13    6    8 1
    14    6   14 1
    15    8    9 1
    16    8   10 1
    17    8   13 1
    18   10   11 1
    19   10   12 1
    20   12   29 1
    21   13   30 1
    22   14   18 1
    23   14   15 1
    24   15   16 2
    25   15   31 1
    26   16   17 1
    27   17   22 ar
    28   17   18 ar
    29   18   19 ar
    30   19   20 ar
    31   20   21 ar
    32   20   32 1
    33   21   22 ar
    34   22   23 1
    35   23   33 1
    36   23   34 1
@<TRIPOS>MOLECULE
ZINC03776439
   30    32     0     0     0
SMALL
USER_CHARGES

@<TRIPOS>ATOM
      1 C1         -1.5232    5.5075   -2.6670 C.ar      1 <0>         0.3477
      2 N1         -1.0224    5.8049   -3.8523 N.ar      1 <0>        -0.5756
      3 C2          0.1952    5.4063   -4.2048 C.ar      1 <0>         0.4485
      4 C3          0.9467    4.6557   -3.2844 C.ar      1 <0>        -0.0722
      5 C4          0.3694    4.3656   -2.0369 C.ar      1 <0>         0.2973
      6 N2         -0.8563    4.8076   -1.7738 N.ar      1 <0>        -0.5349
      7 N3          1.3038    3.6340   -1.3485 N.pl3     1 <0>        -0.4648
      8 C5          2.3943    3.5012   -2.1556 C.2       1 <0>         0.2536
      9 N4          2.1806    4.0966   -3.2929 N.2       1 <0>        -0.4512
     10 C6          1.1588    3.0991    0.0076 C.3       1 <0>         0.1405
     11 H1          0.2022    3.3999    0.4351 H         1 <0>         0.1285
     12 C7          2.3294    3.5719    0.9049 C.3       1 <0>        -0.1282
     13 C8          2.3658    2.4932    2.0158 C.3       1 <0>        -0.1544
     14 C9          2.0538    1.1765    1.2750 C.3       1 <0>         0.0695
     15 H2          2.9809    0.6663    1.0138 H         1 <0>         0.0715
     16 C10         1.2864    1.5618   -0.0018 C.3       1 <0>         0.1009
     17 H3          1.8403    1.2385   -0.8832 H         1 <0>         0.0728
     18 O1         -0.0110    0.9628    0.0073 O.3       1 <0>        -0.5416
     19 O2          1.2447    0.3325    2.0966 O.3       1 <0>        -0.5531
     20 N5          0.7115    5.7233   -5.4490 N.pl3     1 <0>        -0.7438
     21 H4         -2.5171    5.8512   -2.4215 H         1 <0>         0.2067
     22 H5          3.3006    2.9766   -1.8914 H         1 <0>         0.2223
     23 H6          3.2650    3.5822    0.3457 H         1 <0>         0.0843
     24 H7          2.1198    4.5546    1.3274 H         1 <0>         0.0891
     25 H8          3.3546    2.4490    2.4724 H         1 <0>         0.0832
     26 H9          1.6052    2.6962    2.7698 H         1 <0>         0.0878
     27 H10         0.0021   -0.0041    0.0020 H         1 <0>         0.3877
     28 H11         1.6733    0.0550    2.9178 H         1 <0>         0.3846
     29 H12         1.5477    6.2600   -5.3360 H         1 <0>         0.3695
     30 H13         0.1831    6.2419   -6.0756 H         1 <0>         0.3737
@<TRIPOS>BOND
     1    1    6 ar
     2    1    2 ar
     3    1   21 1
     4    2    3 ar
     5    3    4 ar
     6    3   20 1
     7    4    9 1
     8    4    5 ar
     9    5    6 ar
    10    5    7 1
    11    7    8 1
    12    7   10 1
    13    8    9 2
    14    8   22 1
    15   10   11 1
    16   10   16 1
    17   10   12 1
    18   12   13 1
    19   12   23 1
    20   12   24 1
    21   13   14 1
    22   13   25 1
    23   13   26 1
    24   14   15 1
    25   14   16 1
    26   14   19 1
    27   16   17 1
    28   16   18 1
    29   18   27 1
    30   19   28 1
    31   20   29 1
    32   20   30 1
@<TRIPOS>MOLECULE
ZINC03778256
   28    30     0     0     0
SMALL
USER_CHARGES

@<TRIPOS>ATOM
      1 C1          1.1410   -0.6726   -0.0124 C.ar      1 <0>         0.3527
      2 N1          0.0021   -0.0041    0.0020 N.ar      1 <0>        -0.5486
      3 C2         -0.0159    1.3246    0.0093 C.ar      1 <0>         0.4587
      4 C3          1.2105    2.0110    0.0013 C.ar      1 <0>        -0.1046
      5 C4          2.3940    1.2542   -0.0141 C.ar      1 <0>         0.2988
      6 N2          2.3124   -0.0725   -0.0204 N.ar      1 <0>        -0.5391
      7 N3          3.4232    2.1615   -0.0186 N.pl3     1 <0>        -0.4624
      8 C5          2.8697    3.4072   -0.0064 C.2       1 <0>         0.2613
      9 N4          1.5715    3.3167    0.0053 N.2       1 <0>        -0.4608
     10 C6          4.8543    1.8489   -0.0338 C.3       1 <0>         0.1617
     11 H1          5.0070    0.7701   -0.0005 H         1 <0>         0.1327
     12 C7          5.5515    2.5176    1.1281 C.2       1 <0>        -0.1587
     13 C8          6.1980    3.5825    0.7384 C.2       1 <0>        -0.1613
     14 C9          6.0397    3.8015   -0.7483 C.3       1 <0>         0.0862
     15 H2          5.3127    4.5905   -0.9406 H         1 <0>         0.0794
     16 C10         5.5235    2.4490   -1.2920 C.3       1 <0>         0.1076
     17 H3          4.7949    2.5994   -2.0887 H         1 <0>         0.0815
     18 O1          6.6054    1.6290   -1.7382 O.3       1 <0>        -0.5368
     19 O2          7.2974    4.1293   -1.3422 O.3       1 <0>        -0.5503
     20 N5         -1.2144    2.0164    0.0188 N.pl3     1 <0>        -0.7508
     21 H4          1.1100   -1.7521   -0.0183 H         1 <0>         0.2111
     22 H5          3.4265    4.3326   -0.0064 H         1 <0>         0.2191
     23 H6          5.5190    2.1615    2.1471 H         1 <0>         0.1433
     24 H7          6.7706    4.2232    1.3927 H         1 <0>         0.1443
     25 H8          7.0555    1.9656   -2.5251 H         1 <0>         0.3955
     26 H9          7.6693    4.9685   -1.0378 H         1 <0>         0.3880
     27 H10        -1.7426    1.7792   -0.7965 H         1 <0>         0.3683
     28 H11        -1.2145    2.9864    0.0241 H         1 <0>         0.3833
@<TRIPOS>BOND
     1    1    6 ar
     2    1    2 ar
     3    1   21 1
     4    2    3 ar
     5    3    4 ar
     6    3   20 1
     7    4    9 1
     8    4    5 ar
     9    5    6 ar
    10    5    7 1
    11    7    8 1
    12    7   10 1
    13    8    9 2
    14    8   22 1
    15   10   11 1
    16   10   16 1
    17   10   12 1
    18   12   13 2
    19   12   23 1
    20   13   14 1
    21   13   24 1
    22   14   15 1
    23   14   16 1
    24   14   19 1
    25   16   17 1
    26   16   18 1
    27   18   25 1
    28   19   26 1
    29   20   27 1
    30   20   28 1
@<TRIPOS>MOLECULE
ZINC03778257
   30    32     0     0     0
SMALL
USER_CHARGES

@<TRIPOS>ATOM
      1 C1          1.1706    1.7597    0.0003 C.ar      1 <0>        -0.1286
      2 C2         -0.0126    1.0758    0.0080 C.ar      1 <0>         0.1246
      3 C3         -1.2634    3.0263    0.0300 C.ar      1 <0>         0.5410
      4 C4         -0.0970    3.8060    0.0234 C.ar      1 <0>        -0.0378
      5 C5          1.1475    3.1525    0.0080 C.ar      1 <0>         0.1526
      6 N1          2.0994    4.1436    0.0043 N.pl3     1 <0>        -0.4475
      7 C6          1.4422    5.3372    0.0170 C.2       1 <0>         0.2827
      8 N2          0.1563    5.1378    0.0282 N.2       1 <0>        -0.4456
      9 C7          3.5518    3.9523   -0.0102 C.3       1 <0>         0.1571
     10 H1          3.7939    2.8898   -0.0328 H         1 <0>         0.1380
     11 C8          4.1814    4.6102    1.1956 C.2       1 <0>        -0.1700
     12 C9          5.2493    5.2818    0.8606 C.2       1 <0>        -0.1512
     13 C10         5.5100    5.1838   -0.6245 C.3       1 <0>         0.0862
     14 H2          5.7607    6.1634   -1.0315 H         1 <0>         0.0836
     15 C11         4.1784    4.6760   -1.2247 C.3       1 <0>         0.1032
     16 H3          3.5534    5.5077   -1.5498 H         1 <0>         0.0924
     17 O1          4.4148    3.7641   -2.2992 O.3       1 <0>        -0.5395
     18 O2          6.5629    4.2534   -0.8848 O.3       1 <0>        -0.5395
     19 N3         -2.5091    3.6399    0.0451 N.pl3     1 <0>        -0.7981
     20 H4          2.1104    1.2277   -0.0119 H         1 <0>         0.1788
     21 H5          0.0021   -0.0041    0.0020 H         1 <0>         0.1998
     22 H6          1.9186    6.3065    0.0176 H         1 <0>         0.2353
     23 H7          3.7983    4.5343    2.2026 H         1 <0>         0.1485
     24 H8          5.8659    5.8346    1.5539 H         1 <0>         0.1508
     25 H9          4.8071    4.1729   -3.0828 H         1 <0>         0.3978
     26 H10         7.4106    4.4978   -0.4890 H         1 <0>         0.3908
     27 H11        -2.5729    4.6077    0.0511 H         1 <0>         0.4441
     28 H12        -3.3154    3.1006    0.0496 H         1 <0>         0.4246
     29 N4         -1.2463    1.6618    0.0167 N.ar      1 <0>        -0.5470
     30 H13        -2.1108    1.1078    0.0135 H         1 <0>         0.4732
@<TRIPOS>BOND
     1    1    5 ar
     2    1    2 ar
     3    1   20 1
     4    2   21 1
     5    2   29 ar
     6    3    4 ar
     7    3   19 1
     8    3   29 ar
     9    4    8 1
    10    4    5 ar
    11    5    6 1
    12    6    7 1
    13    6    9 1
    14    7    8 2
    15    7   22 1
    16    9   10 1
    17    9   15 1
    18    9   11 1
    19   11   12 2
    20   11   23 1
    21   12   13 1
    22   12   24 1
    23   13   14 1
    24   13   15 1
    25   13   18 1
    26   15   16 1
    27   15   17 1
    28   17   25 1
    29   18   26 1
    30   19   27 1
    31   19   28 1
    32   29   30 1
@<TRIPOS>MOLECULE
ZINC03782812
   31    33     0     0     0
SMALL
USER_CHARGES

@<TRIPOS>ATOM
      1 C1         -4.7329    0.7132    2.7679 C.ar      1 <0>         0.3486
      2 N1         -4.7506    0.1205    3.9480 N.ar      1 <0>        -0.5749
      3 C2         -3.8420   -0.7932    4.2728 C.ar      1 <0>         0.4491
      4 C3         -2.8534   -1.1197    3.3287 C.ar      1 <0>        -0.0713
      5 C4         -2.8747   -0.4572    2.0900 C.ar      1 <0>         0.2974
      6 N2         -3.8270    0.4394    1.8532 N.ar      1 <0>        -0.5352
      7 N3         -1.8197   -0.9621    1.3728 N.pl3     1 <0>        -0.4667
      8 C5         -1.1932   -1.8817    2.1602 C.2       1 <0>         0.2576
      9 N4         -1.8012   -1.9727    3.3073 N.2       1 <0>        -0.4495
     10 C6         -1.4335   -0.5787    0.0126 C.3       1 <0>         0.1671
     11 H1         -2.1372    0.1499   -0.3899 H         1 <0>         0.1394
     12 C7         -1.3667   -1.7955   -0.8809 C.2       1 <0>        -0.1134
     13 C8         -0.2916   -1.7768   -1.6208 C.2       1 <0>        -0.1938
     14 C9          0.5380   -0.5446   -1.3440 C.3       1 <0>         0.1031
     15 H2          1.5918   -0.8084   -1.2548 H         1 <0>         0.0796
     16 C10         0.0021   -0.0041    0.0020 C.3       1 <0>         0.1058
     17 H3          0.5842   -0.3899    0.8389 H         1 <0>         0.0914
     18 O1         -0.0173    1.4248    0.0099 O.3       1 <0>        -0.5338
     19 O2          0.3519    0.4234   -2.3787 O.3       1 <0>        -0.5359
     20 C11         0.0741   -2.8439   -2.6201 C.3       1 <0>         0.1144
     21 F1          0.9380   -3.7671   -2.0214 F         1 <0>        -0.2052
     22 N5         -3.8689   -1.4092    5.5117 N.pl3     1 <0>        -0.7435
     23 H4         -5.4901    1.4505    2.5452 H         1 <0>         0.2071
     24 H5         -0.3210   -2.4509    1.8744 H         1 <0>         0.2225
     25 H6         -2.1111   -2.5776   -0.9045 H         1 <0>         0.1475
     26 H7          0.8606    1.8301    0.0037 H         1 <0>         0.3891
     27 H8          0.6701    0.1381   -3.2461 H         1 <0>         0.3827
     28 H9         -0.8294   -3.3547   -2.9531 H         1 <0>         0.0900
     29 H10         0.5689   -2.3855   -3.4763 H         1 <0>         0.0869
     30 H11        -3.9767   -2.3960    5.3910 H         1 <0>         0.3698
     31 H12        -4.5563   -1.1753    6.1549 H         1 <0>         0.3740
@<TRIPOS>BOND
     1    1    6 ar
     2    1    2 ar
     3    1   23 1
     4    2    3 ar
     5    3    4 ar
     6    3   22 1
     7    4    9 1
     8    4    5 ar
     9    5    6 ar
    10    5    7 1
    11    7    8 1
    12    7   10 1
    13    8    9 2
    14    8   24 1
    15   10   11 1
    16   10   16 1
    17   10   12 1
    18   12   13 2
    19   12   25 1
    20   13   14 1
    21   13   20 1
    22   14   15 1
    23   14   16 1
    24   14   19 1
    25   16   17 1
    26   16   18 1
    27   18   26 1
    28   19   27 1
    29   20   21 1
    30   20   28 1
    31   20   29 1
    32   22   30 1
    33   22   31 1
@<TRIPOS>MOLECULE
ZINC03788179
   31    33     0     0     0
SMALL
USER_CHARGES

@<TRIPOS>ATOM
      1 C1          4.7845    7.3821    0.1241 C.ar      1 <0>         0.3486
      2 N1          4.3961    8.3728    0.9064 N.ar      1 <0>        -0.5752
      3 C2          3.4062    8.2136    1.7785 C.ar      1 <0>         0.4492
      4 C3          2.7749    6.9601    1.8534 C.ar      1 <0>        -0.0716
      5 C4          3.2249    5.9389    1.0000 C.ar      1 <0>         0.2983
      6 N2          4.2229    6.1923    0.1595 N.ar      1 <0>        -0.5351
      7 N3          2.4482    4.8429    1.2792 N.pl3     1 <0>        -0.4651
      8 C5          1.5685    5.2037    2.2560 C.2       1 <0>         0.2546
      9 N4          1.7657    6.4445    2.5956 N.2       1 <0>        -0.4494
     10 C6          2.5428    3.5280    0.6404 C.3       1 <0>         0.1437
     11 H1          3.3025    3.5383   -0.1412 H         1 <0>         0.1318
     12 C7          1.1712    3.1054    0.0542 C.3       1 <0>        -0.1210
     13 C8          1.2864    1.5618   -0.0018 C.3       1 <0>         0.0724
     14 H2          1.8420    1.2525   -0.8871 H         1 <0>         0.0845
     15 C9          2.0615    1.1904    1.2792 C.3       1 <0>         0.0365
     16 H3          1.3645    0.9175    2.0715 H         1 <0>         0.0822
     17 C10         2.8604    2.4406    1.6875 C.3       1 <0>         0.1051
     18 H4          2.5510    2.7743    2.6780 H         1 <0>         0.0775
     19 O1          4.2596    2.1504    1.6830 O.3       1 <0>        -0.5401
     20 O2          2.9517    0.1042    1.0152 O.3       1 <0>        -0.5495
     21 O3         -0.0110    0.9628    0.0073 O.3       1 <0>        -0.5558
     22 N5          3.0065    9.2575    2.5943 N.pl3     1 <0>        -0.7436
     23 H5          5.5932    7.5548   -0.5706 H         1 <0>         0.2071
     24 H6          0.8200    4.5549    2.6863 H         1 <0>         0.2231
     25 H7          1.0317    3.5188   -0.9447 H         1 <0>         0.0962
     26 H8          0.3597    3.4085    0.7157 H         1 <0>         0.0950
     27 H9          4.5198    1.4583    2.3062 H         1 <0>         0.3893
     28 H10         2.5086   -0.7076    0.7326 H         1 <0>         0.3838
     29 H11         0.0021   -0.0041    0.0020 H         1 <0>         0.3836
     30 H12         2.0449    9.4684    2.4187 H         1 <0>         0.3698
     31 H13         3.4501   10.1180    2.5332 H         1 <0>         0.3739
@<TRIPOS>BOND
     1    1    6 ar
     2    1    2 ar
     3    1   23 1
     4    2    3 ar
     5    3    4 ar
     6    3   22 1
     7    4    9 1
     8    4    5 ar
     9    5    6 ar
    10    5    7 1
    11    7    8 1
    12    7   10 1
    13    8    9 2
    14    8   24 1
    15   10   11 1
    16   10   17 1
    17   10   12 1
    18   12   13 1
    19   12   25 1
    20   12   26 1
    21   13   14 1
    22   13   15 1
    23   13   21 1
    24   15   16 1
    25   15   17 1
    26   15   20 1
    27   17   18 1
    28   17   19 1
    29   19   27 1
    30   20   28 1
    31   21   29 1
    32   22   30 1
    33   22   31 1
@<TRIPOS>MOLECULE
ZINC03802230
   35    37     0     0     0
SMALL
USER_CHARGES

@<TRIPOS>ATOM
      1 C1          3.5057    2.2301    3.9903 C.3       1 <0>        -0.1851
      2 C2          3.9898    2.5568    2.5762 C.3       1 <0>         0.1514
      3 H1          4.4150    3.5604    2.5604 H         1 <0>         0.1123
      4 C3          2.8278    2.4885    1.6191 C.2       1 <0>        -0.1807
      5 C4          2.3512    3.5108    0.9622 C.2       1 <0>        -0.1314
      6 C5          1.1873    3.1022    0.0896 C.3       1 <0>         0.1693
      7 H2          0.2438    3.3954    0.5502 H         1 <0>         0.1365
      8 C6          1.2864    1.5618   -0.0018 C.3       1 <0>         0.1062
      9 H3          1.8491    1.2576   -0.8844 H         1 <0>         0.0904
     10 C7          2.0616    1.2267    1.2935 C.3       1 <0>         0.1005
     11 H4          2.7486    0.3982    1.1214 H         1 <0>         0.0753
     12 O1          1.1527    0.9100    2.3498 O.3       1 <0>        -0.5364
     13 O2         -0.0110    0.9628    0.0073 O.3       1 <0>        -0.5344
     14 N1          1.3122    3.7016   -1.2413 N.pl3     1 <0>        -0.4656
     15 C8          2.3792    3.5847   -2.0816 C.2       1 <0>         0.2584
     16 N2          2.1537    4.2439   -3.1809 N.2       1 <0>        -0.4506
     17 C9          0.9312    4.8239   -3.1162 C.ar      1 <0>        -0.0713
     18 C10         0.3743    4.4784   -1.8731 C.ar      1 <0>         0.2971
     19 N3         -0.8340    4.9333   -1.5579 N.ar      1 <0>        -0.5352
     20 C11        -1.5073    5.6885   -2.4001 C.ar      1 <0>         0.3479
     21 N4         -1.0279    6.0350   -3.5807 N.ar      1 <0>        -0.5751
     22 C12         0.1739    5.6323   -3.9807 C.ar      1 <0>         0.4484
     23 N5          0.6681    6.0010   -5.2196 N.pl3     1 <0>        -0.7436
     24 O3          4.9865    1.6110    2.1835 O.3       1 <0>        -0.5506
     25 H5          3.0806    1.2266    4.0060 H         1 <0>         0.0574
     26 H6          4.3462    2.2795    4.6826 H         1 <0>         0.0752
     27 H7          2.7455    2.9515    4.2898 H         1 <0>         0.0740
     28 H8          2.7382    4.5166    1.0329 H         1 <0>         0.1450
     29 H9          1.5838    0.6914    3.1873 H         1 <0>         0.3790
     30 H10         0.0021   -0.0041    0.0020 H         1 <0>         0.3885
     31 H11         3.2790    3.0274   -1.8668 H         1 <0>         0.2222
     32 H12        -2.4885    6.0381   -2.1146 H         1 <0>         0.2068
     33 H13         1.5167    6.5163   -5.1000 H         1 <0>         0.3696
     34 H14         0.1357    6.5594   -5.8076 H         1 <0>         0.3738
     35 H15         4.6775    0.6948    2.1748 H         1 <0>         0.3747
@<TRIPOS>BOND
     1    1    2 1
     2    1   25 1
     3    1   26 1
     4    1   27 1
     5    2    3 1
     6    2    4 1
     7    2   24 1
     8    4   10 1
     9    4    5 2
    10    5    6 1
    11    5   28 1
    12    6    7 1
    13    6    8 1
    14    6   14 1
    15    8    9 1
    16    8   10 1
    17    8   13 1
    18   10   11 1
    19   10   12 1
    20   12   29 1
    21   13   30 1
    22   14   18 1
    23   14   15 1
    24   15   16 2
    25   15   31 1
    26   16   17 1
    27   17   22 ar
    28   17   18 ar
    29   18   19 ar
    30   19   20 ar
    31   20   21 ar
    32   20   32 1
    33   21   22 ar
    34   22   23 1
    35   23   33 1
    36   23   34 1
    37   24   35 1
@<TRIPOS>MOLECULE
ZINC03826694
   35    37     0     0     0
SMALL
USER_CHARGES

@<TRIPOS>ATOM
      1 C1          6.6859    1.2059   -0.3717 C.ar      1 <0>         0.3478
      2 N1          7.3257    1.4869    0.7491 N.ar      1 <0>        -0.5752
      3 C2          6.6692    1.6593    1.8915 C.ar      1 <0>         0.4484
      4 C3          5.2691    1.5360    1.8845 C.ar      1 <0>        -0.0712
      5 C4          4.6363    1.2307    0.6679 C.ar      1 <0>         0.2969
      6 N2          5.3768    1.0810   -0.4257 N.ar      1 <0>        -0.5350
      7 N3          3.2935    1.1745    0.9438 N.pl3     1 <0>        -0.4654
      8 C5          3.1387    1.4282    2.2741 C.2       1 <0>         0.2579
      9 N4          4.2989    1.6400    2.8242 N.2       1 <0>        -0.4512
     10 C6          2.2229    0.8880   -0.0144 C.3       1 <0>         0.1696
     11 H1          2.6342    0.7642   -1.0162 H         1 <0>         0.1360
     12 C7          1.1928    1.9933    0.0014 C.2       1 <0>        -0.1428
     13 C8         -0.0184    1.5068    0.0103 C.2       1 <0>        -0.1426
     14 C9          0.0021   -0.0041    0.0020 C.3       1 <0>         0.0986
     15 H2         -0.7128   -0.3975    0.7247 H         1 <0>         0.0782
     16 C10         1.4457   -0.3798    0.4094 C.3       1 <0>         0.1050
     17 H3          1.5190   -0.5426    1.4847 H         1 <0>         0.0903
     18 O1          1.9007   -1.5259   -0.3128 O.3       1 <0>        -0.5354
     19 O2         -0.2907   -0.4987   -1.3063 O.3       1 <0>        -0.5379
     20 C11        -1.2726    2.3423    0.0210 C.3       1 <0>        -0.0755
     21 C12        -1.7738    2.5282   -1.4126 C.3       1 <0>         0.0812
     22 O3         -2.9630    3.3204   -1.4024 O.3       1 <0>        -0.5740
     23 N5          7.3482    1.9540    3.0608 N.pl3     1 <0>        -0.7436
     24 H4          7.2585    1.0739   -1.2779 H         1 <0>         0.2067
     25 H5          2.1927    1.4501    2.7948 H         1 <0>         0.2219
     26 H6          1.4277    3.0474    0.0045 H         1 <0>         0.1442
     27 H7          1.3776   -2.3236   -0.1547 H         1 <0>         0.3890
     28 H8         -1.1658   -0.2500   -1.6341 H         1 <0>         0.3806
     29 H9         -2.0388    1.8399    0.6115 H         1 <0>         0.0857
     30 H10        -1.0565    3.3164    0.4596 H         1 <0>         0.0867
     31 H11        -1.0076    3.0305   -2.0031 H         1 <0>         0.0503
     32 H12        -1.9899    1.5540   -1.8511 H         1 <0>         0.0457
     33 H13        -3.3373    3.4791   -2.2798 H         1 <0>         0.3859
     34 H14         7.0335    2.8342    3.4162 H         1 <0>         0.3695
     35 H15         8.3146    2.0365    3.0528 H         1 <0>         0.3737
@<TRIPOS>BOND
     1    1    6 ar
     2    1    2 ar
     3    1   24 1
     4    2    3 ar
     5    3    4 ar
     6    3   23 1
     7    4    9 1
     8    4    5 ar
     9    5    6 ar
    10    5    7 1
    11    7    8 1
    12    7   10 1
    13    8    9 2
    14    8   25 1
    15   10   11 1
    16   10   16 1
    17   10   12 1
    18   12   13 2
    19   12   26 1
    20   13   14 1
    21   13   20 1
    22   14   15 1
    23   14   16 1
    24   14   19 1
    25   16   17 1
    26   16   18 1
    27   18   27 1
    28   19   28 1
    29   20   21 1
    30   20   29 1
    31   20   30 1
    32   21   22 1
    33   21   31 1
    34   21   32 1
    35   22   33 1
    36   23   34 1
    37   23   35 1
@<TRIPOS>MOLECULE
ZINC03832327
   34    36     0     0     0
SMALL
USER_CHARGES

@<TRIPOS>ATOM
      1 C1         -1.0919    6.5517   -3.9219 C.ar      1 <0>         0.3478
      2 N1         -1.0790    6.4312   -5.2371 N.ar      1 <0>        -0.5756
      3 C2         -0.7281    5.2897   -5.8201 C.ar      1 <0>         0.4485
      4 C3         -0.3680    4.2038   -5.0037 C.ar      1 <0>        -0.0720
      5 C4         -0.4037    4.3810   -3.6105 C.ar      1 <0>         0.2985
      6 N2         -0.7623    5.5626   -3.1186 N.ar      1 <0>        -0.5355
      7 N3         -0.0080    3.1850   -3.0669 N.pl3     1 <0>        -0.4622
      8 C5          0.2430    2.3303   -4.0987 C.2       1 <0>         0.2536
      9 N4          0.0312    2.9300   -5.2342 N.2       1 <0>        -0.4510
     10 C6          0.1159    2.8805   -1.6393 C.3       1 <0>         0.1477
     11 H1         -0.2026    3.7302   -1.0355 H         1 <0>         0.1298
     12 C7          1.5683    2.4720   -1.2892 C.3       1 <0>        -0.1238
     13 C8          1.4256    1.6325   -0.0028 C.3       1 <0>        -0.0844
     14 H2          1.5932    2.2597    0.8728 H         1 <0>         0.1055
     15 C9         -0.0127    1.0858    0.0080 C.3       1 <0>         0.0838
     16 H3          0.0021   -0.0041    0.0020 H         1 <0>         0.0746
     17 C10        -0.6938    1.6121   -1.2722 C.3       1 <0>         0.0569
     18 H4         -0.6280    0.8731   -2.0707 H         1 <0>         0.0770
     19 O1         -2.0581    1.9478   -1.0110 O.3       1 <0>        -0.5446
     20 O2         -0.7077    1.5592    1.1634 O.3       1 <0>        -0.5433
     21 C11         2.4261    0.4751   -0.0186 C.3       1 <0>         0.0825
     22 O3          2.3423   -0.2438    1.2136 O.3       1 <0>        -0.5685
     23 N5         -0.7181    5.1728   -7.1990 N.pl3     1 <0>        -0.7437
     24 H5         -1.3836    7.4974   -3.4895 H         1 <0>         0.2066
     25 H6          0.5697    1.3067   -3.9900 H         1 <0>         0.2207
     26 H7          2.1786    3.3556   -1.1023 H         1 <0>         0.0936
     27 H8          1.9995    1.8719   -2.0904 H         1 <0>         0.0855
     28 H9         -2.5983    1.2004   -0.7202 H         1 <0>         0.3815
     29 H10        -1.6244    1.2573    1.2221 H         1 <0>         0.3782
     30 H11         2.1939   -0.1946   -0.8466 H         1 <0>         0.0496
     31 H12         3.4351    0.8687   -0.1416 H         1 <0>         0.0559
     32 H13         2.9502   -0.9934    1.2737 H         1 <0>         0.3837
     33 H14         0.2051    4.9436   -7.5074 H         1 <0>         0.3694
     34 H15        -0.9687    5.9295   -7.7517 H         1 <0>         0.3737
@<TRIPOS>BOND
     1    1    6 ar
     2    1    2 ar
     3    1   24 1
     4    2    3 ar
     5    3    4 ar
     6    3   23 1
     7    4    9 1
     8    4    5 ar
     9    5    6 ar
    10    5    7 1
    11    7    8 1
    12    7   10 1
    13    8    9 2
    14    8   25 1
    15   10   11 1
    16   10   17 1
    17   10   12 1
    18   12   13 1
    19   12   26 1
    20   12   27 1
    21   13   14 1
    22   13   15 1
    23   13   21 1
    24   15   16 1
    25   15   17 1
    26   15   20 1
    27   17   18 1
    28   17   19 1
    29   19   28 1
    30   20   29 1
    31   21   22 1
    32   21   30 1
    33   21   31 1
    34   22   32 1
    35   23   33 1
    36   23   34 1
@<TRIPOS>MOLECULE
ZINC03832328
   32    34     0     0     0
SMALL
USER_CHARGES

@<TRIPOS>ATOM
      1 C1          3.5413   -5.7055   -0.3885 C.ar      1 <0>         0.3474
      2 N1          4.1456   -6.0699    0.7279 N.ar      1 <0>        -0.5753
      3 C2          3.9275   -5.4267    1.8701 C.ar      1 <0>         0.4481
      4 C3          3.0338   -4.3419    1.8677 C.ar      1 <0>        -0.0708
      5 C4          2.4166   -3.9939    0.6546 C.ar      1 <0>         0.2969
      6 N2          2.6978   -4.6963   -0.4382 N.ar      1 <0>        -0.5346
      7 N3          1.6095   -2.9205    0.9352 N.pl3     1 <0>        -0.4642
      8 C5          1.7479   -2.6410    2.2621 C.2       1 <0>         0.2591
      9 N4          2.5801   -3.4793    2.8084 N.2       1 <0>        -0.4517
     10 C6          0.7596   -2.2025   -0.0179 C.3       1 <0>         0.1660
     11 H1          0.8809   -2.6150   -1.0195 H         1 <0>         0.1357
     12 C7          1.0882   -0.7276   -0.0179 C.2       1 <0>        -0.1218
     13 C8          0.0021   -0.0041    0.0020 C.2       1 <0>        -0.1654
     14 C9         -1.2322   -0.8757    0.0091 C.3       1 <0>         0.1065
     15 H2         -1.9547   -0.5049    0.7362 H         1 <0>         0.0778
     16 C10        -0.7218   -2.2765    0.4194 C.3       1 <0>         0.1061
     17 H3         -0.8051   -2.4234    1.4962 H         1 <0>         0.0908
     18 O1         -1.4164   -3.3038   -0.2908 O.3       1 <0>        -0.5346
     19 O2         -1.8172   -0.9209   -1.2939 O.3       1 <0>        -0.5384
     20 C11        -0.0184    1.5028    0.0103 C.3       1 <0>         0.1256
     21 O3          1.3223    1.9974    0.0002 O.3       1 <0>        -0.5693
     22 N5          4.5658   -5.8157    3.0347 N.pl3     1 <0>        -0.7438
     23 H4          3.7476   -6.2556   -1.2947 H         1 <0>         0.2067
     24 H5          1.2401   -1.8432    2.7836 H         1 <0>         0.2214
     25 H6          2.0903   -0.3251   -0.0306 H         1 <0>         0.1491
     26 H7         -2.3686   -3.3227   -0.1236 H         1 <0>         0.3887
     27 H8         -2.1101   -0.0603   -1.6236 H         1 <0>         0.3834
     28 H9         -0.5455    1.8639   -0.8728 H         1 <0>         0.0626
     29 H10        -0.5286    1.8543    0.9071 H         1 <0>         0.0660
     30 H11         1.3855    2.9623    0.0047 H         1 <0>         0.3895
     31 H12         5.1170   -5.0571    3.3821 H         1 <0>         0.3694
     32 H13         5.1804   -6.5660    3.0236 H         1 <0>         0.3735
@<TRIPOS>BOND
     1    1    6 ar
     2    1    2 ar
     3    1   23 1
     4    2    3 ar
     5    3    4 ar
     6    3   22 1
     7    4    9 1
     8    4    5 ar
     9    5    6 ar
    10    5    7 1
    11    7    8 1
    12    7   10 1
    13    8    9 2
    14    8   24 1
    15   10   11 1
    16   10   16 1
    17   10   12 1
    18   12   13 2
    19   12   25 1
    20   13   14 1
    21   13   20 1
    22   14   15 1
    23   14   16 1
    24   14   19 1
    25   16   17 1
    26   16   18 1
    27   18   26 1
    28   19   27 1
    29   20   21 1
    30   20   28 1
    31   20   29 1
    32   21   30 1
    33   22   31 1
    34   22   32 1
@<TRIPOS>MOLECULE
ZINC03832329
   31    33     0     0     0
SMALL
USER_CHARGES

@<TRIPOS>ATOM
      1 C1          1.2407    1.8391    0.0001 C.2       1 <0>        -0.1592
      2 C2         -0.0165    1.3668    0.0096 C.2       1 <0>         0.0333
      3 N1          0.0021   -0.0041    0.0020 N.pl3     1 <0>        -0.4532
      4 C3          1.2933   -0.4549   -0.0127 C.ar      1 <0>         0.3487
      5 C4          2.1283    0.6779   -0.0146 C.ar      1 <0>        -0.2695
      6 C5          3.5185    0.4892   -0.0289 C.ar      1 <0>         0.4916
      7 N2          3.9863   -0.7557   -0.0401 N.ar      1 <0>        -0.6036
      8 C6          3.1664   -1.7912   -0.0378 C.ar      1 <0>         0.3630
      9 N3          1.8573   -1.6615   -0.0242 N.ar      1 <0>        -0.5690
     10 N4          4.3809    1.5707   -0.0318 N.pl3     1 <0>        -0.8285
     11 C7         -1.1866   -0.8604    0.0088 C.3       1 <0>         0.1385
     12 H1         -0.8912   -1.9090   -0.0250 H         1 <0>         0.1259
     13 C8         -2.0866   -0.5247   -1.1984 C.3       1 <0>        -0.1287
     14 C9         -3.5277   -0.6673   -0.6490 C.3       1 <0>        -0.1526
     15 C10        -3.4043   -0.0981    0.7862 C.3       1 <0>         0.0679
     16 H2         -3.4370    0.9913    0.7686 H         1 <0>         0.0713
     17 C11        -2.0245   -0.5891    1.2706 C.3       1 <0>         0.1033
     18 H3         -1.5467    0.1796    1.8779 H         1 <0>         0.0695
     19 O1         -2.1703   -1.7914    2.0291 O.3       1 <0>        -0.5460
     20 O2         -4.4413   -0.6174    1.6210 O.3       1 <0>        -0.5583
     21 H4          1.5385    2.8772    0.0028 H         1 <0>         0.1510
     22 H5         -0.9085    1.9757    0.0172 H         1 <0>         0.1741
     23 H6          3.5880   -2.7854   -0.0472 H         1 <0>         0.1994
     24 H7          4.0265    2.4736   -0.0239 H         1 <0>         0.4119
     25 H8          5.3400    1.4262   -0.0417 H         1 <0>         0.4092
     26 H9         -1.9064    0.4958   -1.5364 H         1 <0>         0.0819
     27 H10        -1.9159   -1.2321   -2.0099 H         1 <0>         0.0863
     28 H11        -3.8300   -1.7143   -0.6247 H         1 <0>         0.0870
     29 H12        -4.2293   -0.0779   -1.2394 H         1 <0>         0.0790
     30 H13        -2.6895   -1.6855    2.8380 H         1 <0>         0.3896
     31 H14        -5.3308   -0.3402    1.3619 H         1 <0>         0.3863
@<TRIPOS>BOND
     1    1    5 1
     2    1    2 2
     3    1   21 1
     4    2    3 1
     5    2   22 1
     6    3    4 1
     7    3   11 1
     8    4    9 ar
     9    4    5 ar
    10    5    6 ar
    11    6    7 ar
    12    6   10 1
    13    7    8 ar
    14    8    9 ar
    15    8   23 1
    16   10   24 1
    17   10   25 1
    18   11   12 1
    19   11   17 1
    20   11   13 1
    21   13   14 1
    22   13   26 1
    23   13   27 1
    24   14   15 1
    25   14   28 1
    26   14   29 1
    27   15   16 1
    28   15   17 1
    29   15   20 1
    30   17   18 1
    31   17   19 1
    32   19   30 1
    33   20   31 1
@<TRIPOS>MOLECULE
ZINC03832330
   34    36     0     0     0
SMALL
USER_CHARGES

@<TRIPOS>ATOM
      1 C1         -0.2774   -0.9906    2.5886 C.1       1 <0>        -0.1417
      2 C2          0.7897   -0.6584    2.2291 C.1       1 <0>        -0.2427
      3 C3          2.1276   -0.2420    1.7784 C.3       1 <0>         0.2725
      4 H1          2.8200   -0.2717    2.6197 H         1 <0>         0.1318
      5 C4          2.0598    1.1612    1.2329 C.2       1 <0>        -0.1689
      6 C5          2.6618    2.1900    1.7647 C.2       1 <0>        -0.1293
      7 C6          2.3902    3.4483    0.9734 C.3       1 <0>         0.1648
      8 H2          2.1530    4.2745    1.6435 H         1 <0>         0.1357
      9 C7          1.1698    3.1010    0.0895 C.3       1 <0>         0.1116
     10 H3          1.2571    3.5592   -0.8956 H         1 <0>         0.0858
     11 C8          1.2864    1.5618   -0.0018 C.3       1 <0>         0.0948
     12 H4          1.8306    1.2732   -0.9011 H         1 <0>         0.0834
     13 O1         -0.0110    0.9628    0.0073 O.3       1 <0>        -0.5437
     14 O2         -0.0505    3.4861    0.7257 O.3       1 <0>        -0.5362
     15 N1          3.5457    3.7853    0.1383 N.pl3     1 <0>        -0.4630
     16 C9          4.1054    2.9951   -0.8211 C.2       1 <0>         0.2579
     17 N2          5.1161    3.6068   -1.3671 N.2       1 <0>        -0.4468
     18 C10         5.2688    4.8250   -0.7944 C.ar      1 <0>        -0.0709
     19 C11         4.2593    4.9566    0.1743 C.ar      1 <0>         0.2969
     20 N3          4.1858    6.0789    0.8821 N.ar      1 <0>        -0.5374
     21 C12         5.0428    7.0574    0.6794 C.ar      1 <0>         0.3505
     22 N4          6.0057    6.9811   -0.2210 N.ar      1 <0>        -0.5743
     23 C13         6.1630    5.8945   -0.9701 C.ar      1 <0>         0.4504
     24 N5          7.1738    5.8247   -1.9128 N.pl3     1 <0>        -0.7427
     25 O3          2.5831   -1.1293    0.7550 O.3       1 <0>        -0.5359
     26 H5         -1.2318   -1.2876    2.9101 H         1 <0>         0.2220
     27 H6          3.2739    2.1475    2.6535 H         1 <0>         0.1474
     28 H7          0.0021   -0.0041    0.0020 H         1 <0>         0.3821
     29 H8         -0.8461    3.1997    0.2565 H         1 <0>         0.3967
     30 H9          3.7608    2.0072   -1.0890 H         1 <0>         0.2189
     31 H10         4.9550    7.9563    1.2716 H         1 <0>         0.2079
     32 H11         7.7718    5.0510   -1.7037 H         1 <0>         0.3705
     33 H12         7.7849    6.5696   -2.0247 H         1 <0>         0.3745
     34 H13         2.0137   -1.1541   -0.0262 H         1 <0>         0.3773
@<TRIPOS>BOND
     1    1    2 3
     2    1   26 1
     3    2    3 1
     4    3    4 1
     5    3    5 1
     6    3   25 1
     7    5   11 1
     8    5    6 2
     9    6    7 1
    10    6   27 1
    11    7    8 1
    12    7    9 1
    13    7   15 1
    14    9   10 1
    15    9   11 1
    16    9   14 1
    17   11   12 1
    18   11   13 1
    19   13   28 1
    20   14   29 1
    21   15   19 1
    22   15   16 1
    23   16   17 2
    24   16   30 1
    25   17   18 1
    26   18   23 ar
    27   18   19 ar
    28   19   20 ar
    29   20   21 ar
    30   21   22 ar
    31   21   31 1
    32   22   23 ar
    33   23   24 1
    34   24   32 1
    35   24   33 1
    36   25   34 1
@<TRIPOS>MOLECULE
ZINC03832331
   36    38     0     0     0
SMALL
USER_CHARGES

@<TRIPOS>ATOM
      1 C1          4.2665    2.3600   -1.2823 C.2       1 <0>        -0.1699
      2 C2          3.1348    1.7005   -1.3053 C.2       1 <0>        -0.2045
      3 C3          2.4667    1.3053   -0.0135 C.3       1 <0>         0.1839
      4 H1          2.4526    0.2186    0.0706 H         1 <0>         0.1211
      5 C4          1.0536    1.8287    0.0018 C.2       1 <0>        -0.1764
      6 C5         -0.0126    1.0758    0.0080 C.2       1 <0>        -0.1291
      7 C6         -1.2701    1.9135    0.0179 C.3       1 <0>         0.1695
      8 H2         -1.7120    1.9469   -0.9779 H         1 <0>         0.1372
      9 C7         -0.7980    3.3231    0.4498 C.3       1 <0>         0.1067
     10 H3         -0.8855    3.4565    1.5281 H         1 <0>         0.0913
     11 C8          0.6850    3.2940    0.0127 C.3       1 <0>         0.1016
     12 H4          1.3027    3.8357    0.7290 H         1 <0>         0.0745
     13 O1          0.8298    3.8535   -1.2943 O.3       1 <0>        -0.5361
     14 O2         -1.5193    4.3389   -0.2501 O.3       1 <0>        -0.5350
     15 N1         -2.2311    1.3799    0.9863 N.pl3     1 <0>        -0.4654
     16 C9         -2.0200    1.2097    2.3223 C.2       1 <0>         0.2585
     17 N2         -3.0868    0.7173    2.8818 N.2       1 <0>        -0.4505
     18 C10        -4.0442    0.5313    1.9416 C.ar      1 <0>        -0.0709
     19 C11        -3.5067    0.9542    0.7140 C.ar      1 <0>         0.2969
     20 N3         -4.2555    0.8740   -0.3809 N.ar      1 <0>        -0.5356
     21 C12        -5.4840    0.4048   -0.3207 C.ar      1 <0>         0.3481
     22 N4         -6.0318   -0.0043    0.8090 N.ar      1 <0>        -0.5751
     23 C13        -5.3600    0.0384    1.9549 C.ar      1 <0>         0.4485
     24 N5         -5.9425   -0.3929    3.1337 N.pl3     1 <0>        -0.7436
     25 O3          3.1917    1.8588    1.0865 O.3       1 <0>        -0.5452
     26 H5          4.7206    2.6205   -0.3377 H         1 <0>         0.1077
     27 H6          4.7452    2.6433   -2.2081 H         1 <0>         0.1065
     28 H7          2.6806    1.4401   -2.2499 H         1 <0>         0.1221
     29 H8          0.0021   -0.0041    0.0020 H         1 <0>         0.1454
     30 H9          1.7319    3.8162   -1.6404 H         1 <0>         0.3809
     31 H10        -1.1913    5.2346   -0.0912 H         1 <0>         0.3891
     32 H11        -1.1036    1.4509    2.8404 H         1 <0>         0.2221
     33 H12        -6.0656    0.3527   -1.2292 H         1 <0>         0.2068
     34 H13        -5.4061   -1.1461    3.5145 H         1 <0>         0.3697
     35 H14        -6.8517   -0.7311    3.1301 H         1 <0>         0.3738
     36 H15         3.2449    2.8243    1.0765 H         1 <0>         0.3754
@<TRIPOS>BOND
     1    1    2 2
     2    1   26 1
     3    1   27 1
     4    2    3 1
     5    2   28 1
     6    3    4 1
     7    3    5 1
     8    3   25 1
     9    5   11 1
    10    5    6 2
    11    6    7 1
    12    6   29 1
    13    7    8 1
    14    7    9 1
    15    7   15 1
    16    9   10 1
    17    9   11 1
    18    9   14 1
    19   11   12 1
    20   11   13 1
    21   13   30 1
    22   14   31 1
    23   15   19 1
    24   15   16 1
    25   16   17 2
    26   16   32 1
    27   17   18 1
    28   18   23 ar
    29   18   19 ar
    30   19   20 ar
    31   20   21 ar
    32   21   22 ar
    33   21   33 1
    34   22   23 ar
    35   23   24 1
    36   24   34 1
    37   24   35 1
    38   25   36 1
@<TRIPOS>MOLECULE
ZINC03832332
   38    40     0     0     0
SMALL
USER_CHARGES

@<TRIPOS>ATOM
      1 C1          1.3292    1.6819   -2.4971 C.3       1 <0>        -0.1510
      2 C2          2.0397    1.1274   -1.2607 C.3       1 <0>        -0.1546
      3 C3          1.2864    1.5618   -0.0018 C.3       1 <0>         0.1551
      4 H1          1.1856    2.6471    0.0050 H         1 <0>         0.1122
      5 C4          2.0519    1.1207    1.2190 C.2       1 <0>        -0.1818
      6 C5          2.5996    1.9339    2.0807 C.2       1 <0>        -0.1305
      7 C6          3.2880    1.1701    3.1880 C.3       1 <0>         0.1687
      8 H2          4.3663    1.1665    3.0286 H         1 <0>         0.1362
      9 C7          2.7236   -0.2660    3.0866 C.3       1 <0>         0.1069
     10 H3          1.8676   -0.3976    3.7485 H         1 <0>         0.0905
     11 C8          2.2917   -0.3209    1.6029 C.3       1 <0>         0.1002
     12 H4          1.3746   -0.9001    1.4955 H         1 <0>         0.0755
     13 O1          3.3332   -0.8827    0.8017 O.3       1 <0>        -0.5373
     14 O2          3.7363   -1.2358    3.3624 O.3       1 <0>        -0.5348
     15 N1          2.9657    1.7543    4.4922 N.pl3     1 <0>        -0.4653
     16 C9          1.7164    1.9628    4.9961 C.2       1 <0>         0.2586
     17 N2          1.7979    2.4948    6.1810 N.2       1 <0>        -0.4507
     18 C10         3.1009    2.6702    6.5078 C.ar      1 <0>        -0.0711
     19 C11         3.8658    2.1972    5.4281 C.ar      1 <0>         0.2971
     20 N3          5.1914    2.2576    5.5002 N.ar      1 <0>        -0.5352
     21 C12         5.7835    2.7538    6.5662 C.ar      1 <0>         0.3479
     22 N4          5.1074    3.2101    7.6046 N.ar      1 <0>        -0.5750
     23 C13         3.7786    3.1903    7.6234 C.ar      1 <0>         0.4484
     24 N5          3.0787    3.6712    8.7161 N.pl3     1 <0>        -0.7436
     25 O3         -0.0110    0.9628    0.0073 O.3       1 <0>        -0.5474
     26 H5          1.8659    1.3724   -3.3939 H         1 <0>         0.0585
     27 H6          0.3097    1.2978   -2.5330 H         1 <0>         0.0632
     28 H7          1.3058    2.7704   -2.4451 H         1 <0>         0.0570
     29 H8          3.0592    1.5115   -1.2247 H         1 <0>         0.0784
     30 H9          2.0631    0.0389   -1.3127 H         1 <0>         0.0643
     31 H10         2.5636    3.0111    2.0124 H         1 <0>         0.1450
     32 H11         3.1372   -0.8963   -0.1451 H         1 <0>         0.3795
     33 H12         3.4567   -2.1495    3.2141 H         1 <0>         0.3889
     34 H13         0.7948    1.7195    4.4882 H         1 <0>         0.2221
     35 H14         6.8626    2.7887    6.5925 H         1 <0>         0.2068
     36 H15         2.4880    4.4250    8.4282 H         1 <0>         0.3697
     37 H16         3.5580    4.0278    9.4804 H         1 <0>         0.3738
     38 H17         0.0021   -0.0041    0.0020 H         1 <0>         0.3739
@<TRIPOS>BOND
     1    1    2 1
     2    1   26 1
     3    1   27 1
     4    1   28 1
     5    2    3 1
     6    2   29 1
     7    2   30 1
     8    3    4 1
     9    3    5 1
    10    3   25 1
    11    5   11 1
    12    5    6 2
    13    6    7 1
    14    6   31 1
    15    7    8 1
    16    7    9 1
    17    7   15 1
    18    9   10 1
    19    9   11 1
    20    9   14 1
    21   11   12 1
    22   11   13 1
    23   13   32 1
    24   14   33 1
    25   15   19 1
    26   15   16 1
    27   16   17 2
    28   16   34 1
    29   17   18 1
    30   18   23 ar
    31   18   19 ar
    32   19   20 ar
    33   20   21 ar
    34   21   22 ar
    35   21   35 1
    36   22   23 ar
    37   23   24 1
    38   24   36 1
    39   24   37 1
    40   25   38 1
@<TRIPOS>MOLECULE
ZINC03832333
   34    36     0     0     0
SMALL
USER_CHARGES

@<TRIPOS>ATOM
      1 C1         -0.7241    3.7296    1.4608 C.1       1 <0>        -0.1423
      2 C2         -0.3896    2.8755    0.7281 C.1       1 <0>        -0.2410
      3 C3          0.0298    1.8046   -0.1907 C.3       1 <0>         0.2733
      4 H1         -0.1024    0.8374    0.2942 H         1 <0>         0.1311
      5 C4         -0.8092    1.8585   -1.4413 C.2       1 <0>        -0.1654
      6 C5         -0.3689    2.2377   -2.6101 C.2       1 <0>        -0.1392
      7 C6         -1.4632    2.1755   -3.6502 C.3       1 <0>         0.1668
      8 H2         -1.4544    3.0755   -4.2650 H         1 <0>         0.1343
      9 C7         -2.7750    2.0892   -2.8359 C.3       1 <0>         0.1101
     10 H3         -3.4942    1.4295   -3.3214 H         1 <0>         0.0851
     11 C8         -2.2691    1.4744   -1.5084 C.3       1 <0>         0.1002
     12 H4         -2.3760    0.3898   -1.5242 H         1 <0>         0.0830
     13 O1         -2.9813    2.0299   -0.4010 O.3       1 <0>        -0.5431
     14 O2         -3.3344    3.3872   -2.6255 O.3       1 <0>        -0.5352
     15 N1         -1.3035    0.9846   -4.4883 N.pl3     1 <0>        -0.4626
     16 C9         -1.2859   -0.3086   -4.0573 C.2       1 <0>         0.2578
     17 N2         -1.1268   -1.1122   -5.0686 N.2       1 <0>        -0.4474
     18 C10        -1.0326   -0.3879   -6.2096 C.ar      1 <0>        -0.0705
     19 C11        -1.1503    0.9659   -5.8516 C.ar      1 <0>         0.2968
     20 N3         -1.0837    1.8932   -6.8012 N.ar      1 <0>        -0.5372
     21 C12        -0.9202    1.5518   -8.0620 C.ar      1 <0>         0.3501
     22 N4         -0.8100    0.2935   -8.4471 N.ar      1 <0>        -0.5744
     23 C13        -0.8593   -0.7022   -7.5681 C.ar      1 <0>         0.4504
     24 N5         -0.7424   -2.0178   -7.9811 N.pl3     1 <0>        -0.7433
     25 O3          1.4060    1.9819   -0.5323 O.3       1 <0>        -0.5393
     26 H5         -1.0232    4.4934    2.1162 H         1 <0>         0.2215
     27 H6          0.6446    2.5541   -2.8078 H         1 <0>         0.1454
     28 H7         -2.7116    1.6760    0.4575 H         1 <0>         0.3843
     29 H8         -4.1583    3.3830   -2.1192 H         1 <0>         0.3959
     30 H9         -1.3887   -0.6203   -3.0284 H         1 <0>         0.2183
     31 H10        -0.8743    2.3300   -8.8095 H         1 <0>         0.2078
     32 H11         0.0518   -2.4362   -7.5404 H         1 <0>         0.3705
     33 H12        -0.6231   -2.2220   -8.9219 H         1 <0>         0.3744
     34 H13         1.6126    2.8556   -0.8917 H         1 <0>         0.3839
@<TRIPOS>BOND
     1    1    2 3
     2    1   26 1
     3    2    3 1
     4    3    4 1
     5    3    5 1
     6    3   25 1
     7    5   11 1
     8    5    6 2
     9    6    7 1
    10    6   27 1
    11    7    8 1
    12    7    9 1
    13    7   15 1
    14    9   10 1
    15    9   11 1
    16    9   14 1
    17   11   12 1
    18   11   13 1
    19   13   28 1
    20   14   29 1
    21   15   19 1
    22   15   16 1
    23   16   17 2
    24   16   30 1
    25   17   18 1
    26   18   23 ar
    27   18   19 ar
    28   19   20 ar
    29   20   21 ar
    30   21   22 ar
    31   21   31 1
    32   22   23 ar
    33   23   24 1
    34   24   32 1
    35   24   33 1
    36   25   34 1
@<TRIPOS>MOLECULE
ZINC03832334
   31    33     0     0     0
SMALL
USER_CHARGES

@<TRIPOS>ATOM
      1 C1         -2.8441    8.4664   -0.2265 C.ar      1 <0>         0.3992
      2 N1         -3.4499    8.7649    0.9091 N.ar      1 <0>        -0.5981
      3 C2         -3.1558    8.1267    2.0355 C.ar      1 <0>         0.5401
      4 C3         -2.1753    7.1141    1.9982 C.ar      1 <0>        -0.1711
      5 C4         -1.5615    6.8360    0.7647 C.ar      1 <0>         0.3443
      6 N2         -1.9238    7.5305   -0.3109 N.ar      1 <0>        -0.5628
      7 N3         -0.6670    5.8307    1.0053 N.pl3     1 <0>        -0.3719
      8 N4         -0.7663    5.5235    2.3708 N.2       1 <0>        -0.0059
      9 N5         -1.6450    6.2896    2.9175 N.2       1 <0>        -0.1834
     10 C5          0.2183    5.1940    0.0270 C.3       1 <0>         0.1901
     11 H1          0.0453    5.6057   -0.9673 H         1 <0>         0.1416
     12 C6          0.0070    3.6979    0.0162 C.2       1 <0>        -0.1151
     13 C7          1.1470    3.0623    0.0076 C.2       1 <0>        -0.1637
     14 C8          2.3086    4.0286    0.0017 C.3       1 <0>         0.1084
     15 H2          3.0712    3.7100    0.7123 H         1 <0>         0.0782
     16 C9          1.6975    5.3806    0.4374 C.3       1 <0>         0.1076
     17 H3          1.7898    5.5228    1.5141 H         1 <0>         0.0952
     18 O1          2.2943    6.4665   -0.2744 O.3       1 <0>        -0.5371
     19 O2          2.8644    4.1309   -1.3109 O.3       1 <0>        -0.5393
     20 C10         1.2864    1.5618   -0.0018 C.3       1 <0>         0.1271
     21 O3         -0.0110    0.9628    0.0073 O.3       1 <0>        -0.5689
     22 N6         -3.7962    8.4471    3.2172 N.pl3     1 <0>        -0.8040
     23 H4         -3.1149    9.0110   -1.1189 H         1 <0>         0.2139
     24 H5         -0.9603    3.2175    0.0176 H         1 <0>         0.1477
     25 H6          3.2452    6.5592   -0.1254 H         1 <0>         0.3891
     26 H7          3.2182    3.2990   -1.6541 H         1 <0>         0.3832
     27 H8          1.8401    1.2428    0.8812 H         1 <0>         0.0658
     28 H9          1.8231    1.2523   -0.8987 H         1 <0>         0.0624
     29 H10         0.0021   -0.0041    0.0020 H         1 <0>         0.3886
     30 H11        -3.5729    7.9734    4.0338 H         1 <0>         0.4221
     31 H12        -4.4690    9.1457    3.2303 H         1 <0>         0.4167
@<TRIPOS>BOND
     1    1    6 ar
     2    1    2 ar
     3    1   23 1
     4    2    3 ar
     5    3    4 ar
     6    3   22 1
     7    4    9 1
     8    4    5 ar
     9    5    6 ar
    10    5    7 1
    11    7    8 1
    12    7   10 1
    13    8    9 2
    14   10   11 1
    15   10   16 1
    16   10   12 1
    17   12   13 2
    18   12   24 1
    19   13   14 1
    20   13   20 1
    21   14   15 1
    22   14   16 1
    23   14   19 1
    24   16   17 1
    25   16   18 1
    26   18   25 1
    27   19   26 1
    28   20   21 1
    29   20   27 1
    30   20   28 1
    31   21   29 1
    32   22   30 1
    33   22   31 1
@<TRIPOS>MOLECULE
ZINC03832336
   32    34     0     0     0
SMALL
USER_CHARGES

@<TRIPOS>ATOM
      1 C1          0.0020   -0.0040   -0.0011 C.ar      1 <0>         0.3550
      2 N1         -0.0159    1.3166    0.0066 N.ar      1 <0>        -0.5472
      3 C2          1.1114    2.0201    0.0008 C.ar      1 <0>         0.4602
      4 C3          2.3337    1.3264   -0.0137 C.ar      1 <0>        -0.1028
      5 C4          2.2991   -0.0780   -0.0214 C.ar      1 <0>         0.3023
      6 N2          1.1220   -0.6953   -0.0147 N.ar      1 <0>        -0.5381
      7 N3          3.6082   -0.4886   -0.0350 N.pl3     1 <0>        -0.4856
      8 C5          4.3873    0.6301   -0.0354 C.2       1 <0>         0.2573
      9 N4          3.6376    1.6938   -0.0229 N.2       1 <0>        -0.4570
     10 C6          4.0819   -1.8748   -0.0474 C.3       1 <0>         0.3035
     11 H1          3.4950   -2.4818    0.6419 H         1 <0>         0.1553
     12 C7          4.0044   -2.4569   -1.4763 C.3       1 <0>         0.0888
     13 H2          3.2625   -1.9201   -2.0676 H         1 <0>         0.0873
     14 C8          5.4208   -2.2314   -2.0508 C.3       1 <0>         0.0491
     15 H3          5.3792   -1.5833   -2.9262 H         1 <0>         0.0863
     16 C9          6.1866   -1.5399   -0.9012 C.3       1 <0>         0.0709
     17 H4          6.1569   -0.4571   -1.0229 H         1 <0>         0.0893
     18 O1          5.4831   -1.9305    0.2982 O.3       1 <0>        -0.3234
     19 C10         7.6134   -2.0229   -0.8561 C.2       1 <0>        -0.2166
     20 C11         8.6003   -1.1695   -1.0035 C.2       1 <0>         0.0602
     21 F1          9.8794   -1.6025   -0.9631 F         1 <0>        -0.1412
     22 O2          6.0311   -3.4802   -2.3826 O.3       1 <0>        -0.5352
     23 O3          3.6979   -3.8519   -1.4327 O.3       1 <0>        -0.5286
     24 N5          1.0826    3.4037    0.0085 N.pl3     1 <0>        -0.7496
     25 H5         -0.9375   -0.5366    0.0037 H         1 <0>         0.2123
     26 H6          5.4672    0.6331   -0.0447 H         1 <0>         0.2229
     27 H7          7.8241   -3.0709   -0.7025 H         1 <0>         0.1422
     28 H8          8.3896   -0.1215   -1.1571 H         1 <0>         0.1487
     29 H9          6.9226   -3.3975   -2.7480 H         1 <0>         0.3858
     30 H10         3.6370   -4.2686   -2.3032 H         1 <0>         0.3951
     31 H11         0.5975    3.7315   -0.8022 H         1 <0>         0.3688
     32 H12         1.9123    3.9061    0.0042 H         1 <0>         0.3839
@<TRIPOS>BOND
     1    1    6 ar
     2    1    2 ar
     3    1   25 1
     4    2    3 ar
     5    3    4 ar
     6    3   24 1
     7    4    9 1
     8    4    5 ar
     9    5    6 ar
    10    5    7 1
    11    7    8 1
    12    7   10 1
    13    8    9 2
    14    8   26 1
    15   10   11 1
    16   10   18 1
    17   10   12 1
    18   12   13 1
    19   12   14 1
    20   12   23 1
    21   14   15 1
    22   14   16 1
    23   14   22 1
    24   16   17 1
    25   16   18 1
    26   16   19 1
    27   19   20 2
    28   19   27 1
    29   20   21 1
    30   20   28 1
    31   22   29 1
    32   23   30 1
    33   24   31 1
    34   24   32 1
@<TRIPOS>MOLECULE
ZINC03832338
   32    34     0     0     0
SMALL
USER_CHARGES

@<TRIPOS>ATOM
      1 C1         -1.7223    3.8234   -3.2979 C.ar      1 <0>         0.3478
      2 N1         -1.2074    4.3742   -4.3823 N.ar      1 <0>        -0.5732
      3 C2          0.0830    4.6841   -4.4504 C.ar      1 <0>         0.4482
      4 C3          0.8966    4.4123   -3.3371 C.ar      1 <0>        -0.0675
      5 C4          0.3011    3.8258   -2.2079 C.ar      1 <0>         0.3024
      6 N2         -0.9992    3.5512   -2.2324 N.ar      1 <0>        -0.5266
      7 N3          1.3062    3.6730   -1.2866 N.pl3     1 <0>        -0.4740
      8 C5          2.4510    4.1562   -1.8469 C.2       1 <0>         0.2712
      9 N4          2.2098    4.5840   -3.0521 N.2       1 <0>        -0.4522
     10 C6          1.1723    3.1013    0.0556 C.3       1 <0>         0.3186
     11 H1          0.2209    3.3950    0.4992 H         1 <0>         0.1263
     12 C7          1.2864    1.5618   -0.0018 C.3       1 <0>         0.0775
     13 H2          1.8424    1.2528   -0.8870 H         1 <0>         0.0853
     14 C8          2.0627    1.1915    1.2817 C.3       1 <0>         0.0504
     15 H3          3.0036    0.7016    1.0311 H         1 <0>         0.0894
     16 C9          2.3237    2.5556    1.9654 C.3       1 <0>         0.0987
     17 H4          1.5498    2.7656    2.7036 H         1 <0>         0.1083
     18 O1          2.2711    3.5217    0.8931 O.3       1 <0>        -0.3604
     19 C10         3.6844    2.5642    2.6131 C.2       1 <0>        -0.2299
     20 C11         4.5724    3.4659    2.2631 C.2       1 <0>         0.0602
     21 F1          5.7922    3.4736    2.8438 F         1 <0>        -0.1473
     22 O2          1.2684    0.3526    2.1228 O.3       1 <0>        -0.5401
     23 O3         -0.0110    0.9628    0.0073 O.3       1 <0>        -0.5268
     24 N5          0.6135    5.2605   -5.5912 N.pl3     1 <0>        -0.7434
     25 H5         -2.7762    3.5876   -3.2850 H         1 <0>         0.2078
     26 H6          3.4164    4.1782   -1.3631 H         1 <0>         0.2257
     27 H7          3.9291    1.8287    3.3651 H         1 <0>         0.1425
     28 H8          4.3276    4.2014    1.5111 H         1 <0>         0.1550
     29 H9          1.7074    0.0897    2.9434 H         1 <0>         0.3891
     30 H10         0.0021   -0.0041    0.0020 H         1 <0>         0.3923
     31 H11         1.0044    6.1522   -5.3632 H         1 <0>         0.3702
     32 H12         0.0417    5.4432   -6.3531 H         1 <0>         0.3743
@<TRIPOS>BOND
     1    1    6 ar
     2    1    2 ar
     3    1   25 1
     4    2    3 ar
     5    3    4 ar
     6    3   24 1
     7    4    9 1
     8    4    5 ar
     9    5    6 ar
    10    5    7 1
    11    7    8 1
    12    7   10 1
    13    8    9 2
    14    8   26 1
    15   10   11 1
    16   10   18 1
    17   10   12 1
    18   12   13 1
    19   12   14 1
    20   12   23 1
    21   14   15 1
    22   14   16 1
    23   14   22 1
    24   16   17 1
    25   16   18 1
    26   16   19 1
    27   19   20 2
    28   19   27 1
    29   20   21 1
    30   20   28 1
    31   22   29 1
    32   23   30 1
    33   24   31 1
    34   24   32 1
@<TRIPOS>MOLECULE
ZINC03832339
   37    39     0     0     0
SMALL
USER_CHARGES

@<TRIPOS>ATOM
      1 C1          0.0180   -1.1779   -0.0044 C.1       1 <0>        -0.1566
      2 C2          0.0021   -0.0041    0.0020 C.1       1 <0>        -0.1921
      3 C3         -0.0179    1.4678    0.0101 C.3       1 <0>         0.0208
      4 S1         -0.8670    2.0528    1.5026 S.3       1 <0>        -0.2128
      5 C4         -0.8064    3.8603    1.3619 C.3       1 <0>        -0.0912
      6 C5         -1.4972    4.4896    2.5734 C.3       1 <0>         0.1092
      7 H1         -2.4973    4.0740    2.6973 H         1 <0>         0.1069
      8 C6         -1.5686    6.0245    2.4146 C.3       1 <0>         0.0506
      9 H2         -0.7840    6.3760    1.7446 H         1 <0>         0.0895
     10 C7         -1.3393    6.5610    3.8453 C.3       1 <0>         0.0357
     11 H3         -0.4414    7.1778    3.8826 H         1 <0>         0.0842
     12 C8         -1.1566    5.2867    4.6993 C.3       1 <0>         0.3174
     13 H4         -2.1042    4.9936    5.1511 H         1 <0>         0.1241
     14 O1         -0.7112    4.2781    3.7664 O.3       1 <0>        -0.3437
     15 N1         -0.1453    5.5081    5.7358 N.pl3     1 <0>        -0.4729
     16 C9          1.1783    5.1929    5.6518 C.2       1 <0>         0.2743
     17 N2          1.7858    5.5273    6.7531 N.2       1 <0>        -0.4537
     18 C10         0.8933    6.0769    7.6114 C.ar      1 <0>        -0.0672
     19 C11        -0.3555    6.0761    6.9669 C.ar      1 <0>         0.3016
     20 N3         -1.4131    6.5634    7.6073 N.ar      1 <0>        -0.5271
     21 C12        -1.2946    7.0504    8.8246 C.ar      1 <0>         0.3464
     22 N4         -0.1419    7.0772    9.4682 N.ar      1 <0>        -0.5732
     23 C13         0.9691    6.6073    8.9103 C.ar      1 <0>         0.4474
     24 N5          2.1725    6.6393    9.5929 N.pl3     1 <0>        -0.7436
     25 O2         -2.4767    7.3030    4.2901 O.3       1 <0>        -0.5263
     26 O3         -2.8535    6.4185    1.9291 O.3       1 <0>        -0.5363
     27 H5          0.0322   -2.2278   -0.0102 H         1 <0>         0.2251
     28 H6          1.0047    1.8451    0.0024 H         1 <0>         0.1056
     29 H7         -0.5451    1.8289   -0.8729 H         1 <0>         0.1050
     30 H8          0.2328    4.1873    1.3258 H         1 <0>         0.0972
     31 H9         -1.3170    4.1711    0.4504 H         1 <0>         0.1083
     32 H10         1.6528    4.7333    4.7974 H         1 <0>         0.2269
     33 H11        -2.1732    7.4424    9.3154 H         1 <0>         0.2072
     34 H12         2.5202    5.7077    9.6994 H         1 <0>         0.3702
     35 H13         2.2120    7.0081   10.4892 H         1 <0>         0.3740
     36 H14        -2.6736    8.0816    3.7515 H         1 <0>         0.3834
     37 H15        -2.9536    7.3730    1.8108 H         1 <0>         0.3856
@<TRIPOS>BOND
     1    1    2 3
     2    1   27 1
     3    2    3 1
     4    3    4 1
     5    3   28 1
     6    3   29 1
     7    4    5 1
     8    5    6 1
     9    5   30 1
    10    5   31 1
    11    6    7 1
    12    6   14 1
    13    6    8 1
    14    8    9 1
    15    8   10 1
    16    8   26 1
    17   10   11 1
    18   10   12 1
    19   10   25 1
    20   12   13 1
    21   12   14 1
    22   12   15 1
    23   15   19 1
    24   15   16 1
    25   16   17 2
    26   16   32 1
    27   17   18 1
    28   18   23 ar
    29   18   19 ar
    30   19   20 ar
    31   20   21 ar
    32   21   22 ar
    33   21   33 1
    34   22   23 ar
    35   23   24 1
    36   24   34 1
    37   24   35 1
    38   25   36 1
    39   26   37 1
@<TRIPOS>MOLECULE
ZINC03832340
   37    39     0     0     0
SMALL
USER_CHARGES

@<TRIPOS>ATOM
      1 C1          9.7796   -5.9713   -3.6273 C.2       1 <0>        -0.0999
      2 C2          9.3858   -5.2619   -2.6027 C.1       1 <0>        -0.1782
      3 C3          8.9920   -4.5524   -1.5781 C.2       1 <0>        -0.1299
      4 S1          8.0616   -3.0779   -1.8328 S.3       1 <0>        -0.0911
      5 C4          7.8189   -2.5588   -0.1159 C.3       1 <0>        -0.1107
      6 C5          7.0112   -1.2598   -0.0852 C.3       1 <0>         0.1062
      7 H1          7.5020   -0.4925   -0.6840 H         1 <0>         0.1073
      8 C6          6.8309   -0.7729    1.3697 C.3       1 <0>         0.0514
      9 H2          6.9168   -1.6078    2.0652 H         1 <0>         0.0894
     10 C7          5.3990   -0.1883    1.3962 C.3       1 <0>         0.0364
     11 H3          4.7771   -0.7341    2.1056 H         1 <0>         0.0837
     12 C8          4.8847   -0.3954   -0.0457 C.3       1 <0>         0.3168
     13 H4          5.0478    0.5039   -0.6396 H         1 <0>         0.1249
     14 O1          5.6690   -1.4907   -0.5660 O.3       1 <0>        -0.3454
     15 N1          3.4625   -0.7467   -0.0343 N.pl3     1 <0>        -0.4730
     16 C9          2.9430   -2.0071   -0.0357 C.2       1 <0>         0.2779
     17 N2          1.6428   -1.9520   -0.0234 N.2       1 <0>        -0.4649
     18 C10         1.2463   -0.6567   -0.0134 C.ar      1 <0>        -0.1014
     19 C11         2.4092    0.1323   -0.0202 C.ar      1 <0>         0.3051
     20 N3          2.2916    1.4560   -0.0130 N.ar      1 <0>        -0.5304
     21 C12         1.1042    2.0241    0.0024 C.ar      1 <0>         0.3499
     22 N4         -0.0159    1.3249    0.0093 N.ar      1 <0>        -0.5473
     23 C13         0.0021   -0.0041    0.0020 C.ar      1 <0>         0.4561
     24 N5         -1.1772   -0.7282    0.0089 N.pl3     1 <0>        -0.7502
     25 O2          5.4295    1.2028    1.7219 O.3       1 <0>        -0.5261
     26 O3          7.7912    0.2382    1.6820 O.3       1 <0>        -0.5360
     27 H5          9.1490   -6.7586   -4.0134 H         1 <0>         0.1301
     28 H6         10.7356   -5.7703   -4.0879 H         1 <0>         0.1302
     29 H7          9.2368   -4.8699   -0.5753 H         1 <0>         0.1481
     30 H8          8.7883   -2.3951    0.3547 H         1 <0>         0.1124
     31 H9          7.2787   -3.3354    0.4255 H         1 <0>         0.1001
     32 H10         3.5246   -2.9170   -0.0455 H         1 <0>         0.2269
     33 H11         1.0439    3.1024    0.0088 H         1 <0>         0.2106
     34 H12        -1.7004   -0.5052    0.8314 H         1 <0>         0.3676
     35 H13        -1.1510   -1.6978    0.0035 H         1 <0>         0.3834
     36 H14         5.7449    1.3904    2.6166 H         1 <0>         0.3843
     37 H15         7.7233    0.5799    2.5841 H         1 <0>         0.3858
@<TRIPOS>BOND
     1    1    2 2
     2    1   27 1
     3    1   28 1
     4    2    3 2
     5    3    4 1
     6    3   29 1
     7    4    5 1
     8    5    6 1
     9    5   30 1
    10    5   31 1
    11    6    7 1
    12    6   14 1
    13    6    8 1
    14    8    9 1
    15    8   10 1
    16    8   26 1
    17   10   11 1
    18   10   12 1
    19   10   25 1
    20   12   13 1
    21   12   14 1
    22   12   15 1
    23   15   19 1
    24   15   16 1
    25   16   17 2
    26   16   32 1
    27   17   18 1
    28   18   23 ar
    29   18   19 ar
    30   19   20 ar
    31   20   21 ar
    32   21   22 ar
    33   21   33 1
    34   22   23 ar
    35   23   24 1
    36   24   34 1
    37   24   35 1
    38   25   36 1
    39   26   37 1
@<TRIPOS>MOLECULE
ZINC03832341
   37    39     0     0     0
SMALL
USER_CHARGES

@<TRIPOS>ATOM
      1 C1         -2.4936    2.6010   -5.9899 C.3       1 <0>        -0.0478
      2 C2         -1.6822    2.0309   -4.9020 C.1       1 <0>        -0.1079
      3 C3         -1.0350    1.5762   -4.0344 C.1       1 <0>        -0.2350
      4 S1         -0.0544    0.8872   -2.7197 S.3       1 <0>         0.0396
      5 C4         -0.7727    1.6023   -1.2153 C.3       1 <0>        -0.1291
      6 C5         -0.0127    1.0858    0.0080 C.3       1 <0>         0.1086
      7 H1          0.0021   -0.0041    0.0020 H         1 <0>         0.1109
      8 C6         -0.6841    1.5937    1.2988 C.3       1 <0>         0.0522
      9 H2         -1.5216    2.2494    1.0606 H         1 <0>         0.0909
     10 C7          0.4337    2.3834    2.0224 C.3       1 <0>         0.0351
     11 H3          0.3482    3.4514    1.8221 H         1 <0>         0.0888
     12 C8          1.7151    1.7999    1.3745 C.3       1 <0>         0.3206
     13 H4          1.9860    0.8541    1.8439 H         1 <0>         0.1268
     14 O1          1.3323    1.5929   -0.0021 O.3       1 <0>        -0.3496
     15 N1          2.8229    2.7544    1.4641 N.pl3     1 <0>        -0.4717
     16 C9          3.1464    3.7035    0.5406 C.2       1 <0>         0.2726
     17 N2          4.1861    4.3765    0.9402 N.2       1 <0>        -0.4534
     18 C10         4.5948    3.9035    2.1421 C.ar      1 <0>        -0.0681
     19 C11         3.7214    2.8609    2.4954 C.ar      1 <0>         0.3047
     20 N3          3.9054    2.2272    3.6489 N.ar      1 <0>        -0.5268
     21 C12         4.8891    2.5705    4.4536 C.ar      1 <0>         0.3464
     22 N4          5.7327    3.5449    4.1662 N.ar      1 <0>        -0.5736
     23 C13         5.6327    4.2294    3.0313 C.ar      1 <0>         0.4471
     24 N5          6.5202    5.2505    2.7398 N.pl3     1 <0>        -0.7432
     25 O2          0.4109    2.1272    3.4281 O.3       1 <0>        -0.5267
     26 O3         -1.1201    0.4948    2.1015 O.3       1 <0>        -0.5376
     27 H5         -2.1333    2.2249   -6.9474 H         1 <0>         0.0905
     28 H6         -3.5360    2.3123   -5.8552 H         1 <0>         0.0857
     29 H7         -2.4124    3.6878   -5.9725 H         1 <0>         0.0875
     30 H8         -1.8210    1.3134   -1.1404 H         1 <0>         0.1108
     31 H9         -0.6973    2.6889   -1.2578 H         1 <0>         0.1006
     32 H10         2.6177    3.8723   -0.3859 H         1 <0>         0.2264
     33 H11         5.0106    2.0353    5.3837 H         1 <0>         0.2069
     34 H12         6.9988    5.0427    1.8867 H         1 <0>         0.3701
     35 H13         7.2327    5.4661    3.3618 H         1 <0>         0.3739
     36 H14        -0.3718    2.4732    3.8783 H         1 <0>         0.3850
     37 H15        -1.5502    0.7569    2.9269 H         1 <0>         0.3889
@<TRIPOS>BOND
     1    1    2 1
     2    1   27 1
     3    1   28 1
     4    1   29 1
     5    2    3 3
     6    3    4 1
     7    4    5 1
     8    5    6 1
     9    5   30 1
    10    5   31 1
    11    6    7 1
    12    6   14 1
    13    6    8 1
    14    8    9 1
    15    8   10 1
    16    8   26 1
    17   10   11 1
    18   10   12 1
    19   10   25 1
    20   12   13 1
    21   12   14 1
    22   12   15 1
    23   15   19 1
    24   15   16 1
    25   16   17 2
    26   16   32 1
    27   17   18 1
    28   18   23 ar
    29   18   19 ar
    30   19   20 ar
    31   20   21 ar
    32   21   22 ar
    33   21   33 1
    34   22   23 ar
    35   23   24 1
    36   24   34 1
    37   24   35 1
    38   25   36 1
    39   26   37 1
@<TRIPOS>MOLECULE
ZINC03834077
   36    38     0     0     0
SMALL
USER_CHARGES

@<TRIPOS>ATOM
      1 C1         -3.5875    3.0359    0.0351 C.ar      1 <0>        -0.1280
      2 C2         -2.3703    3.6569    0.0323 C.ar      1 <0>         0.1243
      3 C3         -1.2230    1.6437    0.0168 C.ar      1 <0>         0.5411
      4 C4         -2.4287    0.9261    0.0186 C.ar      1 <0>        -0.0386
      5 C5         -3.6373    1.6438    0.0282 C.ar      1 <0>         0.1549
      6 N1         -4.6398    0.7038    0.0278 N.pl3     1 <0>        -0.4452
      7 C6         -4.0458   -0.5226    0.0184 C.2       1 <0>         0.2780
      8 N2         -2.7512   -0.3906    0.0130 N.2       1 <0>        -0.4446
      9 C7         -6.0802    0.9707    0.0365 C.3       1 <0>         0.1334
     10 H1         -6.2727    2.0429    0.0752 H         1 <0>         0.1349
     11 C8         -6.7663    0.2428    1.2191 C.3       1 <0>        -0.1242
     12 C9         -8.2349    0.0938    0.7709 C.3       1 <0>        -0.0858
     13 H2         -8.8332    0.9104    1.1750 H         1 <0>         0.1097
     14 C10        -8.2333    0.1523   -0.7667 C.3       1 <0>         0.0832
     15 H3         -8.6305   -0.7766   -1.1760 H         1 <0>         0.0799
     16 C11        -6.7638    0.3346   -1.1993 C.3       1 <0>         0.0569
     17 H4         -6.3119   -0.6298   -1.4310 H         1 <0>         0.0807
     18 O1         -6.6789    1.2115   -2.3244 O.3       1 <0>        -0.5504
     19 O2         -9.0170    1.2594   -1.2162 O.3       1 <0>        -0.5418
     20 C12        -8.7935   -1.2498    1.2438 C.3       1 <0>         0.0812
     21 O3        -10.1766   -1.3395    0.8963 O.3       1 <0>        -0.5676
     22 N3         -0.0111    0.9658    0.0074 N.pl3     1 <0>        -0.7982
     23 H5         -4.4983    3.6163    0.0421 H         1 <0>         0.1786
     24 H6         -2.3284    4.7361    0.0380 H         1 <0>         0.1996
     25 H7         -4.5722   -1.4656    0.0158 H         1 <0>         0.2345
     26 H8         -6.3147   -0.7365    1.3779 H         1 <0>         0.0897
     27 H9         -6.7033    0.8446    2.1257 H         1 <0>         0.0999
     28 H10        -7.0913    0.8630   -3.1267 H         1 <0>         0.3917
     29 H11        -9.0378    1.3620   -2.1776 H         1 <0>         0.3816
     30 H12        -8.2450   -2.0604    0.7641 H         1 <0>         0.0495
     31 H13        -8.6848   -1.3279    2.3256 H         1 <0>         0.0576
     32 H14       -10.5971   -2.1674    1.1662 H         1 <0>         0.3886
     33 H15         0.0021   -0.0041    0.0020 H         1 <0>         0.4440
     34 H16         0.8223    1.4622    0.0021 H         1 <0>         0.4246
     35 N4         -1.1689    3.0072    0.0301 N.ar      1 <0>        -0.5472
     36 H17        -0.2767    3.5153    0.0381 H         1 <0>         0.4731
@<TRIPOS>BOND
     1    1    5 ar
     2    1    2 ar
     3    1   23 1
     4    2   24 1
     5    2   35 ar
     6    3    4 ar
     7    3   22 1
     8    3   35 ar
     9    4    8 1
    10    4    5 ar
    11    5    6 1
    12    6    7 1
    13    6    9 1
    14    7    8 2
    15    7   25 1
    16    9   10 1
    17    9   16 1
    18    9   11 1
    19   11   12 1
    20   11   26 1
    21   11   27 1
    22   12   13 1
    23   12   14 1
    24   12   20 1
    25   14   15 1
    26   14   16 1
    27   14   19 1
    28   16   17 1
    29   16   18 1
    30   18   28 1
    31   19   29 1
    32   20   21 1
    33   20   30 1
    34   20   31 1
    35   21   32 1
    36   22   33 1
    37   22   34 1
    38   35   36 1
@<TRIPOS>MOLECULE
ZINC03834078
   34    36     0     0     0
SMALL
USER_CHARGES

@<TRIPOS>ATOM
      1 C1          1.6534   -1.7554   -0.0238 C.ar      1 <0>        -0.1305
      2 C2          0.6309   -2.6621   -0.0196 C.ar      1 <0>         0.1266
      3 C3         -0.9848   -1.0014    0.0054 C.ar      1 <0>         0.5419
      4 C4          0.0021   -0.0041    0.0020 C.ar      1 <0>        -0.0369
      5 C5          1.3522   -0.3953   -0.0130 C.ar      1 <0>         0.1524
      6 N1          2.0865    0.7662   -0.0137 N.pl3     1 <0>        -0.4445
      7 C6          1.2037    1.8042    0.0003 C.2       1 <0>         0.2829
      8 N2         -0.0163    1.3514    0.0095 N.2       1 <0>        -0.4432
      9 C7          3.5478    0.8695   -0.0271 C.3       1 <0>         0.1523
     10 H1          3.9981   -0.1227    0.0040 H         1 <0>         0.1377
     11 C8          4.0272    1.7046    1.1373 C.2       1 <0>        -0.1537
     12 C9          4.3479    2.9094    0.7511 C.2       1 <0>        -0.1281
     13 C10         4.1359    3.0788   -0.7353 C.3       1 <0>         0.0973
     14 H2          3.2162    3.6315   -0.9272 H         1 <0>         0.0833
     15 C11         4.0221    1.6371   -1.2829 C.3       1 <0>         0.1095
     16 H3          3.2812    1.5787   -2.0803 H         1 <0>         0.0874
     17 O1          5.2916    1.1562   -1.7291 O.3       1 <0>        -0.5345
     18 O2          5.2509    3.7492   -1.3263 O.3       1 <0>        -0.5442
     19 C12         4.8617    3.9899    1.6675 C.3       1 <0>         0.1173
     20 O3          4.9382    3.4857    3.0024 O.3       1 <0>        -0.5699
     21 N3         -2.3281   -0.6493    0.0201 N.pl3     1 <0>        -0.7972
     22 H4          2.6806   -2.0886   -0.0358 H         1 <0>         0.1802
     23 H5          0.8613   -3.7172   -0.0280 H         1 <0>         0.2005
     24 H6          1.4765    2.8492    0.0029 H         1 <0>         0.2305
     25 H7          4.0952    1.3510    2.1556 H         1 <0>         0.1547
     26 H8          5.6295    1.6080   -2.5144 H         1 <0>         0.4038
     27 H9          5.3709    4.6584   -1.0195 H         1 <0>         0.3919
     28 H10         5.8530    4.3031    1.3399 H         1 <0>         0.0728
     29 H11         4.1835    4.8428    1.6396 H         1 <0>         0.0689
     30 H12         5.2620    4.1289    3.6478 H         1 <0>         0.3949
     31 H13        -2.5842    0.2862    0.0280 H         1 <0>         0.4443
     32 H14        -3.0102   -1.3390    0.0224 H         1 <0>         0.4249
     33 N4         -0.6951   -2.3348   -0.0056 N.ar      1 <0>        -0.5468
     34 H15        -1.4312   -3.0506   -0.0036 H         1 <0>         0.4736
@<TRIPOS>BOND
     1    1    5 ar
     2    1    2 ar
     3    1   22 1
     4    2   23 1
     5    2   33 ar
     6    3    4 ar
     7    3   21 1
     8    3   33 ar
     9    4    8 1
    10    4    5 ar
    11    5    6 1
    12    6    7 1
    13    6    9 1
    14    7    8 2
    15    7   24 1
    16    9   10 1
    17    9   15 1
    18    9   11 1
    19   11   12 2
    20   11   25 1
    21   12   13 1
    22   12   19 1
    23   13   14 1
    24   13   15 1
    25   13   18 1
    26   15   16 1
    27   15   17 1
    28   17   26 1
    29   18   27 1
    30   19   20 1
    31   19   28 1
    32   19   29 1
    33   20   30 1
    34   21   31 1
    35   21   32 1
    36   33   34 1
@<TRIPOS>MOLECULE
ZINC03834079
   32    34     0     0     0
SMALL
USER_CHARGES

@<TRIPOS>ATOM
      1 C1         -4.7397    2.7178    2.6250 C.ar      1 <0>        -0.1299
      2 C2         -5.8272    2.7806    3.4503 C.ar      1 <0>         0.1258
      3 C3         -5.9323    0.4757    3.6645 C.ar      1 <0>         0.5415
      4 C4         -4.8187    0.3202    2.8252 C.ar      1 <0>        -0.0378
      5 C5         -4.2079    1.4721    2.2995 C.ar      1 <0>         0.1517
      6 N1         -3.1637    1.0302    1.5231 N.pl3     1 <0>        -0.4492
      7 C6         -3.1529   -0.3305    1.5941 C.2       1 <0>         0.2797
      8 N2         -4.1226   -0.7446    2.3569 N.2       1 <0>        -0.4442
      9 C7         -2.2309    1.8674    0.7647 C.3       1 <0>         0.1274
     10 H1         -2.4835    2.9197    0.8949 H         1 <0>         0.1331
     11 C8         -2.2810    1.4931   -0.7310 C.3       1 <0>        -0.1297
     12 C9         -0.8121    1.6238   -1.2047 C.3       1 <0>        -0.1555
     13 C10        -0.0127    1.0858    0.0080 C.3       1 <0>         0.0673
     14 H2          0.0021   -0.0041    0.0020 H         1 <0>         0.0763
     15 C11        -0.7856    1.6085    1.2365 C.3       1 <0>         0.1027
     16 H3         -0.7778    0.8600    2.0288 H         1 <0>         0.0729
     17 O1         -0.1970    2.8237    1.7045 O.3       1 <0>        -0.5475
     18 O2          1.3194    1.6029   -0.0019 O.3       1 <0>        -0.5571
     19 N3         -6.5565   -0.6411    4.2044 N.pl3     1 <0>        -0.7974
     20 H4         -4.2962    3.6216    2.2341 H         1 <0>         0.1792
     21 H5         -6.2391    3.7451    3.7080 H         1 <0>         0.2000
     22 H6         -2.4438   -0.9713    1.0911 H         1 <0>         0.2355
     23 H7         -2.9209    2.1865   -1.2766 H         1 <0>         0.0956
     24 H8         -2.6333    0.4695   -0.8585 H         1 <0>         0.0866
     25 H9         -0.5609    2.6661   -1.4012 H         1 <0>         0.0926
     26 H10        -0.6322    1.0114   -2.0883 H         1 <0>         0.0886
     27 H11         0.7212    2.7303    1.9931 H         1 <0>         0.4016
     28 H12         1.8420    1.3289   -0.7680 H         1 <0>         0.3946
     29 H13        -6.2227   -1.5289    4.0013 H         1 <0>         0.4443
     30 H14        -7.3264   -0.5333    4.7846 H         1 <0>         0.4249
     31 N4         -6.4536    1.6939    3.9908 N.ar      1 <0>        -0.5471
     32 H15        -7.2696    1.7881    4.6070 H         1 <0>         0.4735
@<TRIPOS>BOND
     1    1    5 ar
     2    1    2 ar
     3    1   20 1
     4    2   21 1
     5    2   31 ar
     6    3    4 ar
     7    3   19 1
     8    3   31 ar
     9    4    8 1
    10    4    5 ar
    11    5    6 1
    12    6    7 1
    13    6    9 1
    14    7    8 2
    15    7   22 1
    16    9   10 1
    17    9   15 1
    18    9   11 1
    19   11   12 1
    20   11   23 1
    21   11   24 1
    22   12   13 1
    23   12   25 1
    24   12   26 1
    25   13   14 1
    26   13   15 1
    27   13   18 1
    28   15   16 1
    29   15   17 1
    30   17   27 1
    31   18   28 1
    32   19   29 1
    33   19   30 1
    34   31   32 1
@<TRIPOS>MOLECULE
ZINC03834080
   34    36     0     0     0
SMALL
USER_CHARGES

@<TRIPOS>ATOM
      1 C1          1.1475    2.4411    0.0042 C.ar      1 <0>         0.1300
      2 C2         -0.0215    1.7317    0.0116 C.ar      1 <0>        -0.0622
      3 C3         -1.2322    2.4221    0.0210 C.ar      1 <0>         0.1559
      4 C4         -1.2066    3.8274    0.0332 C.ar      1 <0>        -0.0187
      5 C5          0.0379    4.4754    0.0248 C.ar      1 <0>         0.5440
      6 N1          0.0986    5.8634    0.0308 N.pl3     1 <0>        -0.7895
      7 N2         -2.4960    4.2457    0.0473 N.2       1 <0>        -0.4419
      8 C6         -3.2894    3.2142    0.0495 C.2       1 <0>         0.3037
      9 N3         -2.5592    2.0639    0.0369 N.pl3     1 <0>        -0.4467
     10 C7         -3.0900    0.6985    0.0343 C.3       1 <0>         0.2909
     11 H1         -2.4447    0.0424   -0.5499 H         1 <0>         0.1349
     12 C8         -3.2284    0.1725    1.4801 C.3       1 <0>         0.0784
     13 H2         -3.3227    1.0020    2.1809 H         1 <0>         0.0911
     14 C9         -4.5274   -0.6636    1.4528 C.3       1 <0>         0.0494
     15 H3         -5.2640   -0.2474    2.1401 H         1 <0>         0.0932
     16 C10        -5.0203   -0.5438   -0.0063 C.3       1 <0>         0.0496
     17 H4         -4.6715   -1.3919   -0.5955 H         1 <0>         0.1054
     18 O1         -4.4340    0.6826   -0.4944 O.3       1 <0>        -0.3412
     19 C11        -6.5473   -0.4573   -0.0474 C.3       1 <0>         0.0801
     20 O2         -6.9843   -0.3902   -1.4063 O.3       1 <0>        -0.5640
     21 O3         -4.2520   -2.0276    1.7779 O.3       1 <0>        -0.5381
     22 O4         -2.1109   -0.6497    1.8229 O.3       1 <0>        -0.5297
     23 Cl1         0.0021   -0.0041    0.0020 Cl        1 <0>         0.0347
     24 H5          2.0875    1.9094   -0.0076 H         1 <0>         0.2081
     25 H6          0.9589    6.3113    0.0247 H         1 <0>         0.4272
     26 H7         -0.7195    6.3846    0.0410 H         1 <0>         0.4465
     27 H8         -4.3683    3.2627    0.0595 H         1 <0>         0.2438
     28 H9         -6.9741   -1.3402    0.4284 H         1 <0>         0.0726
     29 H10        -6.8750    0.4361    0.4842 H         1 <0>         0.0622
     30 H11        -7.9442   -0.3335   -1.5084 H         1 <0>         0.3921
     31 H12        -5.0219   -2.6095    1.7175 H         1 <0>         0.3945
     32 H13        -2.1463   -1.0070    2.7208 H         1 <0>         0.4002
     33 N4          1.2261    3.8050    0.0103 N.ar      1 <0>        -0.5361
     34 H14         2.1273    4.2971    0.0044 H         1 <0>         0.4794
@<TRIPOS>BOND
     1    1    2 ar
     2    1   24 1
     3    1   33 ar
     4    2    3 ar
     5    2   23 1
     6    3    9 1
     7    3    4 ar
     8    4    5 ar
     9    4    7 1
    10    5    6 1
    11    5   33 ar
    12    6   25 1
    13    6   26 1
    14    7    8 2
    15    8    9 1
    16    8   27 1
    17    9   10 1
    18   10   11 1
    19   10   18 1
    20   10   12 1
    21   12   13 1
    22   12   14 1
    23   12   22 1
    24   14   15 1
    25   14   16 1
    26   14   21 1
    27   16   17 1
    28   16   18 1
    29   16   19 1
    30   19   20 1
    31   19   28 1
    32   19   29 1
    33   20   30 1
    34   21   31 1
    35   22   32 1
    36   33   34 1
@<TRIPOS>MOLECULE
ZINC03834081
   34    36     0     0     0
SMALL
USER_CHARGES

@<TRIPOS>ATOM
      1 C1          1.1609    2.0628    0.0021 C.ar      1 <0>         0.0811
      2 C2         -0.0162    1.3468    0.0094 C.ar      1 <0>         0.1091
      3 C3         -1.2269    2.0388    0.0189 C.ar      1 <0>         0.1163
      4 C4         -1.2003    3.4438    0.0306 C.ar      1 <0>        -0.0046
      5 C5          0.0436    4.0930    0.0227 C.ar      1 <0>         0.5385
      6 N1          0.1008    5.4819    0.0291 N.pl3     1 <0>        -0.7897
      7 N2         -2.4897    3.8628    0.0446 N.2       1 <0>        -0.4415
      8 C6         -3.2838    2.8319    0.0468 C.2       1 <0>         0.3068
      9 N3         -2.5546    1.6812    0.0343 N.pl3     1 <0>        -0.4449
     10 C7         -3.0863    0.3161    0.0323 C.3       1 <0>         0.2934
     11 H1         -2.4417   -0.3406   -0.5519 H         1 <0>         0.1352
     12 C8         -3.2243   -0.2093    1.4784 C.3       1 <0>         0.0767
     13 H2         -3.3178    0.6205    2.1790 H         1 <0>         0.0913
     14 C9         -4.5240   -1.0445    1.4520 C.3       1 <0>         0.0494
     15 H3         -5.2599   -0.6276    2.1395 H         1 <0>         0.0940
     16 C10        -5.0174   -0.9249   -0.0070 C.3       1 <0>         0.0498
     17 H4         -4.6694   -1.7734   -0.5960 H         1 <0>         0.1064
     18 O1         -4.4305    0.3009   -0.4957 O.3       1 <0>        -0.3404
     19 C11        -6.5443   -0.8374   -0.0473 C.3       1 <0>         0.0802
     20 O2         -6.9819   -0.7706   -1.4061 O.3       1 <0>        -0.5641
     21 O3         -4.2492   -2.4086    1.7774 O.3       1 <0>        -0.5381
     22 O4         -2.1073   -1.0320    1.8210 O.3       1 <0>        -0.5320
     23 F1          0.0021   -0.0041    0.0020 F         1 <0>        -0.0833
     24 H5          2.1023    1.5337   -0.0098 H         1 <0>         0.2118
     25 H6          0.9601    5.9320    0.0234 H         1 <0>         0.4274
     26 H7         -0.7185    6.0011    0.0394 H         1 <0>         0.4465
     27 H8         -4.3626    2.8812    0.0570 H         1 <0>         0.2448
     28 H9         -6.9715   -1.7199    0.4289 H         1 <0>         0.0731
     29 H10        -6.8712    0.0564    0.4840 H         1 <0>         0.0623
     30 H11        -7.9418   -0.7132   -1.5078 H         1 <0>         0.3923
     31 H12        -5.0196   -2.9900    1.7176 H         1 <0>         0.3950
     32 H13        -2.1425   -1.3890    2.7190 H         1 <0>         0.4020
     33 N4          1.2339    3.4277    0.0082 N.ar      1 <0>        -0.5259
     34 H14         2.1331    3.9234    0.0022 H         1 <0>         0.4811
@<TRIPOS>BOND
     1    1    2 ar
     2    1   24 1
     3    1   33 ar
     4    2    3 ar
     5    2   23 1
     6    3    9 1
     7    3    4 ar
     8    4    5 ar
     9    4    7 1
    10    5    6 1
    11    5   33 ar
    12    6   25 1
    13    6   26 1
    14    7    8 2
    15    8    9 1
    16    8   27 1
    17    9   10 1
    18   10   11 1
    19   10   18 1
    20   10   12 1
    21   12   13 1
    22   12   14 1
    23   12   22 1
    24   14   15 1
    25   14   16 1
    26   14   21 1
    27   16   17 1
    28   16   18 1
    29   16   19 1
    30   19   20 1
    31   19   28 1
    32   19   29 1
    33   20   30 1
    34   21   31 1
    35   22   32 1
    36   33   34 1
@<TRIPOS>MOLECULE
ZINC03834082
   37    39     0     0     0
SMALL
USER_CHARGES

@<TRIPOS>ATOM
      1 C1         -4.6055    0.9900    5.0645 C.ar      1 <0>        -0.1283
      2 C2         -5.4532    0.5381    6.0365 C.ar      1 <0>         0.1244
      3 C3         -3.7976   -0.7368    7.0381 C.ar      1 <0>         0.5410
      4 C4         -2.8611   -0.3224    6.0790 C.ar      1 <0>        -0.0375
      5 C5         -3.2798    0.5623    5.0701 C.ar      1 <0>         0.1529
      6 N1         -2.1766    0.7953    4.2843 N.pl3     1 <0>        -0.4476
      7 C6         -1.1469    0.0712    4.8061 C.2       1 <0>         0.2836
      8 N2         -1.5480   -0.5784    5.8600 N.2       1 <0>        -0.4455
      9 C7         -2.1198    1.6574    3.1012 C.3       1 <0>         0.1609
     10 H1         -3.1038    2.0759    2.8897 H         1 <0>         0.1384
     11 C8         -1.6112    0.8846    1.9065 C.2       1 <0>        -0.1671
     12 C9         -0.7181    1.5718    1.2479 C.2       1 <0>        -0.1163
     13 C10        -0.4890    2.9212    1.8882 C.3       1 <0>         0.0936
     14 H2          0.5776    3.1390    1.9436 H         1 <0>         0.0847
     15 C11        -1.0864    2.7889    3.3083 C.3       1 <0>         0.1059
     16 H3         -0.3227    2.4944    4.0282 H         1 <0>         0.0935
     17 O1         -1.7261    4.0017    3.7108 O.3       1 <0>        -0.5398
     18 O2         -1.1670    3.9423    1.1536 O.3       1 <0>        -0.5374
     19 C12        -0.0127    1.0858    0.0080 C.3       1 <0>        -0.0828
     20 C13        -0.7527    1.5927   -1.2315 C.3       1 <0>         0.0822
     21 O3         -0.0838    1.1318   -2.4072 O.3       1 <0>        -0.5722
     22 N3         -3.4173   -1.6106    8.0481 N.pl3     1 <0>        -0.7980
     23 H4         -4.9583    1.6699    4.3032 H         1 <0>         0.1787
     24 H5         -6.4816    0.8678    6.0348 H         1 <0>         0.1997
     25 H6         -0.1443    0.0429    4.4055 H         1 <0>         0.2352
     26 H7         -1.9418   -0.1069    1.6345 H         1 <0>         0.1497
     27 H8         -1.1320    4.7633    3.7563 H         1 <0>         0.3988
     28 H9         -0.8657    4.0352    0.2394 H         1 <0>         0.3876
     29 H10         0.0021   -0.0041    0.0020 H         1 <0>         0.0903
     30 H11         1.0099    1.4631    0.0003 H         1 <0>         0.0907
     31 H12        -1.7753    1.2154   -1.2238 H         1 <0>         0.0499
     32 H13        -0.7675    2.6825   -1.2255 H         1 <0>         0.0462
     33 H14        -0.4991    1.4161   -3.2329 H         1 <0>         0.3898
     34 H15        -2.5041   -1.9348    8.0907 H         1 <0>         0.4441
     35 H16        -4.0649   -1.8969    8.7111 H         1 <0>         0.4246
     36 N4         -5.0972   -0.3205    7.0373 N.ar      1 <0>        -0.5471
     37 H17        -5.7685   -0.6346    7.7479 H         1 <0>         0.4731
@<TRIPOS>BOND
     1    1    5 ar
     2    1    2 ar
     3    1   23 1
     4    2   24 1
     5    2   36 ar
     6    3    4 ar
     7    3   22 1
     8    3   36 ar
     9    4    8 1
    10    4    5 ar
    11    5    6 1
    12    6    7 1
    13    6    9 1
    14    7    8 2
    15    7   25 1
    16    9   10 1
    17    9   15 1
    18    9   11 1
    19   11   12 2
    20   11   26 1
    21   12   13 1
    22   12   19 1
    23   13   14 1
    24   13   15 1
    25   13   18 1
    26   15   16 1
    27   15   17 1
    28   17   27 1
    29   18   28 1
    30   19   20 1
    31   19   29 1
    32   19   30 1
    33   20   21 1
    34   20   31 1
    35   20   32 1
    36   21   33 1
    37   22   34 1
    38   22   35 1
    39   36   37 1
@<TRIPOS>MOLECULE
ZINC03834083
   35    36     0     0     0
SMALL
USER_CHARGES

@<TRIPOS>ATOM
      1 C1          1.5997   -2.9542   -2.5940 C.3       1 <0>        -0.0833
      2 C2          1.3283   -1.6085   -3.2158 C.2       1 <0>        -0.2510
      3 C3          1.0951   -0.5299   -2.4378 C.2       1 <0>         0.1561
      4 N1          0.8508    0.6847   -3.0188 N.am      1 <0>        -0.5216
      5 C4          0.8358    0.8131   -4.3580 C.2       1 <0>         0.6984
      6 O1          0.6120    1.9007   -4.8534 O.2       1 <0>        -0.5323
      7 N2          1.0701   -0.2444   -5.1571 N.am      1 <0>        -0.6609
      8 H1          1.0626   -0.1293   -6.1504 H         1 <0>         0.4402
      9 C5          1.3149   -1.4583   -4.6235 C.2       1 <0>         0.5535
     10 O2          1.5228   -2.4165   -5.3458 O.2       1 <0>        -0.5058
     11 C6          0.5973    1.8549   -2.1748 C.3       1 <0>         0.1593
     12 H2          0.4796    2.7473   -2.7896 H         1 <0>         0.1438
     13 C7          1.7226    2.0431   -1.1840 C.2       1 <0>        -0.1512
     14 C8          1.3786    1.6235    0.0031 C.2       1 <0>        -0.1353
     15 C9         -0.0335    1.0856    0.0020 C.3       1 <0>         0.0924
     16 H3         -0.0246   -0.0043   -0.0057 H         1 <0>         0.0804
     17 C10        -0.6599    1.6285   -1.3034 C.3       1 <0>         0.1083
     18 H4         -1.3220    0.8904   -1.7561 H         1 <0>         0.0837
     19 O3         -1.3497    2.8578   -1.0688 O.3       1 <0>        -0.5362
     20 O4         -0.7510    1.5686    1.1395 O.3       1 <0>        -0.5482
     21 C11         2.2722    1.6700    1.2157 C.3       1 <0>        -0.0748
     22 C12         1.9841    2.9436    2.0130 C.3       1 <0>         0.0797
     23 O5          2.8315    2.9877    3.1628 O.3       1 <0>        -0.5767
     24 H5          0.6590   -3.4872   -2.4565 H         1 <0>         0.0729
     25 H6          2.2523   -3.5319   -3.2486 H         1 <0>         0.0799
     26 H7          2.0842   -2.8167   -1.6274 H         1 <0>         0.0705
     27 H8          1.1010   -0.6254   -1.3621 H         1 <0>         0.1718
     28 H9          2.6852    2.4685   -1.4264 H         1 <0>         0.1453
     29 H10        -2.0864    2.7829   -0.4470 H         1 <0>         0.3957
     30 H11        -0.3857    1.2794    1.9869 H         1 <0>         0.3869
     31 H12         2.0808    0.7984    1.8417 H         1 <0>         0.0829
     32 H13         3.3151    1.6677    0.8988 H         1 <0>         0.0861
     33 H14         2.1755    3.8152    1.3870 H         1 <0>         0.0492
     34 H15         0.9412    2.9459    2.3299 H         1 <0>         0.0548
     35 H16         2.7031    3.7702    3.7163 H         1 <0>         0.3856
@<TRIPOS>BOND
     1    1    2 1
     2    1   24 1
     3    1   25 1
     4    1   26 1
     5    2    9 1
     6    2    3 2
     7    3    4 1
     8    3   27 1
     9    4    5 am
    10    4   11 1
    11    5    6 2
    12    5    7 am
    13    7    8 1
    14    7    9 am
    15    9   10 2
    16   11   12 1
    17   11   17 1
    18   11   13 1
    19   13   14 2
    20   13   28 1
    21   14   15 1
    22   14   21 1
    23   15   16 1
    24   15   17 1
    25   15   20 1
    26   17   18 1
    27   17   19 1
    28   19   29 1
    29   20   30 1
    30   21   22 1
    31   21   31 1
    32   21   32 1
    33   22   23 1
    34   22   33 1
    35   22   34 1
    36   23   35 1
@<TRIPOS>MOLECULE
ZINC03834084
   33    34     0     0     0
SMALL
USER_CHARGES

@<TRIPOS>ATOM
      1 C1          2.3497    1.3390   -0.0136 C.2       1 <0>        -0.3207
      2 C2          2.3515   -0.0150   -0.0214 C.2       1 <0>         0.2014
      3 N1          1.1638   -0.6830   -0.0132 N.am      1 <0>        -0.5232
      4 C3          0.0021   -0.0041    0.0020 C.2       1 <0>         0.6472
      5 O1         -1.0518   -0.6184    0.0088 O.2       1 <0>        -0.5257
      6 N2         -0.0160    1.3277    0.0093 N.2       1 <0>        -0.5748
      7 C4          1.1153    2.0204    0.0023 C.2       1 <0>         0.4647
      8 N3          1.0844    3.3957    0.0095 N.pl3     1 <0>        -0.7556
      9 C5          1.1516   -2.1479   -0.0214 C.3       1 <0>         0.1616
     10 H1          2.1702   -2.5352   -0.0460 H         1 <0>         0.1270
     11 C6          0.3646   -2.6611   -1.2048 C.2       1 <0>        -0.1354
     12 C7         -0.4350   -3.6309   -0.8525 C.2       1 <0>        -0.1345
     13 C8         -0.3145   -3.9260    0.6245 C.3       1 <0>         0.1050
     14 H2         -1.3022   -4.0470    1.0693 H         1 <0>         0.0740
     15 C9          0.4000   -2.6874    1.2177 C.3       1 <0>         0.1054
     16 H3         -0.3221   -1.9583    1.5853 H         1 <0>         0.0997
     17 O2          1.3149   -3.0647    2.2485 O.3       1 <0>        -0.5456
     18 O3          0.4724   -5.1002    0.8349 O.3       1 <0>        -0.5419
     19 C10        -1.3569   -4.3606   -1.7952 C.3       1 <0>        -0.0737
     20 C11        -0.6717   -5.6341   -2.2947 C.3       1 <0>         0.0827
     21 O4         -1.5459   -6.3261   -3.1886 O.3       1 <0>        -0.5739
     22 H4          3.2794    1.8886   -0.0199 H         1 <0>         0.1577
     23 H5          3.2840   -0.5596   -0.0336 H         1 <0>         0.1761
     24 H6          0.5980    3.7224   -0.8009 H         1 <0>         0.3741
     25 H7          1.9133    3.8995    0.0043 H         1 <0>         0.3804
     26 H8          0.4523   -2.2764   -2.2101 H         1 <0>         0.1369
     27 H9          0.8891   -3.4091    3.0456 H         1 <0>         0.3884
     28 H10         0.0984   -5.9001    0.4409 H         1 <0>         0.3773
     29 H11        -2.2766   -4.6238   -1.2729 H         1 <0>         0.0838
     30 H12        -1.5920   -3.7178   -2.6436 H         1 <0>         0.0839
     31 H13         0.2480   -5.3709   -2.8171 H         1 <0>         0.0488
     32 H14        -0.4366   -6.2768   -1.4464 H         1 <0>         0.0451
     33 H15        -1.1758   -7.1452   -3.5452 H         1 <0>         0.3838
@<TRIPOS>BOND
     1    1    7 1
     2    1    2 2
     3    1   22 1
     4    2    3 1
     5    2   23 1
     6    3    4 am
     7    3    9 1
     8    4    5 2
     9    4    6 1
    10    6    7 2
    11    7    8 1
    12    8   24 1
    13    8   25 1
    14    9   10 1
    15    9   15 1
    16    9   11 1
    17   11   12 2
    18   11   26 1
    19   12   13 1
    20   12   19 1
    21   13   14 1
    22   13   15 1
    23   13   18 1
    24   15   16 1
    25   15   17 1
    26   17   27 1
    27   18   28 1
    28   19   20 1
    29   19   29 1
    30   19   30 1
    31   20   21 1
    32   20   31 1
    33   20   32 1
    34   21   33 1
@<TRIPOS>MOLECULE
ZINC03834085
   35    37     0     0     0
SMALL
USER_CHARGES

@<TRIPOS>ATOM
      1 C1         -3.0558    9.5574   -1.5208 C.3       1 <0>        -0.1489
      2 C2         -3.6306    8.3867   -0.7208 C.3       1 <0>        -0.0839
      3 H1         -4.7154    8.3506   -0.8217 H         1 <0>         0.1003
      4 C3         -2.9984    7.0509   -1.1845 C.3       1 <0>        -0.1274
      5 C4         -3.1914    6.1349    0.0494 C.3       1 <0>         0.1303
      6 H2         -4.2045    5.7333    0.0717 H         1 <0>         0.1327
      7 C5         -2.9507    7.0676    1.2544 C.3       1 <0>         0.0588
      8 H3         -1.9176    6.9831    1.5914 H         1 <0>         0.0744
      9 C6         -3.2300    8.4993    0.7646 C.3       1 <0>         0.0737
     10 H4         -2.3324    9.1097    0.8640 H         1 <0>         0.0783
     11 O1         -4.2992    9.0755    1.5176 O.3       1 <0>        -0.5420
     12 O2         -3.8426    6.7318    2.3192 O.3       1 <0>        -0.5470
     13 N1         -2.2101    5.0471    0.0390 N.pl3     1 <0>        -0.4468
     14 C7         -0.8542    5.1828    0.0336 C.2       1 <0>         0.2785
     15 N2         -0.2891    4.0105    0.0251 N.2       1 <0>        -0.4446
     16 C8         -1.2423    3.0466    0.0303 C.ar      1 <0>        -0.0384
     17 C9         -2.4865    3.7010    0.0334 C.ar      1 <0>         0.1528
     18 C10        -3.6468    2.9300    0.0347 C.ar      1 <0>        -0.1288
     19 C11        -3.5389    1.5677    0.0273 C.ar      1 <0>         0.1246
     20 C12        -1.2230    1.6437    0.0168 C.ar      1 <0>         0.5413
     21 N3         -0.0111    0.9658    0.0074 N.pl3     1 <0>        -0.7979
     22 H5         -3.2692    9.4133   -2.5799 H         1 <0>         0.0668
     23 H6         -3.5114   10.4877   -1.1816 H         1 <0>         0.0690
     24 H7         -1.9772    9.6051   -1.3707 H         1 <0>         0.0598
     25 H8         -1.9393    7.1814   -1.4068 H         1 <0>         0.0897
     26 H9         -3.5292    6.6517   -2.0488 H         1 <0>         0.0974
     27 H10        -4.1083    9.1729    2.4606 H         1 <0>         0.3796
     28 H11        -3.7404    7.2836    3.1067 H         1 <0>         0.3894
     29 H12        -0.3261    6.1248    0.0355 H         1 <0>         0.2351
     30 H13        -4.6180    3.4023    0.0412 H         1 <0>         0.1786
     31 H14        -4.4366    0.9673    0.0283 H         1 <0>         0.1997
     32 H15         0.0021   -0.0041    0.0020 H         1 <0>         0.4247
     33 H16         0.8223    1.4622    0.0021 H         1 <0>         0.4441
     34 N4         -2.3566    0.8840    0.0180 N.ar      1 <0>        -0.5472
     35 H17        -2.3227   -0.1422    0.0123 H         1 <0>         0.4732
@<TRIPOS>BOND
     1    1    2 1
     2    1   22 1
     3    1   23 1
     4    1   24 1
     5    2    3 1
     6    2    9 1
     7    2    4 1
     8    4    5 1
     9    4   25 1
    10    4   26 1
    11    5    6 1
    12    5    7 1
    13    5   13 1
    14    7    8 1
    15    7    9 1
    16    7   12 1
    17    9   10 1
    18    9   11 1
    19   11   27 1
    20   12   28 1
    21   13   17 1
    22   13   14 1
    23   14   15 2
    24   14   29 1
    25   15   16 1
    26   16   20 ar
    27   16   17 ar
    28   17   18 ar
    29   18   19 ar
    30   18   30 1
    31   19   31 1
    32   19   34 ar
    33   20   21 1
    34   20   34 ar
    35   21   32 1
    36   21   33 1
    37   34   35 1
@<TRIPOS>MOLECULE
ZINC04628821
   32    34     0     0     0
SMALL
USER_CHARGES

@<TRIPOS>ATOM
      1 C1          1.1044    2.0239    0.0029 C.ar      1 <0>         0.3537
      2 N1         -0.0159    1.3246    0.0098 N.ar      1 <0>        -0.5474
      3 C2          0.0021   -0.0041    0.0023 C.ar      1 <0>         0.4598
      4 C3          1.2467   -0.6568   -0.0133 C.ar      1 <0>        -0.1025
      5 C4          2.4092    0.1320   -0.0200 C.ar      1 <0>         0.3011
      6 N2          2.2917    1.4559   -0.0120 N.ar      1 <0>        -0.5379
      7 N3          3.4626   -0.7470   -0.0350 N.pl3     1 <0>        -0.4857
      8 C5          2.9432   -2.0073   -0.0370 C.2       1 <0>         0.2603
      9 N4          1.6430   -1.9522   -0.0242 N.2       1 <0>        -0.4573
     10 C6          4.8848   -0.3955   -0.0467 C.3       1 <0>         0.3035
     11 H1          5.0644    0.4335   -0.7312 H         1 <0>         0.1548
     12 C7          5.3601   -0.0300    1.3770 C.3       1 <0>         0.0889
     13 H2          4.5191    0.2975    1.9881 H         1 <0>         0.0866
     14 C8          5.9477   -1.3490    1.9268 C.3       1 <0>         0.0504
     15 H3          5.3971   -1.6736    2.8097 H         1 <0>         0.0846
     16 C9          5.7578   -2.3554    0.7702 C.3       1 <0>         0.0556
     17 H4          4.8346   -2.9188    0.9053 H         1 <0>         0.0921
     18 O1          5.6825   -1.5402   -0.4196 O.3       1 <0>        -0.3242
     19 C10         6.9359   -3.2918    0.6909 C.2       1 <0>        -0.2140
     20 C11         6.7568   -4.5853    0.8286 C.2       1 <0>         0.0565
     21 F1          5.5165   -5.0766    1.0414 F         1 <0>        -0.1499
     22 O2          7.3351   -1.1910    2.2303 O.3       1 <0>        -0.5353
     23 O3          6.3667    0.9829    1.3241 O.3       1 <0>        -0.5286
     24 N5         -1.1772   -0.7282    0.0091 N.pl3     1 <0>        -0.7496
     25 H5          1.0442    3.1022    0.0091 H         1 <0>         0.2120
     26 H6          3.5248   -2.9172   -0.0476 H         1 <0>         0.2231
     27 H7          7.9274   -2.8990    0.5208 H         1 <0>         0.1562
     28 H8          7.6011   -5.2563    0.7718 H         1 <0>         0.1611
     29 H9          7.7548   -1.9892    2.5793 H         1 <0>         0.3848
     30 H10         6.7012    1.2506    2.1911 H         1 <0>         0.3947
     31 H11        -1.7004   -0.5054    0.8317 H         1 <0>         0.3686
     32 H12        -1.1510   -1.6978    0.0035 H         1 <0>         0.3839
@<TRIPOS>BOND
     1    1    6 ar
     2    1    2 ar
     3    1   25 1
     4    2    3 ar
     5    3    4 ar
     6    3   24 1
     7    4    9 1
     8    4    5 ar
     9    5    6 ar
    10    5    7 1
    11    7    8 1
    12    7   10 1
    13    8    9 2
    14    8   26 1
    15   10   11 1
    16   10   18 1
    17   10   12 1
    18   12   13 1
    19   12   14 1
    20   12   23 1
    21   14   15 1
    22   14   16 1
    23   14   22 1
    24   16   17 1
    25   16   18 1
    26   16   19 1
    27   19   20 2
    28   19   27 1
    29   20   21 1
    30   20   28 1
    31   22   29 1
    32   23   30 1
    33   24   31 1
    34   24   32 1
