@<TRIPOS>MOLECULE
ZINC02043468
   62    65     0     0     0
SMALL
USER_CHARGES

@<TRIPOS>ATOM
      1 H1          3.6533   12.6563   -0.1343 H         1 <0>         0.4487
      2 C1          1.6433   12.9766   -0.0902 C.cat     1 <0>         0.5961
      3 C2          0.3562   12.4671   -0.6159 C.ar      1 <0>        -0.1468
      4 C3         -0.8410   13.0867   -0.2578 C.ar      1 <0>        -0.0511
      5 C4         -2.0370   12.6077   -0.7512 C.ar      1 <0>        -0.1017
      6 C5         -2.0500   11.5184   -1.6044 C.ar      1 <0>        -0.0504
      7 C6         -0.8666   10.8962   -1.9586 C.ar      1 <0>        -0.0813
      8 C7          0.3362   11.3661   -1.4715 C.ar      1 <0>        -0.0608
      9 C8         -0.8900    9.7065   -2.8834 C.3       1 <0>        -0.0872
     10 C9         -1.0140    8.4229   -2.0600 C.3       1 <0>         0.1361
     11 H2         -1.9173    8.4673   -1.4518 H         1 <0>         0.1224
     12 C10        -1.0901    7.2371   -2.9868 C.2       1 <0>         0.4999
     13 O1         -0.1180    6.5299   -3.1480 O.2       1 <0>        -0.4753
     14 N1         -2.2383    6.9622   -3.6367 N.am      1 <0>        -0.6305
     15 C11        -3.3925    7.8694   -3.5465 C.3       1 <0>         0.0714
     16 C12        -4.6274    7.0569   -3.1601 C.3       1 <0>        -0.0231
     17 C13        -3.6496    5.0123   -4.0232 C.3       1 <0>        -0.0215
     18 C14        -2.3727    5.7441   -4.4498 C.3       1 <0>         0.0887
     19 N2          0.1556    8.2871   -1.1883 N.pl3     1 <0>        -1.0963
     20 S1         -0.0079    7.6204    0.3187 S.o2      1 <0>         2.6834
     21 O2         -1.1088    8.2744    0.9349 O.2       1 <0>        -0.9461
     22 O3          1.2894    7.6031    0.8982 O.2       1 <0>        -0.9384
     23 C15        -0.4823    5.9382    0.0955 C.ar      1 <0>        -0.6627
     24 C16         0.5009    4.9559   -0.0094 C.ar      1 <0>        -0.0371
     25 C17         0.1686    3.6475   -0.1823 C.ar      1 <0>        -0.1022
     26 C18        -1.1853    3.2779   -0.2565 C.ar      1 <0>        -0.0085
     27 C19        -1.5672    1.9372   -0.4350 C.ar      1 <0>        -0.1069
     28 C20        -2.8881    1.6167   -0.5029 C.ar      1 <0>        -0.0944
     29 C21        -3.8711    2.5997   -0.4034 C.ar      1 <0>        -0.1107
     30 C22        -3.5389    3.9073   -0.2244 C.ar      1 <0>        -0.1152
     31 C23        -2.1849    4.2768   -0.1500 C.ar      1 <0>        -0.0782
     32 C24        -1.8031    5.6176    0.0276 C.ar      1 <0>        -0.0021
     33 N3          1.6599   14.0646    0.7551 N.pl3     1 <0>        -0.7746
     34 H3         -0.8317   13.9400    0.4042 H         1 <0>         0.1429
     35 H4         -2.9647   13.0864   -0.4744 H         1 <0>         0.1536
     36 H5         -2.9884   11.1497   -1.9916 H         1 <0>         0.1441
     37 H6          1.2599   10.8820   -1.7520 H         1 <0>         0.1348
     38 H7          0.0327    9.6787   -3.4631 H         1 <0>         0.1054
     39 H8         -1.7413    9.7883   -3.5592 H         1 <0>         0.1058
     40 H9         -3.2031    8.6285   -2.7875 H         1 <0>         0.1271
     41 H10        -3.5594    8.3468   -4.5120 H         1 <0>         0.1092
     42 H11        -5.5107    7.6943   -3.1996 H         1 <0>         0.1529
     43 H12        -4.5028    6.6696   -2.1489 H         1 <0>         0.1355
     44 H13        -3.8239    4.1668   -4.6887 H         1 <0>         0.1502
     45 H14        -3.5386    4.6535   -3.0000 H         1 <0>         0.1356
     46 H15        -2.4397    6.0131   -5.5040 H         1 <0>         0.1017
     47 H16        -1.5093    5.0987   -4.2880 H         1 <0>         0.1367
     48 H17         1.0258    8.5878   -1.4938 H         1 <0>         0.4250
     49 H18         1.5421    5.2371    0.0478 H         1 <0>         0.1412
     50 H19         0.9413    2.8972   -0.2622 H         1 <0>         0.1420
     51 H20        -0.8163    1.1653   -0.5180 H         1 <0>         0.1387
     52 H21        -3.1789    0.5857   -0.6403 H         1 <0>         0.1350
     53 H22        -4.9122    2.3190   -0.4650 H         1 <0>         0.1316
     54 H23        -4.3114    4.6577   -0.1452 H         1 <0>         0.1272
     55 H24        -2.5540    6.3893    0.1104 H         1 <0>         0.1370
     56 H25         0.8285   14.4968    1.0057 H         1 <0>         0.4441
     57 H26         2.5031   14.3984    1.0995 H         1 <0>         0.4348
     58 N4          2.7422   12.3430   -0.4697 N.pl3     1 <0>        -0.7578
     59 H27         2.6774   11.5363   -1.1017 H         1 <0>         0.4577
     60 N5         -4.7982    5.9359   -4.1051 N.4       1 <0>        -0.5159
     61 H28        -4.8667    6.3064   -5.0603 H         1 <0>         0.4364
     62 H29        -5.6589    5.4264   -3.8732 H         1 <0>         0.4439
@<TRIPOS>BOND
     1    1   58 1
     2    2    3 1
     3    2   33 1
     4    2   58 2
     5    3    8 ar
     6    3    4 ar
     7    4    5 ar
     8    4   34 1
     9    5    6 ar
    10    5   35 1
    11    6    7 ar
    12    6   36 1
    13    7    8 ar
    14    7    9 1
    15    8   37 1
    16    9   10 1
    17    9   38 1
    18    9   39 1
    19   10   11 1
    20   10   12 1
    21   10   19 1
    22   12   13 2
    23   12   14 am
    24   14   18 1
    25   14   15 1
    26   15   16 1
    27   15   40 1
    28   15   41 1
    29   16   42 1
    30   16   43 1
    31   16   60 1
    32   17   18 1
    33   17   44 1
    34   17   45 1
    35   17   60 1
    36   18   46 1
    37   18   47 1
    38   19   20 1
    39   19   48 1
    40   20   21 2
    41   20   22 2
    42   20   23 1
    43   23   32 ar
    44   23   24 ar
    45   24   25 ar
    46   24   49 1
    47   25   26 ar
    48   25   50 1
    49   26   31 ar
    50   26   27 ar
    51   27   28 ar
    52   27   51 1
    53   28   29 ar
    54   28   52 1
    55   29   30 ar
    56   29   53 1
    57   30   31 ar
    58   30   54 1
    59   31   32 ar
    60   32   55 1
    61   33   56 1
    62   33   57 1
    63   58   59 1
    64   60   61 1
    65   60   62 1
@<TRIPOS>MOLECULE
ZINC03815825
   69    73     0     0     0
SMALL
USER_CHARGES

@<TRIPOS>ATOM
      1 H1         -9.3557    3.5096   -1.0236 H         1 <0>         0.4595
      2 C1         -7.6402    2.6736   -1.7082 C.cat     1 <0>         0.5294
      3 C2         -8.1199    2.3810   -3.1064 C.3       1 <0>        -0.1562
      4 N1         -6.3632    2.3424   -1.3387 N.pl3     1 <0>        -0.5650
      5 C3         -5.8810    2.6214    0.0209 C.3       1 <0>         0.0864
      6 C4         -4.5809    3.4262   -0.0724 C.3       1 <0>        -0.1312
      7 C5         -3.5808    2.6720   -0.9516 C.3       1 <0>         0.0820
      8 C6         -4.1549    2.5164   -2.3617 C.3       1 <0>        -0.1626
      9 C7         -5.4499    1.7010   -2.2943 C.3       1 <0>         0.0944
     10 O1         -2.3554    3.4045   -1.0145 O.3       1 <0>        -0.3063
     11 C8         -1.2260    2.6963   -1.2812 C.ar      1 <0>         0.1370
     12 C9         -1.3150    1.3424   -1.5939 C.ar      1 <0>        -0.2105
     13 C10        -0.1906    0.6148   -1.8592 C.ar      1 <0>        -0.0119
     14 C11         1.0633    1.2313   -1.8285 C.ar      1 <0>         0.0267
     15 C12         1.1558    2.5985   -1.5183 C.ar      1 <0>         0.0849
     16 C13         0.0052    3.3253   -1.2455 C.ar      1 <0>        -0.1520
     17 N2          2.4999    2.9104   -1.5666 N.pl3     1 <0>        -0.4891
     18 C14         3.1685    1.7701   -1.8925 C.2       1 <0>         0.2931
     19 N3          2.3293    0.7883   -2.0456 N.2       1 <0>        -0.4760
     20 C15         4.6631    1.6614   -2.0527 C.3       1 <0>        -0.0886
     21 C16         3.0960    4.2245   -1.3141 C.3       1 <0>         0.1393
     22 C17         3.1769    4.9960   -2.6062 C.ar      1 <0>        -0.0745
     23 C18         4.3192    4.8912   -3.3979 C.ar      1 <0>        -0.0648
     24 C19         4.4220    5.5702   -4.5729 C.ar      1 <0>        -0.0998
     25 C20         3.3674    6.3995   -4.9913 C.ar      1 <0>        -0.0214
     26 C21         3.4402    7.1213   -6.1950 C.ar      1 <0>        -0.0406
     27 C22         2.3992    7.9143   -6.5685 C.ar      1 <0>        -0.1392
     28 C23         1.2592    8.0235   -5.7741 C.ar      1 <0>        -0.2032
     29 C24         1.1537    7.3397   -4.6022 C.ar      1 <0>        -0.0547
     30 C25         2.2082    6.5103   -4.1836 C.ar      1 <0>        -0.0503
     31 C26         2.1359    5.7890   -2.9795 C.ar      1 <0>        -0.0864
     32 C27         0.1266    8.9123   -6.2194 C.3       1 <0>         0.2461
     33 H2         -8.0613    1.3088   -3.2937 H         1 <0>         0.1328
     34 H3         -9.1528    2.7125   -3.2131 H         1 <0>         0.1218
     35 H4         -7.4926    2.9099   -3.8239 H         1 <0>         0.1259
     36 H5         -5.6930    1.6825    0.5418 H         1 <0>         0.1164
     37 H6         -6.6301    3.1986    0.5629 H         1 <0>         0.1010
     38 H7         -4.1619    3.5573    0.9252 H         1 <0>         0.1104
     39 H8         -4.7880    4.4020   -0.5117 H         1 <0>         0.0853
     40 H9         -3.3933    1.6866   -0.5251 H         1 <0>         0.0902
     41 H10        -4.3658    3.5009   -2.7793 H         1 <0>         0.0829
     42 H11        -3.4323    1.9999   -2.9937 H         1 <0>         0.1044
     43 H12        -5.2267    0.6870   -1.9623 H         1 <0>         0.1097
     44 H13        -5.9145    1.6709   -3.2799 H         1 <0>         0.1155
     45 H14        -2.2820    0.8625   -1.6230 H         1 <0>         0.1346
     46 H15        -0.2704   -0.4357   -2.0971 H         1 <0>         0.1406
     47 H16         0.0710    4.3765   -1.0062 H         1 <0>         0.1239
     48 H17         4.9333    1.8672   -3.0884 H         1 <0>         0.0911
     49 H18         5.1520    2.3837   -1.3991 H         1 <0>         0.0836
     50 H19         4.9848    0.6545   -1.7865 H         1 <0>         0.1075
     51 H20         2.4792    4.7725   -0.6017 H         1 <0>         0.1088
     52 H21         4.0978    4.0964   -0.9041 H         1 <0>         0.1181
     53 H22         5.1331    4.2582   -3.0762 H         1 <0>         0.1469
     54 H23         5.3116    5.4763   -5.1779 H         1 <0>         0.1521
     55 H24         4.3173    7.0465   -6.8206 H         1 <0>         0.1559
     56 H25         2.4575    8.4677   -7.4941 H         1 <0>         0.1313
     57 H26         0.2644    7.4343   -3.9966 H         1 <0>         0.1309
     58 H27         1.2589    5.8640   -2.3538 H         1 <0>         0.1383
     59 H28         0.2780    9.9178   -5.8268 H         1 <0>         0.2184
     60 H29         0.9268    9.3851   -8.0564 H         1 <0>         0.4768
     61 H30        -0.0499    8.0392   -8.0754 H         1 <0>         0.4537
     62 H31        -1.9200    8.9547   -6.0001 H         1 <0>         0.4553
     63 H32        -1.2773    7.4208   -6.0119 H         1 <0>         0.4526
     64 N4         -8.3971    3.2442   -0.7971 N.pl3     1 <0>        -0.7623
     65 H33        -8.0234    3.4226    0.1425 H         1 <0>         0.4404
     66 N5          0.0692    8.9747   -7.6905 N.4       1 <0>        -0.6577
     67 H34        -0.7278    9.5572   -7.9727 H         1 <0>         0.4575
     68 N6         -1.1402    8.3774   -5.6897 N.4       1 <0>        -0.6631
     69 H35        -1.1063    8.3837   -4.6635 H         1 <0>         0.4743
@<TRIPOS>BOND
     1    1   64 1
     2    2    3 1
     3    2    4 1
     4    2   64 2
     5    3   33 1
     6    3   34 1
     7    3   35 1
     8    4    9 1
     9    4    5 1
    10    5    6 1
    11    5   36 1
    12    5   37 1
    13    6    7 1
    14    6   38 1
    15    6   39 1
    16    7    8 1
    17    7   10 1
    18    7   40 1
    19    8    9 1
    20    8   41 1
    21    8   42 1
    22    9   43 1
    23    9   44 1
    24   10   11 1
    25   11   16 ar
    26   11   12 ar
    27   12   13 ar
    28   12   45 1
    29   13   14 ar
    30   13   46 1
    31   14   19 1
    32   14   15 ar
    33   15   16 ar
    34   15   17 1
    35   16   47 1
    36   17   18 1
    37   17   21 1
    38   18   19 2
    39   18   20 1
    40   20   48 1
    41   20   49 1
    42   20   50 1
    43   21   22 1
    44   21   51 1
    45   21   52 1
    46   22   31 ar
    47   22   23 ar
    48   23   24 ar
    49   23   53 1
    50   24   25 ar
    51   24   54 1
    52   25   30 ar
    53   25   26 ar
    54   26   27 ar
    55   26   55 1
    56   27   28 ar
    57   27   56 1
    58   28   29 ar
    59   28   32 1
    60   29   30 ar
    61   29   57 1
    62   30   31 ar
    63   31   58 1
    64   32   59 1
    65   32   66 1
    66   32   68 1
    67   60   66 1
    68   61   66 1
    69   62   68 1
    70   63   68 1
    71   64   65 1
    72   66   67 1
    73   68   69 1
@<TRIPOS>MOLECULE
ZINC03815825
   70    74     0     0     0
SMALL
USER_CHARGES

@<TRIPOS>ATOM
      1 H1         -9.3557    3.5096   -1.0236 H         1 <0>         0.4629
      2 C1         -7.6402    2.6736   -1.7082 C.cat     1 <0>         0.5341
      3 C2         -8.1199    2.3810   -3.1064 C.3       1 <0>        -0.1581
      4 N1         -6.3632    2.3424   -1.3387 N.pl3     1 <0>        -0.5730
      5 C3         -5.8810    2.6214    0.0209 C.3       1 <0>         0.0864
      6 C4         -4.5809    3.4262   -0.0724 C.3       1 <0>        -0.1321
      7 C5         -3.5808    2.6720   -0.9516 C.3       1 <0>         0.0778
      8 C6         -4.1549    2.5164   -2.3617 C.3       1 <0>        -0.1641
      9 C7         -5.4499    1.7010   -2.2943 C.3       1 <0>         0.0957
     10 O1         -2.3554    3.4045   -1.0145 O.3       1 <0>        -0.2933
     11 C8         -1.2260    2.6963   -1.2812 C.ar      1 <0>         0.1809
     12 C9         -1.3150    1.3424   -1.5939 C.ar      1 <0>        -0.1756
     13 C10        -0.1906    0.6148   -1.8592 C.ar      1 <0>        -0.0184
     14 C11         1.0633    1.2313   -1.8285 C.ar      1 <0>         0.0153
     15 C12         1.1558    2.5985   -1.5183 C.ar      1 <0>         0.1252
     16 C13         0.0052    3.3253   -1.2455 C.ar      1 <0>        -0.1431
     17 N2          2.4999    2.9104   -1.5666 N.pl3     1 <0>        -0.4396
     18 C14         3.1685    1.7701   -1.8925 C.cat     1 <0>         0.4097
     19 C15         4.6631    1.6614   -2.0527 C.3       1 <0>        -0.1336
     20 C16         3.0960    4.2245   -1.3141 C.3       1 <0>         0.1341
     21 C17         3.1769    4.9960   -2.6062 C.ar      1 <0>        -0.1012
     22 C18         4.3192    4.8912   -3.3979 C.ar      1 <0>        -0.0773
     23 C19         4.4220    5.5702   -4.5729 C.ar      1 <0>        -0.0884
     24 C20         3.3674    6.3995   -4.9913 C.ar      1 <0>        -0.0159
     25 C21         3.4402    7.1213   -6.1950 C.ar      1 <0>        -0.0415
     26 C22         2.3992    7.9143   -6.5685 C.ar      1 <0>        -0.1290
     27 C23         1.2592    8.0235   -5.7741 C.ar      1 <0>        -0.1911
     28 C24         1.1537    7.3397   -4.6022 C.ar      1 <0>        -0.0590
     29 C25         2.2082    6.5103   -4.1836 C.ar      1 <0>        -0.0527
     30 C26         2.1359    5.7890   -2.9795 C.ar      1 <0>        -0.0744
     31 C27         0.1266    8.9123   -6.2194 C.3       1 <0>         0.2434
     32 H2         -8.0613    1.3088   -3.2937 H         1 <0>         0.1342
     33 H3         -9.1528    2.7125   -3.2131 H         1 <0>         0.1247
     34 H4         -7.4926    2.9099   -3.8239 H         1 <0>         0.1264
     35 H5         -5.6930    1.6825    0.5418 H         1 <0>         0.1171
     36 H6         -6.6301    3.1986    0.5629 H         1 <0>         0.1050
     37 H7         -4.1619    3.5573    0.9252 H         1 <0>         0.1134
     38 H8         -4.7880    4.4020   -0.5117 H         1 <0>         0.0901
     39 H9         -3.3933    1.6866   -0.5251 H         1 <0>         0.0948
     40 H10        -4.3658    3.5009   -2.7793 H         1 <0>         0.0889
     41 H11        -3.4323    1.9999   -2.9937 H         1 <0>         0.1012
     42 H12        -5.2267    0.6870   -1.9623 H         1 <0>         0.1093
     43 H13        -5.9145    1.6709   -3.2799 H         1 <0>         0.1191
     44 H14        -2.2820    0.8625   -1.6230 H         1 <0>         0.1583
     45 H15        -0.2704   -0.4357   -2.0971 H         1 <0>         0.1628
     46 H16         0.0710    4.3765   -1.0062 H         1 <0>         0.1522
     47 H17         4.9333    1.8672   -3.0884 H         1 <0>         0.1319
     48 H18         5.1520    2.3837   -1.3991 H         1 <0>         0.1252
     49 H19         4.9848    0.6545   -1.7865 H         1 <0>         0.1334
     50 H20         2.4792    4.7725   -0.6017 H         1 <0>         0.1346
     51 H21         4.0978    4.0964   -0.9041 H         1 <0>         0.1391
     52 H22         5.1331    4.2582   -3.0762 H         1 <0>         0.1475
     53 H23         5.3116    5.4763   -5.1779 H         1 <0>         0.1569
     54 H24         4.3173    7.0465   -6.8206 H         1 <0>         0.1607
     55 H25         2.4575    8.4677   -7.4941 H         1 <0>         0.1372
     56 H26         0.2644    7.4343   -3.9966 H         1 <0>         0.1340
     57 H27         1.2589    5.8640   -2.3538 H         1 <0>         0.1406
     58 H28         0.2780    9.9178   -5.8268 H         1 <0>         0.2217
     59 H29         0.9268    9.3851   -8.0564 H         1 <0>         0.4783
     60 H30        -0.0499    8.0392   -8.0754 H         1 <0>         0.4537
     61 H31        -1.9200    8.9547   -6.0001 H         1 <0>         0.4590
     62 H32        -1.2773    7.4208   -6.0119 H         1 <0>         0.4515
     63 N3         -8.3971    3.2442   -0.7971 N.pl3     1 <0>        -0.7565
     64 H33        -8.0234    3.4226    0.1425 H         1 <0>         0.4413
     65 N4          0.0692    8.9747   -7.6905 N.4       1 <0>        -0.6579
     66 H34        -0.7278    9.5572   -7.9727 H         1 <0>         0.4611
     67 N5         -1.1402    8.3774   -5.6897 N.4       1 <0>        -0.6627
     68 H35        -1.1063    8.3837   -4.6635 H         1 <0>         0.4737
     69 N6          2.3296    0.7872   -2.0459 N.pl3     1 <0>        -0.4898
     70 H36         2.5850   -0.1760   -2.2932 H         1 <0>         0.4839
@<TRIPOS>BOND
     1    1   63 1
     2    2    3 1
     3    2    4 1
     4    2   63 2
     5    3   32 1
     6    3   33 1
     7    3   34 1
     8    4    9 1
     9    4    5 1
    10    5    6 1
    11    5   35 1
    12    5   36 1
    13    6    7 1
    14    6   37 1
    15    6   38 1
    16    7    8 1
    17    7   10 1
    18    7   39 1
    19    8    9 1
    20    8   40 1
    21    8   41 1
    22    9   42 1
    23    9   43 1
    24   10   11 1
    25   11   16 ar
    26   11   12 ar
    27   12   13 ar
    28   12   44 1
    29   13   14 ar
    30   13   45 1
    31   14   15 ar
    32   14   69 1
    33   15   16 ar
    34   15   17 1
    35   16   46 1
    36   17   18 1
    37   17   20 1
    38   18   19 1
    39   18   69 2
    40   19   47 1
    41   19   48 1
    42   19   49 1
    43   20   21 1
    44   20   50 1
    45   20   51 1
    46   21   30 ar
    47   21   22 ar
    48   22   23 ar
    49   22   52 1
    50   23   24 ar
    51   23   53 1
    52   24   29 ar
    53   24   25 ar
    54   25   26 ar
    55   25   54 1
    56   26   27 ar
    57   26   55 1
    58   27   28 ar
    59   27   31 1
    60   28   29 ar
    61   28   56 1
    62   29   30 ar
    63   30   57 1
    64   31   58 1
    65   31   65 1
    66   31   67 1
    67   59   65 1
    68   60   65 1
    69   61   67 1
    70   62   67 1
    71   63   64 1
    72   65   66 1
    73   67   68 1
    74   69   70 1
@<TRIPOS>MOLECULE
ZINC03815826
   49    52     0     0     0
SMALL
USER_CHARGES

@<TRIPOS>ATOM
      1 C1         -3.5451    2.7570   -4.5480 C.ar      1 <0>        -0.1102
      2 C2         -3.5279    2.0864   -3.3579 C.ar      1 <0>        -0.0548
      3 C3         -2.3371    1.9822   -2.6346 C.ar      1 <0>         0.0626
      4 C4         -1.1650    2.5659   -3.1448 C.ar      1 <0>         0.0660
      5 C5         -1.2030    3.2487   -4.3528 C.ar      1 <0>        -0.0238
      6 C6         -2.3893    3.3381   -5.0496 C.ar      1 <0>        -0.2050
      7 C7         -2.4312    4.0728   -6.3648 C.3       1 <0>         0.2537
      8 N1         -0.1744    2.3024   -2.2200 N.2       1 <0>        -0.4543
      9 H1         -2.6354    0.8876   -0.8678 H         1 <0>         0.4374
     10 C8         -0.7416    1.5850   -1.2129 C.2       1 <0>         0.3079
     11 N2         -2.0049    1.3926   -1.4573 N.pl3     1 <0>        -0.5385
     12 C9         -0.0127    1.0858    0.0080 C.3       1 <0>         0.0139
     13 C10        -0.7181    1.5718    1.2479 C.2       1 <0>         0.3142
     14 N3         -1.1661    0.7726    2.2535 N.pl3     1 <0>        -0.5860
     15 H2         -1.0867   -0.2232    2.2992 H         1 <0>         0.4477
     16 C11        -1.7506    1.5911    3.1991 C.ar      1 <0>         0.0560
     17 C12        -2.3722    1.3674    4.4200 C.ar      1 <0>        -0.0638
     18 C13        -2.8631    2.4344    5.1420 C.ar      1 <0>        -0.1907
     19 C14        -2.7413    3.7282    4.6556 C.ar      1 <0>        -0.1200
     20 C15        -2.1330    3.9674    3.4560 C.ar      1 <0>        -0.0192
     21 C16        -1.6271    2.9017    2.7072 C.ar      1 <0>         0.0938
     22 N4         -0.9824    2.8174    1.5152 N.2       1 <0>        -0.4659
     23 C17        -3.5374    2.1938    6.4681 C.3       1 <0>         0.2527
     24 H3         -4.4676    2.8353   -5.1042 H         1 <0>         0.1404
     25 H4         -4.4332    1.6372   -2.9770 H         1 <0>         0.1494
     26 H5         -0.3063    3.7034   -4.7475 H         1 <0>         0.1437
     27 H6         -2.2172    3.3774   -7.1765 H         1 <0>         0.2236
     28 H7         -4.4681    3.9343   -6.6298 H         1 <0>         0.4747
     29 H8         -3.9879    5.3040   -5.8179 H         1 <0>         0.4526
     30 H9         -0.5066    4.7759   -6.1641 H         1 <0>         0.4744
     31 H10        -1.4338    5.6516   -7.2315 H         1 <0>         0.4596
     32 H11         0.0021   -0.0041    0.0020 H         1 <0>         0.1372
     33 H12         1.0099    1.4631    0.0003 H         1 <0>         0.1622
     34 H13        -2.4701    0.3623    4.8028 H         1 <0>         0.1374
     35 H14        -3.1310    4.5546    5.2315 H         1 <0>         0.1417
     36 H15        -2.0429    4.9784    3.0871 H         1 <0>         0.1587
     37 H16        -2.7948    2.2301    7.2652 H         1 <0>         0.2245
     38 H17        -5.0190    3.0917    7.5803 H         1 <0>         0.4603
     39 H18        -4.1453    4.1529    6.6442 H         1 <0>         0.4752
     40 H19        -4.8739    0.8143    5.7270 H         1 <0>         0.4519
     41 H20        -3.4957    0.1380    6.3666 H         1 <0>         0.4735
     42 N5         -3.7622    4.6671   -6.5802 N.4       1 <0>        -0.6610
     43 H21        -3.7594    5.1899   -7.4639 H         1 <0>         0.4616
     44 N6         -1.4343    5.1578   -6.3405 N.4       1 <0>        -0.6634
     45 H22        -1.6726    5.8184   -5.5915 H         1 <0>         0.4546
     46 N7         -4.5676    3.2265    6.6771 N.4       1 <0>        -0.6605
     47 H23        -5.2739    3.1537    5.9354 H         1 <0>         0.4544
     48 N8         -4.1913    0.8733    6.4808 N.4       1 <0>        -0.6633
     49 H24        -4.6719    0.7433    7.3788 H         1 <0>         0.4629
@<TRIPOS>BOND
     1    1    6 ar
     2    1    2 ar
     3    1   24 1
     4    2    3 ar
     5    2   25 1
     6    3   11 1
     7    3    4 ar
     8    4    5 ar
     9    4    8 1
    10    5    6 ar
    11    5   26 1
    12    6    7 1
    13    7   27 1
    14    7   42 1
    15    7   44 1
    16    8   10 2
    17    9   11 1
    18   10   12 1
    19   10   11 1
    20   12   13 1
    21   12   32 1
    22   12   33 1
    23   13   22 2
    24   13   14 1
    25   14   15 1
    26   14   16 1
    27   16   21 ar
    28   16   17 ar
    29   17   18 ar
    30   17   34 1
    31   18   19 ar
    32   18   23 1
    33   19   20 ar
    34   19   35 1
    35   20   21 ar
    36   20   36 1
    37   21   22 1
    38   23   37 1
    39   23   46 1
    40   23   48 1
    41   28   42 1
    42   29   42 1
    43   30   44 1
    44   31   44 1
    45   38   46 1
    46   39   46 1
    47   40   48 1
    48   41   48 1
    49   42   43 1
    50   44   45 1
    51   46   47 1
    52   48   49 1
@<TRIPOS>MOLECULE
ZINC03815826
   50    53     0     0     0
SMALL
USER_CHARGES

@<TRIPOS>ATOM
      1 C1         -3.5411    2.7415   -4.5568 C.ar      1 <0>        -0.1142
      2 C2         -3.5245    2.0731   -3.3654 C.ar      1 <0>        -0.0141
      3 C3         -2.3350    1.9742   -2.6391 C.ar      1 <0>         0.0867
      4 C4         -1.1650    2.5659   -3.1448 C.ar      1 <0>         0.0696
      5 C5         -1.2011    3.2413   -4.3570 C.ar      1 <0>        -0.0686
      6 C6         -2.3860    3.3255   -5.0568 C.ar      1 <0>        -0.1696
      7 C7         -2.4272    4.0576   -6.3734 C.3       1 <0>         0.2488
      8 N1         -0.1744    2.3024   -2.2200 N.pl3     1 <0>        -0.5767
      9 H1          0.7826    2.5863   -2.2794 H         1 <0>         0.4527
     10 C8         -0.7416    1.5850   -1.2129 C.2       1 <0>         0.2765
     11 N2         -2.0037    1.3880   -1.4599 N.2       1 <0>        -0.4628
     12 C9         -0.0127    1.0858    0.0080 C.3       1 <0>        -0.0120
     13 C10        -0.7181    1.5718    1.2479 C.cat     1 <0>         0.4564
     14 N3         -1.1661    0.7726    2.2535 N.pl3     1 <0>        -0.5180
     15 H2         -1.0867   -0.2232    2.2992 H         1 <0>         0.4877
     16 C11        -1.7506    1.5911    3.1991 C.ar      1 <0>         0.0992
     17 C12        -2.3722    1.3674    4.4200 C.ar      1 <0>        -0.0490
     18 C13        -2.8631    2.4344    5.1420 C.ar      1 <0>        -0.1518
     19 C14        -2.7413    3.7282    4.6556 C.ar      1 <0>        -0.0768
     20 C15        -2.1330    3.9674    3.4560 C.ar      1 <0>        -0.0304
     21 C16        -1.6271    2.9017    2.7072 C.ar      1 <0>         0.0957
     22 C17        -3.5374    2.1938    6.4681 C.3       1 <0>         0.2467
     23 H3         -4.4625    2.8157   -5.1153 H         1 <0>         0.1487
     24 H4         -4.4292    1.6216   -2.9858 H         1 <0>         0.1621
     25 H5         -0.3050    3.6982   -4.7504 H         1 <0>         0.1434
     26 H6         -2.2090    3.3614   -7.1833 H         1 <0>         0.2284
     27 H7         -4.4630    3.9118   -6.6430 H         1 <0>         0.4775
     28 H8         -3.9893    5.2846   -5.8325 H         1 <0>         0.4531
     29 H9         -0.5055    4.7674   -6.1695 H         1 <0>         0.4722
     30 H10        -1.4330    5.6380   -7.2407 H         1 <0>         0.4652
     31 H11         0.0021   -0.0041    0.0020 H         1 <0>         0.1785
     32 H12         1.0099    1.4631    0.0003 H         1 <0>         0.1751
     33 H13        -2.4701    0.3623    4.8028 H         1 <0>         0.1661
     34 H14        -3.1310    4.5546    5.2315 H         1 <0>         0.1662
     35 H15        -2.0429    4.9784    3.0871 H         1 <0>         0.1803
     36 H16        -2.7948    2.2301    7.2652 H         1 <0>         0.2358
     37 H17        -5.0190    3.0917    7.5803 H         1 <0>         0.4702
     38 H18        -4.1453    4.1529    6.6442 H         1 <0>         0.4765
     39 H19        -4.8739    0.8143    5.7270 H         1 <0>         0.4553
     40 H20        -3.4957    0.1380    6.3666 H         1 <0>         0.4756
     41 N4         -3.7597    4.6470   -6.5931 N.4       1 <0>        -0.6607
     42 H21        -3.7565    5.1682   -7.4777 H         1 <0>         0.4666
     43 N5         -1.4340    5.1459   -6.3488 N.4       1 <0>        -0.6630
     44 H22        -1.6763    5.8071   -5.6016 H         1 <0>         0.4540
     45 N6         -4.5676    3.2265    6.6771 N.4       1 <0>        -0.6616
     46 H23        -5.2739    3.1537    5.9354 H         1 <0>         0.4576
     47 N7         -4.1913    0.8733    6.4808 N.4       1 <0>        -0.6640
     48 H24        -4.6719    0.7433    7.3788 H         1 <0>         0.4726
     49 N8         -0.9821    2.8183    1.5145 N.pl3     1 <0>        -0.4954
     50 H25        -0.7400    3.6161    0.9153 H         1 <0>         0.4874
@<TRIPOS>BOND
     1    1    6 ar
     2    1    2 ar
     3    1   23 1
     4    2    3 ar
     5    2   24 1
     6    3   11 1
     7    3    4 ar
     8    4    5 ar
     9    4    8 1
    10    5    6 ar
    11    5   25 1
    12    6    7 1
    13    7   26 1
    14    7   41 1
    15    7   43 1
    16    8    9 1
    17    8   10 1
    18   10   11 2
    19   10   12 1
    20   12   13 1
    21   12   31 1
    22   12   32 1
    23   13   14 1
    24   13   49 2
    25   14   15 1
    26   14   16 1
    27   16   21 ar
    28   16   17 ar
    29   17   18 ar
    30   17   33 1
    31   18   19 ar
    32   18   22 1
    33   19   20 ar
    34   19   34 1
    35   20   21 ar
    36   20   35 1
    37   21   49 1
    38   22   36 1
    39   22   45 1
    40   22   47 1
    41   27   41 1
    42   28   41 1
    43   29   43 1
    44   30   43 1
    45   37   45 1
    46   38   45 1
    47   39   47 1
    48   40   47 1
    49   41   42 1
    50   43   44 1
    51   45   46 1
    52   47   48 1
    53   49   50 1
@<TRIPOS>MOLECULE
ZINC03815826
   49    52     0     0     0
SMALL
USER_CHARGES

@<TRIPOS>ATOM
      1 C1         -3.5451    2.7570   -4.5480 C.ar      1 <0>        -0.1102
      2 C2         -3.5279    2.0864   -3.3579 C.ar      1 <0>        -0.0548
      3 C3         -2.3371    1.9822   -2.6346 C.ar      1 <0>         0.0626
      4 C4         -1.1650    2.5659   -3.1448 C.ar      1 <0>         0.0660
      5 C5         -1.2030    3.2487   -4.3528 C.ar      1 <0>        -0.0238
      6 C6         -2.3893    3.3381   -5.0496 C.ar      1 <0>        -0.2050
      7 C7         -2.4312    4.0728   -6.3648 C.3       1 <0>         0.2537
      8 N1         -0.1744    2.3024   -2.2200 N.2       1 <0>        -0.4543
      9 H1         -2.6354    0.8876   -0.8678 H         1 <0>         0.4374
     10 C8         -0.7416    1.5850   -1.2129 C.2       1 <0>         0.3079
     11 N2         -2.0049    1.3926   -1.4573 N.pl3     1 <0>        -0.5385
     12 C9         -0.0127    1.0858    0.0080 C.3       1 <0>         0.0139
     13 C10        -0.7181    1.5718    1.2479 C.2       1 <0>         0.3142
     14 N3         -1.1661    0.7726    2.2535 N.pl3     1 <0>        -0.5860
     15 H2         -1.0867   -0.2232    2.2992 H         1 <0>         0.4477
     16 C11        -1.7506    1.5911    3.1991 C.ar      1 <0>         0.0560
     17 C12        -2.3722    1.3674    4.4200 C.ar      1 <0>        -0.0638
     18 C13        -2.8631    2.4344    5.1420 C.ar      1 <0>        -0.1907
     19 C14        -2.7413    3.7282    4.6556 C.ar      1 <0>        -0.1200
     20 C15        -2.1330    3.9674    3.4560 C.ar      1 <0>        -0.0192
     21 C16        -1.6271    2.9017    2.7072 C.ar      1 <0>         0.0938
     22 N4         -0.9824    2.8174    1.5152 N.2       1 <0>        -0.4659
     23 C17        -3.5374    2.1938    6.4681 C.3       1 <0>         0.2527
     24 H3         -4.4676    2.8353   -5.1042 H         1 <0>         0.1404
     25 H4         -4.4332    1.6372   -2.9770 H         1 <0>         0.1494
     26 H5         -0.3063    3.7034   -4.7475 H         1 <0>         0.1437
     27 H6         -2.2172    3.3774   -7.1765 H         1 <0>         0.2236
     28 H7         -4.4681    3.9343   -6.6298 H         1 <0>         0.4747
     29 H8         -3.9879    5.3040   -5.8179 H         1 <0>         0.4526
     30 H9         -0.5066    4.7759   -6.1641 H         1 <0>         0.4744
     31 H10        -1.4338    5.6516   -7.2315 H         1 <0>         0.4596
     32 H11         0.0021   -0.0041    0.0020 H         1 <0>         0.1372
     33 H12         1.0099    1.4631    0.0003 H         1 <0>         0.1622
     34 H13        -2.4701    0.3623    4.8028 H         1 <0>         0.1374
     35 H14        -3.1310    4.5546    5.2315 H         1 <0>         0.1417
     36 H15        -2.0429    4.9784    3.0871 H         1 <0>         0.1587
     37 H16        -2.7948    2.2301    7.2652 H         1 <0>         0.2245
     38 H17        -5.0190    3.0917    7.5803 H         1 <0>         0.4603
     39 H18        -4.1453    4.1529    6.6442 H         1 <0>         0.4752
     40 H19        -4.8739    0.8143    5.7270 H         1 <0>         0.4519
     41 H20        -3.4957    0.1380    6.3666 H         1 <0>         0.4735
     42 N5         -3.7622    4.6671   -6.5802 N.4       1 <0>        -0.6610
     43 H21        -3.7594    5.1899   -7.4639 H         1 <0>         0.4616
     44 N6         -1.4343    5.1578   -6.3405 N.4       1 <0>        -0.6634
     45 H22        -1.6726    5.8184   -5.5915 H         1 <0>         0.4546
     46 N7         -4.5676    3.2265    6.6771 N.4       1 <0>        -0.6605
     47 H23        -5.2739    3.1537    5.9354 H         1 <0>         0.4544
     48 N8         -4.1913    0.8733    6.4808 N.4       1 <0>        -0.6633
     49 H24        -4.6719    0.7433    7.3788 H         1 <0>         0.4629
@<TRIPOS>BOND
     1    1    6 ar
     2    1    2 ar
     3    1   24 1
     4    2    3 ar
     5    2   25 1
     6    3   11 1
     7    3    4 ar
     8    4    5 ar
     9    4    8 1
    10    5    6 ar
    11    5   26 1
    12    6    7 1
    13    7   27 1
    14    7   42 1
    15    7   44 1
    16    8   10 2
    17    9   11 1
    18   10   12 1
    19   10   11 1
    20   12   13 1
    21   12   32 1
    22   12   33 1
    23   13   22 2
    24   13   14 1
    25   14   15 1
    26   14   16 1
    27   16   21 ar
    28   16   17 ar
    29   17   18 ar
    30   17   34 1
    31   18   19 ar
    32   18   23 1
    33   19   20 ar
    34   19   35 1
    35   20   21 ar
    36   20   36 1
    37   21   22 1
    38   23   37 1
    39   23   46 1
    40   23   48 1
    41   28   42 1
    42   29   42 1
    43   30   44 1
    44   31   44 1
    45   38   46 1
    46   39   46 1
    47   40   48 1
    48   41   48 1
    49   42   43 1
    50   44   45 1
    51   46   47 1
    52   48   49 1
@<TRIPOS>MOLECULE
ZINC03815827
   75    79     0     0     0
SMALL
USER_CHARGES

@<TRIPOS>ATOM
      1 C1         -1.5641   10.8984    8.8488 C.3       1 <0>        -0.1568
      2 C2         -0.8601    9.7671    8.0968 C.3       1 <0>         0.0664
      3 O1         -1.3507    8.4878    8.5773 O.3       1 <0>        -0.3508
      4 C3         -0.8301    7.3855    8.0155 C.2       1 <0>         0.4678
      5 O2          0.0079    7.4863    7.1509 O.2       1 <0>        -0.4915
      6 C4         -1.2907    6.0223    8.4632 C.3       1 <0>         0.0739
      7 O3         -0.5951    5.0174    7.7226 O.3       1 <0>        -0.1963
      8 N1         -0.9568    3.6929    8.0687 N.2       1 <0>        -0.3073
      9 C5         -0.3980    2.6927    7.4696 C.2       1 <0>         0.2273
     10 C6         -0.8741    1.3181    7.7264 C.ar      1 <0>         0.1495
     11 C7         -1.8515    1.0941    8.6966 C.ar      1 <0>        -0.1245
     12 C8         -2.2905   -0.1991    8.9221 C.ar      1 <0>        -0.0741
     13 C9         -1.7310   -1.2280    8.1780 C.ar      1 <0>        -0.1480
     14 C10        -0.7616   -0.9349    7.2351 C.ar      1 <0>         0.0994
     15 N2         -0.3645    0.3045    7.0359 N.ar      1 <0>        -0.4550
     16 C11         0.7391    2.9292    6.5093 C.3       1 <0>        -0.1057
     17 C12         1.6756    4.1039    6.7988 C.3       1 <0>        -0.1281
     18 C13         2.1585    2.6678    7.0170 C.3       1 <0>        -0.1385
     19 C14         0.4471    2.6116    5.0654 C.ar      1 <0>         0.0474
     20 C15         1.4756    2.1946    4.2322 C.ar      1 <0>        -0.0493
     21 C16         1.2267    1.8999    2.9087 C.ar      1 <0>        -0.0813
     22 C17        -0.0623    2.0216    2.4078 C.ar      1 <0>         0.0734
     23 C18        -1.1033    2.4438    3.2517 C.ar      1 <0>         0.0648
     24 C19        -0.8273    2.7375    4.5898 C.ar      1 <0>        -0.0768
     25 C20        -1.9598    2.1069    1.2827 C.cat     1 <0>         0.3276
     26 N3         -0.6363    1.8133    1.1696 N.pl3     1 <0>        -0.4056
     27 C21         0.0532    1.3653   -0.0428 C.3       1 <0>         0.0556
     28 C22        -2.9622    2.0203    0.1607 C.3       1 <0>         0.1706
     29 N4         -3.5498    0.6785    0.1333 N.pl3     1 <0>        -0.7307
     30 C23        -4.5117    0.3568   -0.8269 C.ar      1 <0>         0.2689
     31 C24        -4.9167    1.3097   -1.7530 C.ar      1 <0>        -0.1746
     32 C25        -5.8646    0.9869   -2.7041 C.ar      1 <0>        -0.0396
     33 C26        -6.4181   -0.2801   -2.7285 C.ar      1 <0>        -0.2718
     34 C27        -6.0211   -1.2295   -1.8048 C.ar      1 <0>        -0.0406
     35 C28        -5.0698   -0.9149   -0.8543 C.ar      1 <0>        -0.1592
     36 C29        -7.4561   -0.6272   -3.7645 C.3       1 <0>         0.2538
     37 H1         -2.6388   10.8343    8.6785 H         1 <0>         0.0685
     38 H2         -1.3592   10.8082    9.9155 H         1 <0>         0.0717
     39 H3         -1.1957   11.8588    8.4880 H         1 <0>         0.0871
     40 H4          0.2146    9.8313    8.2670 H         1 <0>         0.0762
     41 H5         -1.0650    9.8574    7.0300 H         1 <0>         0.0721
     42 H6         -2.3623    5.9255    8.2891 H         1 <0>         0.1057
     43 H7         -1.0828    5.8994    9.5261 H         1 <0>         0.1105
     44 H8         -2.2624    1.9183    9.2607 H         1 <0>         0.1480
     45 H9         -3.0487   -0.4032    9.6637 H         1 <0>         0.1464
     46 H10        -2.0496   -2.2482    8.3330 H         1 <0>         0.1439
     47 H11        -0.3248   -1.7339    6.6544 H         1 <0>         0.1631
     48 H12         2.0805    4.6470    5.9450 H         1 <0>         0.1100
     49 H13         1.4695    4.7055    7.6841 H         1 <0>         0.1191
     50 H14         2.2700    2.3252    8.0457 H         1 <0>         0.1101
     51 H15         2.8811    2.2662    6.3067 H         1 <0>         0.1126
     52 H16         2.4778    2.1001    4.6234 H         1 <0>         0.1642
     53 H17         2.0308    1.5762    2.2645 H         1 <0>         0.1576
     54 H18        -1.6201    3.0635    5.2467 H         1 <0>         0.1447
     55 H19         0.0336    0.2765   -0.0906 H         1 <0>         0.1097
     56 H20         1.0872    1.7094   -0.0210 H         1 <0>         0.1231
     57 H21        -0.4482    1.7765   -0.9189 H         1 <0>         0.1088
     58 H22        -3.7488    2.7582    0.3185 H         1 <0>         0.1276
     59 H23        -2.4636    2.2180   -0.7881 H         1 <0>         0.1261
     60 H24        -3.2707    0.0135    0.7820 H         1 <0>         0.4207
     61 H25        -4.4880    2.3008   -1.7316 H         1 <0>         0.1487
     62 H26        -6.1769    1.7260   -3.4270 H         1 <0>         0.1348
     63 H27        -6.4552   -2.2182   -1.8268 H         1 <0>         0.1358
     64 H28        -4.7599   -1.6569   -0.1333 H         1 <0>         0.1509
     65 H29        -8.4484   -0.3994   -3.3752 H         1 <0>         0.2176
     66 H30        -6.3009   -0.0343   -5.3622 H         1 <0>         0.4519
     67 H31        -7.9353   -0.0075   -5.6684 H         1 <0>         0.4585
     68 H32        -7.4696   -2.6204   -3.2493 H         1 <0>         0.4724
     69 H33        -8.0579   -2.3169   -4.7750 H         1 <0>         0.4581
     70 N5         -7.2165    0.1826   -4.9721 N.4       1 <0>        -0.6627
     71 H34        -7.2470    1.1781   -4.7224 H         1 <0>         0.4736
     72 N6         -7.3479   -2.0600   -4.0912 N.4       1 <0>        -0.6605
     73 H35        -6.4189   -2.2468   -4.4866 H         1 <0>         0.4540
     74 N7         -2.2356    2.4711    2.5016 N.pl3     1 <0>        -0.4774
     75 H36        -3.1661    2.7380    2.8437 H         1 <0>         0.4762
@<TRIPOS>BOND
     1    1    2 1
     2    1   37 1
     3    1   38 1
     4    1   39 1
     5    2    3 1
     6    2   40 1
     7    2   41 1
     8    3    4 1
     9    4    5 2
    10    4    6 1
    11    6    7 1
    12    6   42 1
    13    6   43 1
    14    7    8 1
    15    8    9 2
    16    9   10 1
    17    9   16 1
    18   10   15 ar
    19   10   11 ar
    20   11   12 ar
    21   11   44 1
    22   12   13 ar
    23   12   45 1
    24   13   14 ar
    25   13   46 1
    26   14   15 ar
    27   14   47 1
    28   16   18 1
    29   16   17 1
    30   16   19 1
    31   17   18 1
    32   17   48 1
    33   17   49 1
    34   18   50 1
    35   18   51 1
    36   19   24 ar
    37   19   20 ar
    38   20   21 ar
    39   20   52 1
    40   21   22 ar
    41   21   53 1
    42   22   26 1
    43   22   23 ar
    44   23   24 ar
    45   23   74 1
    46   24   54 1
    47   25   26 1
    48   25   28 1
    49   25   74 2
    50   26   27 1
    51   27   55 1
    52   27   56 1
    53   27   57 1
    54   28   29 1
    55   28   58 1
    56   28   59 1
    57   29   30 1
    58   29   60 1
    59   30   35 ar
    60   30   31 ar
    61   31   32 ar
    62   31   61 1
    63   32   33 ar
    64   32   62 1
    65   33   34 ar
    66   33   36 1
    67   34   35 ar
    68   34   63 1
    69   35   64 1
    70   36   65 1
    71   36   70 1
    72   36   72 1
    73   66   70 1
    74   67   70 1
    75   68   72 1
    76   69   72 1
    77   70   71 1
    78   72   73 1
    79   74   75 1
@<TRIPOS>MOLECULE
ZINC03832369
   53    56     0     0     0
SMALL
USER_CHARGES

@<TRIPOS>ATOM
      1 C1          3.8528   -1.7319   -0.0448 C.ar      1 <0>        -0.1340
      2 C2          3.6924   -0.3545   -0.0355 C.ar      1 <0>        -0.0262
      3 C3          2.4089    0.1479   -0.0202 C.ar      1 <0>        -0.1632
      4 C4          1.2787   -0.6995   -0.0139 C.ar      1 <0>         0.0695
      5 C5          0.0021   -0.0041    0.0020 C.2       1 <0>         0.0068
      6 C6         -0.0161    1.3383    0.0094 C.2       1 <0>        -0.7136
      7 S1          1.7115    1.7781   -0.0047 S.3       1 <0>         0.2415
      8 S2         -1.4146    2.4101    0.0222 S.o2      1 <0>         2.7166
      9 O1         -0.9820    3.6486   -0.5241 O.2       1 <0>        -0.9178
     10 O2         -2.4972    1.6718   -0.5272 O.2       1 <0>        -0.9289
     11 N1         -1.7952    2.6994    1.6077 N.pl3     1 <0>        -1.0932
     12 C7         -0.8568    3.4275    2.4653 C.3       1 <0>         0.1116
     13 H1         -0.1817    4.0340    1.8616 H         1 <0>         0.1379
     14 C8         -1.6223    4.3128    3.4759 C.3       1 <0>        -0.1392
     15 C9         -1.7059    3.3844    4.7077 C.3       1 <0>         0.0938
     16 N2         -0.5688    2.4649    4.5830 N.am      1 <0>        -0.6107
     17 C10        -0.0758    2.4648    3.3325 C.2       1 <0>         0.5113
     18 O3          0.8587    1.7906    2.9542 O.2       1 <0>        -0.5113
     19 C11        -0.0392    1.6516    5.6804 C.3       1 <0>         0.1571
     20 C12        -0.7464    0.3211    5.7063 C.ar      1 <0>        -0.1067
     21 C13        -0.1019   -0.8134    5.2518 C.ar      1 <0>        -0.0605
     22 C14        -0.7501   -2.0342    5.2753 C.ar      1 <0>        -0.2291
     23 C15        -2.0445   -2.1234    5.7539 C.ar      1 <0>        -0.0721
     24 C16        -2.6927   -0.9923    6.2102 C.ar      1 <0>        -0.1212
     25 C17        -2.0428    0.2334    6.1917 C.ar      1 <0>         0.1935
     26 O4         -2.6768    1.3469    6.6445 O.3       1 <0>        -0.4804
     27 C18        -0.0452   -3.2699    4.7780 C.3       1 <0>         0.2483
     28 N3          1.5108   -2.0285   -0.0237 N.ar      1 <0>        -0.4667
     29 C19         2.7191   -2.5306   -0.0383 C.ar      1 <0>         0.0986
     30 H2          4.8386   -2.1727   -0.0566 H         1 <0>         0.1571
     31 H3          4.5477    0.3049   -0.0398 H         1 <0>         0.1532
     32 H4         -0.9227   -0.5619    0.0082 H         1 <0>         0.1536
     33 H5         -2.6396    2.3867    1.9686 H         1 <0>         0.4240
     34 H6         -1.0595    5.2173    3.7066 H         1 <0>         0.1126
     35 H7         -2.6169    4.5588    3.1039 H         1 <0>         0.1149
     36 H8         -1.6212    3.9666    5.6253 H         1 <0>         0.1026
     37 H9         -2.6441    2.8295    4.6989 H         1 <0>         0.0675
     38 H10         1.0289    1.4925    5.5320 H         1 <0>         0.1032
     39 H11        -0.2016    2.1679    6.6265 H         1 <0>         0.1142
     40 H12         0.9089   -0.7464    4.8775 H         1 <0>         0.1354
     41 H13        -2.5487   -3.0783    5.7713 H         1 <0>         0.1382
     42 H14        -3.7035   -1.0625    6.5843 H         1 <0>         0.1613
     43 H15        -3.1744    1.8204    5.9639 H         1 <0>         0.4095
     44 H16         0.4869   -3.7419    5.6040 H         1 <0>         0.2206
     45 H17        -1.5832   -3.7746    3.5059 H         1 <0>         0.4547
     46 H18        -0.5843   -5.0475    3.8903 H         1 <0>         0.4573
     47 H19         1.4435   -3.6999    3.4226 H         1 <0>         0.4571
     48 H20         0.4429   -2.4584    2.9500 H         1 <0>         0.4538
     49 H21         2.8375   -3.6040   -0.0455 H         1 <0>         0.1680
     50 N4         -1.0461   -4.2145    4.2514 N.4       1 <0>        -0.6584
     51 H22        -1.6843   -4.4867    5.0083 H         1 <0>         0.4763
     52 N5          0.9264   -2.8818    3.7403 N.4       1 <0>        -0.6632
     53 H23         1.5861   -2.2004    4.1336 H         1 <0>         0.4747
@<TRIPOS>BOND
     1    1   29 ar
     2    1    2 ar
     3    1   30 1
     4    2    3 ar
     5    2   31 1
     6    3    7 1
     7    3    4 ar
     8    4    5 1
     9    4   28 ar
    10    5    6 2
    11    5   32 1
    12    6    7 1
    13    6    8 1
    14    8    9 2
    15    8   10 2
    16    8   11 1
    17   11   12 1
    18   11   33 1
    19   12   13 1
    20   12   17 1
    21   12   14 1
    22   14   15 1
    23   14   34 1
    24   14   35 1
    25   15   16 1
    26   15   36 1
    27   15   37 1
    28   16   17 am
    29   16   19 1
    30   17   18 2
    31   19   20 1
    32   19   38 1
    33   19   39 1
    34   20   25 ar
    35   20   21 ar
    36   21   22 ar
    37   21   40 1
    38   22   23 ar
    39   22   27 1
    40   23   24 ar
    41   23   41 1
    42   24   25 ar
    43   24   42 1
    44   25   26 1
    45   26   43 1
    46   27   44 1
    47   27   50 1
    48   27   52 1
    49   28   29 ar
    50   29   49 1
    51   45   50 1
    52   46   50 1
    53   47   52 1
    54   48   52 1
    55   50   51 1
    56   52   53 1
@<TRIPOS>MOLECULE
ZINC03832370
   73    78     0     0     0
SMALL
USER_CHARGES

@<TRIPOS>ATOM
      1 H1          8.3450    6.3630   -3.5554 H         1 <0>         0.4322
      2 C1          8.8605    5.7244   -1.7015 C.cat     1 <0>         0.5286
      3 C2         10.0387    5.5407   -0.7802 C.3       1 <0>        -0.1705
      4 N1          7.6121    5.3223   -1.3054 N.pl3     1 <0>        -0.5530
      5 C3          7.3844    4.8199    0.0564 C.3       1 <0>         0.0969
      6 C4          6.7111    3.4467   -0.0308 C.3       1 <0>        -0.1340
      7 C5          5.4428    3.5578   -0.8800 C.3       1 <0>         0.0803
      8 C6          5.8128    4.0051   -2.2960 C.3       1 <0>        -0.1582
      9 C7          6.4756    5.3849   -2.2346 C.3       1 <0>         0.0857
     10 O1          4.7949    2.2854   -0.9367 O.3       1 <0>        -0.3054
     11 C8          3.4646    2.2823   -1.2147 C.ar      1 <0>         0.1541
     12 C9          2.7860    3.4884   -1.3586 C.ar      1 <0>        -0.2388
     13 C10         1.4381    3.4951   -1.6407 C.ar      1 <0>        -0.0125
     14 C11         0.7529    2.2901   -1.7813 C.ar      1 <0>        -0.1231
     15 C12        -0.6525    1.9524   -2.0740 C.ar      1 <0>        -0.0990
     16 C13        -1.7925    2.7177   -2.3079 C.ar      1 <0>        -0.0619
     17 C14        -2.9950    2.0944   -2.5627 C.ar      1 <0>        -0.1351
     18 C15        -3.0745    0.7103   -2.5770 C.ar      1 <0>        -0.0748
     19 C16        -1.9551   -0.0588   -2.3423 C.ar      1 <0>        -0.1415
     20 C17        -0.7310    0.5520   -2.0882 C.ar      1 <0>         0.1331
     21 N2          0.5283    0.0418   -1.8248 N.pl3     1 <0>        -0.5003
     22 C18         1.4333    1.0716   -1.6375 C.ar      1 <0>         0.1842
     23 C19         2.7948    1.0803   -1.3530 C.ar      1 <0>        -0.1848
     24 C20         0.8559   -1.3843   -1.7539 C.3       1 <0>         0.1427
     25 C21         1.2589   -1.8758   -3.1203 C.ar      1 <0>        -0.0709
     26 C22         0.2873   -2.3825   -3.9816 C.ar      1 <0>        -0.0606
     27 C23         0.6167   -2.8292   -5.2242 C.ar      1 <0>        -0.1017
     28 C24         1.9574   -2.7913   -5.6438 C.ar      1 <0>        -0.0220
     29 C25         2.3367   -3.2500   -6.9170 C.ar      1 <0>        -0.0402
     30 C26         3.6447   -3.1977   -7.2895 C.ar      1 <0>        -0.1410
     31 C27         4.6171   -2.6959   -6.4262 C.ar      1 <0>        -0.2064
     32 C28         4.2869   -2.2434   -5.1859 C.ar      1 <0>        -0.0538
     33 C29         2.9462   -2.2812   -4.7661 C.ar      1 <0>        -0.0500
     34 C30         2.5669   -1.8232   -3.4926 C.ar      1 <0>        -0.0898
     35 C31         6.0558   -2.6544   -6.8727 C.3       1 <0>         0.2486
     36 H2         10.1624    4.4815   -0.5551 H         1 <0>         0.1283
     37 H3         10.9403    5.9171   -1.2639 H         1 <0>         0.1203
     38 H4          9.8660    6.0910    0.1448 H         1 <0>         0.1317
     39 H5          6.7372    5.5105    0.5972 H         1 <0>         0.1136
     40 H6          8.3370    4.7274    0.5780 H         1 <0>         0.1214
     41 H7          6.4496    3.1054    0.9708 H         1 <0>         0.1128
     42 H8          7.3957    2.7339   -0.4908 H         1 <0>         0.0856
     43 H9          4.7691    4.2887   -0.4327 H         1 <0>         0.0912
     44 H10         6.5061    3.2875   -2.7348 H         1 <0>         0.0803
     45 H11         4.9119    4.0614   -2.9069 H         1 <0>         0.1026
     46 H12         5.7543    6.1215   -1.8805 H         1 <0>         0.1129
     47 H13         6.8294    5.6671   -3.2261 H         1 <0>         0.0952
     48 H14         3.3179    4.4220   -1.2490 H         1 <0>         0.1307
     49 H15         0.9133    4.4323   -1.7527 H         1 <0>         0.1346
     50 H16        -1.7327    3.7961   -2.2971 H         1 <0>         0.1293
     51 H17        -3.8792    2.6861   -2.7481 H         1 <0>         0.1351
     52 H18        -4.0220    0.2306   -2.7737 H         1 <0>         0.1364
     53 H19        -2.0281   -1.1362   -2.3559 H         1 <0>         0.1224
     54 H20         3.3289    0.1484   -1.2406 H         1 <0>         0.1246
     55 H21         1.6803   -1.5334   -1.0564 H         1 <0>         0.1054
     56 H22        -0.0160   -1.9408   -1.4101 H         1 <0>         0.1105
     57 H23        -0.7430   -2.4170   -3.6596 H         1 <0>         0.1444
     58 H24        -0.1474   -3.2159   -5.8822 H         1 <0>         0.1507
     59 H25         1.5941   -3.6414   -7.5965 H         1 <0>         0.1550
     60 H26         3.9335   -3.5504   -8.2685 H         1 <0>         0.1305
     61 H27         5.0512   -1.8577   -4.5275 H         1 <0>         0.1302
     62 H28         3.3095   -1.4320   -2.8131 H         1 <0>         0.1382
     63 H29         6.5487   -3.5869   -6.5976 H         1 <0>         0.2212
     64 H30         5.7052   -3.2759   -8.8038 H         1 <0>         0.4767
     65 H31         5.6606   -1.6247   -8.6110 H         1 <0>         0.4529
     66 H32         6.6585   -1.5898   -5.2168 H         1 <0>         0.4713
     67 H33         7.7057   -1.4793   -6.5041 H         1 <0>         0.4553
     68 N3          9.0953    6.2815   -2.8690 N.pl3     1 <0>        -0.7605
     69 H34        10.0338    6.6346   -3.0899 H         1 <0>         0.4660
     70 N4          6.1364   -2.4817   -8.3339 N.4       1 <0>        -0.6606
     71 H35         7.1228   -2.4224   -8.6128 H         1 <0>         0.4572
     72 N5          6.7250   -1.5095   -6.2301 N.4       1 <0>        -0.6640
     73 H36         6.2670   -0.6402   -6.5280 H         1 <0>         0.4532
@<TRIPOS>BOND
     1    1   68 1
     2    2    3 1
     3    2    4 1
     4    2   68 2
     5    3   36 1
     6    3   37 1
     7    3   38 1
     8    4    9 1
     9    4    5 1
    10    5    6 1
    11    5   39 1
    12    5   40 1
    13    6    7 1
    14    6   41 1
    15    6   42 1
    16    7    8 1
    17    7   10 1
    18    7   43 1
    19    8    9 1
    20    8   44 1
    21    8   45 1
    22    9   46 1
    23    9   47 1
    24   10   11 1
    25   11   23 ar
    26   11   12 ar
    27   12   13 ar
    28   12   48 1
    29   13   14 ar
    30   13   49 1
    31   14   22 ar
    32   14   15 1
    33   15   20 ar
    34   15   16 ar
    35   16   17 ar
    36   16   50 1
    37   17   18 ar
    38   17   51 1
    39   18   19 ar
    40   18   52 1
    41   19   20 ar
    42   19   53 1
    43   20   21 1
    44   21   22 1
    45   21   24 1
    46   22   23 ar
    47   23   54 1
    48   24   25 1
    49   24   55 1
    50   24   56 1
    51   25   34 ar
    52   25   26 ar
    53   26   27 ar
    54   26   57 1
    55   27   28 ar
    56   27   58 1
    57   28   33 ar
    58   28   29 ar
    59   29   30 ar
    60   29   59 1
    61   30   31 ar
    62   30   60 1
    63   31   32 ar
    64   31   35 1
    65   32   33 ar
    66   32   61 1
    67   33   34 ar
    68   34   62 1
    69   35   63 1
    70   35   70 1
    71   35   72 1
    72   64   70 1
    73   65   70 1
    74   66   72 1
    75   67   72 1
    76   68   69 1
    77   70   71 1
    78   72   73 1
@<TRIPOS>MOLECULE
ZINC03832371
   74    78     0     0     0
SMALL
USER_CHARGES

@<TRIPOS>ATOM
      1 C1         -1.5641   10.8984    8.8488 C.3       1 <0>        -0.1548
      2 C2         -0.8601    9.7671    8.0968 C.3       1 <0>         0.0651
      3 O1         -1.3507    8.4878    8.5773 O.3       1 <0>        -0.3535
      4 C3         -0.8301    7.3855    8.0155 C.2       1 <0>         0.4666
      5 O2          0.0079    7.4863    7.1509 O.2       1 <0>        -0.4870
      6 C4         -1.2907    6.0223    8.4632 C.3       1 <0>         0.0757
      7 O3         -0.5951    5.0174    7.7226 O.3       1 <0>        -0.1953
      8 N1         -0.9568    3.6929    8.0687 N.2       1 <0>        -0.3176
      9 C5         -0.3980    2.6927    7.4696 C.2       1 <0>         0.2365
     10 C6         -0.8741    1.3181    7.7264 C.ar      1 <0>         0.1600
     11 C7         -1.8515    1.0941    8.6966 C.ar      1 <0>        -0.1282
     12 C8         -2.2905   -0.1991    8.9221 C.ar      1 <0>        -0.0778
     13 C9         -1.7310   -1.2280    8.1780 C.ar      1 <0>        -0.1543
     14 C10        -0.7616   -0.9349    7.2351 C.ar      1 <0>         0.1005
     15 N2         -0.3645    0.3045    7.0359 N.ar      1 <0>        -0.4444
     16 C11         0.7391    2.9292    6.5093 C.3       1 <0>        -0.0825
     17 C12         1.6756    4.1039    6.7988 C.3       1 <0>        -0.1374
     18 C13         2.1585    2.6678    7.0170 C.3       1 <0>        -0.1467
     19 C14         0.4471    2.6116    5.0654 C.ar      1 <0>        -0.0132
     20 C15         1.4756    2.1946    4.2322 C.ar      1 <0>        -0.0721
     21 C16         1.2267    1.8999    2.9087 C.ar      1 <0>        -0.1114
     22 C17        -0.0623    2.0216    2.4078 C.ar      1 <0>         0.0585
     23 C18        -1.1033    2.4438    3.2517 C.ar      1 <0>         0.0480
     24 C19        -0.8273    2.7375    4.5898 C.ar      1 <0>        -0.0468
     25 N3         -2.2346    2.4708    2.5013 N.2       1 <0>        -0.4578
     26 C20        -1.9598    2.1069    1.2827 C.2       1 <0>         0.2242
     27 N4         -0.6363    1.8133    1.1696 N.pl3     1 <0>        -0.4837
     28 C21         0.0532    1.3653   -0.0428 C.3       1 <0>         0.0768
     29 C22        -2.9622    2.0203    0.1607 C.3       1 <0>         0.1995
     30 N5         -3.5498    0.6785    0.1333 N.pl3     1 <0>        -0.7039
     31 C23        -4.5117    0.3568   -0.8269 C.ar      1 <0>         0.2814
     32 C24        -4.9167    1.3097   -1.7530 C.ar      1 <0>        -0.1801
     33 C25        -5.8646    0.9869   -2.7041 C.ar      1 <0>        -0.0382
     34 C26        -6.4181   -0.2801   -2.7285 C.ar      1 <0>        -0.2993
     35 C27        -6.0211   -1.2295   -1.8048 C.ar      1 <0>        -0.0399
     36 C28        -5.0698   -0.9149   -0.8543 C.ar      1 <0>        -0.1724
     37 C29        -7.4561   -0.6272   -3.7645 C.3       1 <0>         0.2582
     38 H1         -2.6388   10.8343    8.6785 H         1 <0>         0.0680
     39 H2         -1.3592   10.8082    9.9155 H         1 <0>         0.0698
     40 H3         -1.1957   11.8588    8.4880 H         1 <0>         0.0844
     41 H4          0.2146    9.8313    8.2670 H         1 <0>         0.0742
     42 H5         -1.0650    9.8574    7.0300 H         1 <0>         0.0721
     43 H6         -2.3623    5.9255    8.2891 H         1 <0>         0.1041
     44 H7         -1.0828    5.8994    9.5261 H         1 <0>         0.1059
     45 H8         -2.2624    1.9183    9.2607 H         1 <0>         0.1461
     46 H9         -3.0487   -0.4032    9.6637 H         1 <0>         0.1425
     47 H10        -2.0496   -2.2482    8.3330 H         1 <0>         0.1401
     48 H11        -0.3248   -1.7339    6.6544 H         1 <0>         0.1608
     49 H12         2.0805    4.6470    5.9450 H         1 <0>         0.1048
     50 H13         1.4695    4.7055    7.6841 H         1 <0>         0.1105
     51 H14         2.2700    2.3252    8.0457 H         1 <0>         0.1003
     52 H15         2.8811    2.2662    6.3067 H         1 <0>         0.1083
     53 H16         2.4778    2.1001    4.6234 H         1 <0>         0.1393
     54 H17         2.0308    1.5762    2.2645 H         1 <0>         0.1274
     55 H18        -1.6201    3.0635    5.2467 H         1 <0>         0.1214
     56 H19         0.0336    0.2765   -0.0906 H         1 <0>         0.0752
     57 H20         1.0872    1.7094   -0.0210 H         1 <0>         0.0923
     58 H21        -0.4482    1.7765   -0.9189 H         1 <0>         0.0824
     59 H22        -3.7488    2.7582    0.3185 H         1 <0>         0.1104
     60 H23        -2.4636    2.2180   -0.7881 H         1 <0>         0.0940
     61 H24        -3.2707    0.0135    0.7820 H         1 <0>         0.4187
     62 H25        -4.4880    2.3008   -1.7316 H         1 <0>         0.1478
     63 H26        -6.1769    1.7260   -3.4270 H         1 <0>         0.1279
     64 H27        -6.4552   -2.2182   -1.8268 H         1 <0>         0.1282
     65 H28        -4.7599   -1.6569   -0.1333 H         1 <0>         0.1468
     66 H29        -8.4484   -0.3994   -3.3752 H         1 <0>         0.2131
     67 H30        -6.3009   -0.0343   -5.3622 H         1 <0>         0.4506
     68 H31        -7.9353   -0.0075   -5.6684 H         1 <0>         0.4533
     69 H32        -7.4696   -2.6204   -3.2493 H         1 <0>         0.4713
     70 H33        -8.0579   -2.3169   -4.7750 H         1 <0>         0.4529
     71 N6         -7.2165    0.1826   -4.9721 N.4       1 <0>        -0.6629
     72 H34        -7.2470    1.1781   -4.7224 H         1 <0>         0.4731
     73 N7         -7.3479   -2.0600   -4.0912 N.4       1 <0>        -0.6606
     74 H35        -6.4189   -2.2468   -4.4866 H         1 <0>         0.4527
@<TRIPOS>BOND
     1    1    2 1
     2    1   38 1
     3    1   39 1
     4    1   40 1
     5    2    3 1
     6    2   41 1
     7    2   42 1
     8    3    4 1
     9    4    5 2
    10    4    6 1
    11    6    7 1
    12    6   43 1
    13    6   44 1
    14    7    8 1
    15    8    9 2
    16    9   10 1
    17    9   16 1
    18   10   15 ar
    19   10   11 ar
    20   11   12 ar
    21   11   45 1
    22   12   13 ar
    23   12   46 1
    24   13   14 ar
    25   13   47 1
    26   14   15 ar
    27   14   48 1
    28   16   18 1
    29   16   17 1
    30   16   19 1
    31   17   18 1
    32   17   49 1
    33   17   50 1
    34   18   51 1
    35   18   52 1
    36   19   24 ar
    37   19   20 ar
    38   20   21 ar
    39   20   53 1
    40   21   22 ar
    41   21   54 1
    42   22   27 1
    43   22   23 ar
    44   23   24 ar
    45   23   25 1
    46   24   55 1
    47   25   26 2
    48   26   27 1
    49   26   29 1
    50   27   28 1
    51   28   56 1
    52   28   57 1
    53   28   58 1
    54   29   30 1
    55   29   59 1
    56   29   60 1
    57   30   31 1
    58   30   61 1
    59   31   36 ar
    60   31   32 ar
    61   32   33 ar
    62   32   62 1
    63   33   34 ar
    64   33   63 1
    65   34   35 ar
    66   34   37 1
    67   35   36 ar
    68   35   64 1
    69   36   65 1
    70   37   66 1
    71   37   71 1
    72   37   73 1
    73   67   71 1
    74   68   71 1
    75   69   73 1
    76   70   73 1
    77   71   72 1
    78   73   74 1
@<TRIPOS>MOLECULE
ZINC03834111
   72    75     0     0     0
SMALL
USER_CHARGES

@<TRIPOS>ATOM
      1 C1          1.1211   -0.0482    1.5330 C.ar      1 <0>        -0.0839
      2 C2         -0.1769    0.4517    1.4452 C.ar      1 <0>        -0.1146
      3 C3         -0.4047    1.7766    1.2337 C.ar      1 <0>        -0.0906
      4 C4          0.6830    2.6551    1.0914 C.ar      1 <0>        -0.0797
      5 C5          0.4873    4.0286    0.8669 C.ar      1 <0>         0.0296
      6 C6          1.5647    4.8493    0.7336 C.ar      1 <0>        -0.6844
      7 C7          2.8628    4.3485    0.8157 C.ar      1 <0>        -0.0571
      8 C8          3.0906    3.0243    1.0321 C.ar      1 <0>        -0.1107
      9 C9          2.0029    2.1459    1.1753 C.ar      1 <0>        -0.0110
     10 C10         2.1986    0.7725    1.3997 C.ar      1 <0>        -0.1226
     11 S1          1.3148    6.5706    0.4523 S.o2      1 <0>         2.7016
     12 O1          2.4903    7.0530   -0.1839 O.2       1 <0>        -0.9635
     13 O2          0.0248    6.7042   -0.1285 O.2       1 <0>        -0.9435
     14 N1          1.2444    7.3039    1.9354 N.pl3     1 <0>        -1.1094
     15 C11         2.4240    7.3145    2.8041 C.3       1 <0>         0.1018
     16 C12         2.2319    8.3311    3.8998 C.2       1 <0>         0.5187
     17 O3          1.2102    8.9826    3.9502 O.2       1 <0>        -0.5143
     18 N2          3.1954    8.5163    4.8238 N.am      1 <0>        -0.7129
     19 C13         3.0086    9.5045    5.8890 C.3       1 <0>         0.1353
     20 H1          2.4521   10.3572    5.5000 H         1 <0>         0.1190
     21 C14         4.3743    9.9742    6.3942 C.3       1 <0>        -0.1070
     22 C15         5.0830   10.7281    5.2986 C.ar      1 <0>        -0.0111
     23 C16         5.9056   10.0536    4.4158 C.ar      1 <0>        -0.0855
     24 C17         6.5523   10.7445    3.4082 C.ar      1 <0>        -0.0896
     25 C18         6.3835   12.1113    3.2888 C.ar      1 <0>        -0.2202
     26 C19         5.5650   12.7866    4.1747 C.ar      1 <0>        -0.0883
     27 C20         4.9149   12.0951    5.1797 C.ar      1 <0>        -0.0869
     28 C21         7.0914   12.8650    2.1925 C.3       1 <0>         0.2483
     29 C22         2.2406    8.8795    7.0251 C.2       1 <0>         0.5006
     30 O4          2.2359    7.6746    7.1634 O.2       1 <0>        -0.5190
     31 N3          1.5589    9.6595    7.8873 N.am      1 <0>        -0.6042
     32 C23         1.4725   11.1109    7.6761 C.3       1 <0>         0.1045
     33 C24        -0.0086   11.5188    7.6869 C.3       1 <0>        -0.1373
     34 C25        -0.6559   11.0334    8.9859 C.3       1 <0>        -0.1233
     35 C26        -0.5766    9.5067    9.0579 C.3       1 <0>        -0.1376
     36 C27         0.8933    9.0753    9.0596 C.3       1 <0>         0.1087
     37 H2          1.2743   -1.1034    1.7050 H         1 <0>         0.1335
     38 H3         -1.0146   -0.2220    1.5502 H         1 <0>         0.1341
     39 H4         -1.4161    2.1505    1.1720 H         1 <0>         0.1368
     40 H5         -0.5129    4.4307    0.8010 H         1 <0>         0.1476
     41 H6          3.7004    5.0214    0.7063 H         1 <0>         0.1342
     42 H7          4.1020    2.6505    1.0939 H         1 <0>         0.1370
     43 H8          3.1987    0.3703    1.4657 H         1 <0>         0.1352
     44 H9          0.4221    7.7265    2.2290 H         1 <0>         0.4313
     45 H10         2.5597    6.3268    3.2445 H         1 <0>         0.1053
     46 H11         3.3050    7.5749    2.2173 H         1 <0>         0.1081
     47 H12         4.0126    7.9952    4.7835 H         1 <0>         0.4067
     48 H13         4.2378   10.6280    7.2556 H         1 <0>         0.1137
     49 H14         4.9711    9.1097    6.6851 H         1 <0>         0.1085
     50 H15         6.0405    8.9863    4.5114 H         1 <0>         0.1523
     51 H16         7.1915   10.2168    2.7158 H         1 <0>         0.1348
     52 H17         5.4331   13.8545    4.0814 H         1 <0>         0.1344
     53 H18         4.2754   12.6227    5.8719 H         1 <0>         0.1537
     54 H19         8.0642   13.2006    2.5520 H         1 <0>         0.2204
     55 H20         6.3876   11.6585    0.6801 H         1 <0>         0.4541
     56 H21         7.8049   12.4449    0.3076 H         1 <0>         0.4576
     57 H22         6.0908   14.6186    2.5952 H         1 <0>         0.4733
     58 H23         6.7398   14.5516    1.0654 H         1 <0>         0.4572
     59 H24         2.0028   11.6286    8.4754 H         1 <0>         0.0763
     60 H25         1.9166   11.3673    6.7143 H         1 <0>         0.0749
     61 H26        -0.5188   11.0682    6.8356 H         1 <0>         0.0710
     62 H27        -0.0862   12.6043    7.6253 H         1 <0>         0.0782
     63 H28        -1.7004   11.3443    9.0094 H         1 <0>         0.0726
     64 H29        -0.1294   11.4649    9.8372 H         1 <0>         0.0677
     65 H30        -1.0815    9.0751    8.1937 H         1 <0>         0.0683
     66 H31        -1.0586    9.1601    9.9721 H         1 <0>         0.0825
     67 H32         0.9550    7.9881    9.0109 H         1 <0>         0.0955
     68 H33         1.3773    9.4304    9.9694 H         1 <0>         0.0745
     69 N4          7.2889   11.9646    1.0429 N.4       1 <0>        -0.6623
     70 H34         7.8246   11.1427    1.3461 H         1 <0>         0.4753
     71 N5          6.2653   14.0175    1.7915 N.4       1 <0>        -0.6597
     72 H35         5.3678   13.6784    1.4257 H         1 <0>         0.4556
@<TRIPOS>BOND
     1    1   10 ar
     2    1    2 ar
     3    1   37 1
     4    2    3 ar
     5    2   38 1
     6    3    4 ar
     7    3   39 1
     8    4    9 ar
     9    4    5 ar
    10    5    6 ar
    11    5   40 1
    12    6    7 ar
    13    6   11 1
    14    7    8 ar
    15    7   41 1
    16    8    9 ar
    17    8   42 1
    18    9   10 ar
    19   10   43 1
    20   11   12 2
    21   11   13 2
    22   11   14 1
    23   14   15 1
    24   14   44 1
    25   15   16 1
    26   15   45 1
    27   15   46 1
    28   16   17 2
    29   16   18 am
    30   18   19 1
    31   18   47 1
    32   19   20 1
    33   19   21 1
    34   19   29 1
    35   21   22 1
    36   21   48 1
    37   21   49 1
    38   22   27 ar
    39   22   23 ar
    40   23   24 ar
    41   23   50 1
    42   24   25 ar
    43   24   51 1
    44   25   26 ar
    45   25   28 1
    46   26   27 ar
    47   26   52 1
    48   27   53 1
    49   28   54 1
    50   28   69 1
    51   28   71 1
    52   29   30 2
    53   29   31 am
    54   31   36 1
    55   31   32 1
    56   32   33 1
    57   32   59 1
    58   32   60 1
    59   33   34 1
    60   33   61 1
    61   33   62 1
    62   34   35 1
    63   34   63 1
    64   34   64 1
    65   35   36 1
    66   35   65 1
    67   35   66 1
    68   36   67 1
    69   36   68 1
    70   55   69 1
    71   56   69 1
    72   57   71 1
    73   58   71 1
    74   69   70 1
    75   71   72 1
@<TRIPOS>MOLECULE
ZINC03834116
   75    78     0     0     0
SMALL
USER_CHARGES

@<TRIPOS>ATOM
      1 H1         -0.1304   -2.7733   11.5893 H         1 <0>         0.4452
      2 C1          0.7749   -1.0041   11.1484 C.cat     1 <0>         0.5985
      3 C2          1.6733   -0.3509   10.1691 C.ar      1 <0>        -0.1493
      4 C3          2.0217    0.9906   10.3245 C.ar      1 <0>        -0.0508
      5 C4          2.8596    1.5934    9.4090 C.ar      1 <0>        -0.0999
      6 C5          3.3585    0.8682    8.3415 C.ar      1 <0>        -0.0422
      7 C6          3.0119   -0.4609    8.1787 C.ar      1 <0>        -0.0702
      8 C7          2.1747   -1.0749    9.0879 C.ar      1 <0>        -0.0613
      9 C8          3.5548   -1.2417    7.0097 C.3       1 <0>        -0.0962
     10 C9          2.5958   -1.1177    5.8240 C.3       1 <0>         0.1424
     11 H2          2.4393   -0.0641    5.5921 H         1 <0>         0.1177
     12 C10         3.1867   -1.8135    4.6250 C.2       1 <0>         0.5067
     13 O1          2.7652   -2.8988    4.2851 O.2       1 <0>        -0.5072
     14 N1          4.1834   -1.2299    3.9304 N.am      1 <0>        -0.6061
     15 C11         4.6797   -1.8323    2.6852 C.3       1 <0>         0.0965
     16 C12         4.5870   -0.7806    1.5666 C.3       1 <0>         0.1055
     17 N2          5.2011    0.4663    2.0441 N.pl3     1 <0>        -0.9998
     18 C13         4.7085    1.0657    3.2923 C.3       1 <0>         0.1016
     19 C14         4.7974    0.0170    4.4080 C.3       1 <0>         0.0788
     20 S1          6.4257    1.1835    1.1907 S.o2      1 <0>         2.6057
     21 O2          6.2300    0.7583   -0.1510 O.2       1 <0>        -0.9463
     22 O3          6.3482    2.5604    1.5330 O.2       1 <0>        -0.9486
     23 C15         7.9475    0.4579    1.8604 C.3       1 <0>        -0.6727
     24 N3          1.3135   -1.7382    6.1661 N.pl3     1 <0>        -1.0996
     25 S2         -0.0671   -0.8240    6.1954 S.o2      1 <0>         2.6901
     26 O4          0.2255    0.3286    6.9731 O.2       1 <0>        -0.9509
     27 O5         -1.1328   -1.7081    6.5146 O.2       1 <0>        -0.9504
     28 C16        -0.3547   -0.2619    4.5504 C.ar      1 <0>        -0.6919
     29 C17        -0.3136    1.0687    4.2650 C.ar      1 <0>         0.0178
     30 C18        -0.5384    1.5315    2.9706 C.ar      1 <0>        -0.1636
     31 C19        -0.8053    0.6658    1.9535 C.ar      1 <0>        -0.0055
     32 C20        -0.8494   -0.7133    2.2088 C.ar      1 <0>        -0.0592
     33 C21        -0.6271   -1.1847    3.5261 C.ar      1 <0>         0.0407
     34 C22        -0.6777   -2.5655    3.7846 C.ar      1 <0>        -0.1377
     35 C23        -0.9444   -3.4370    2.7733 C.ar      1 <0>        -0.0638
     36 C24        -1.1703   -2.9857    1.4761 C.ar      1 <0>        -0.1551
     37 C25        -1.1296   -1.6398    1.1810 C.ar      1 <0>         0.1247
     38 N4         -1.3571   -1.1983   -0.1206 N.pl3     1 <0>        -0.5152
     39 C26        -2.6935   -1.5940   -0.5846 C.3       1 <0>         0.0245
     40 C27        -0.3161   -1.6903   -1.0329 C.3       1 <0>         0.0266
     41 N5          0.2809   -0.2862   12.2157 N.pl3     1 <0>        -0.7793
     42 H3          1.6368    1.5563   11.1602 H         1 <0>         0.1373
     43 H4          3.1299    2.6322    9.5282 H         1 <0>         0.1498
     44 H5          4.0176    1.3433    7.6298 H         1 <0>         0.1451
     45 H6          1.9081   -2.1138    8.9620 H         1 <0>         0.1308
     46 H7          3.6542   -2.2909    7.2883 H         1 <0>         0.1013
     47 H8          4.5311   -0.8460    6.7302 H         1 <0>         0.1066
     48 H9          5.7170   -2.1405    2.8161 H         1 <0>         0.0789
     49 H10         4.0682   -2.6971    2.4280 H         1 <0>         0.1088
     50 H11         3.5416   -0.6009    1.3159 H         1 <0>         0.0810
     51 H12         5.1191   -1.1358    0.6840 H         1 <0>         0.1084
     52 H13         3.6717    1.3768    3.1644 H         1 <0>         0.0825
     53 H14         5.3201    1.9295    3.5527 H         1 <0>         0.1102
     54 H15         4.2634    0.3738    5.2888 H         1 <0>         0.0958
     55 H16         5.8428   -0.1627    4.6587 H         1 <0>         0.0872
     56 H17         7.9311   -0.6218    1.7120 H         1 <0>         0.1280
     57 H18         8.8095    0.8824    1.3457 H         1 <0>         0.1323
     58 H19         8.0163    0.6773    2.9258 H         1 <0>         0.1269
     59 H20         1.2731   -2.6845    6.3754 H         1 <0>         0.4257
     60 H21        -0.1040    1.7757    5.0540 H         1 <0>         0.1437
     61 H22        -0.5002    2.5921    2.7704 H         1 <0>         0.1383
     62 H23        -0.9780    1.0386    0.9548 H         1 <0>         0.1479
     63 H24        -0.5048   -2.9347    4.7846 H         1 <0>         0.1268
     64 H25        -0.9809   -4.4962    2.9809 H         1 <0>         0.1311
     65 H26        -1.3801   -3.6981    0.6919 H         1 <0>         0.1281
     66 H27        -3.4490   -1.1583    0.0692 H         1 <0>         0.0723
     67 H28        -2.7784   -2.6805   -0.5642 H         1 <0>         0.0360
     68 H29        -2.8450   -1.2368   -1.6032 H         1 <0>         0.0804
     69 H30        -0.4781   -1.2742   -2.0272 H         1 <0>         0.0804
     70 H31         0.6633   -1.3835   -0.6659 H         1 <0>         0.0706
     71 H32        -0.3610   -2.7782   -1.0826 H         1 <0>         0.0356
     72 H33         0.5218    0.6470   12.3255 H         1 <0>         0.4433
     73 H34        -0.3076   -0.7139   12.8572 H         1 <0>         0.4315
     74 N6          0.4843   -2.2793   10.9423 N.pl3     1 <0>        -0.7612
     75 H35         0.8777   -2.7709   10.1313 H         1 <0>         0.4583
@<TRIPOS>BOND
     1    1   74 1
     2    2    3 1
     3    2   41 1
     4    2   74 2
     5    3    8 ar
     6    3    4 ar
     7    4    5 ar
     8    4   42 1
     9    5    6 ar
    10    5   43 1
    11    6    7 ar
    12    6   44 1
    13    7    8 ar
    14    7    9 1
    15    8   45 1
    16    9   10 1
    17    9   46 1
    18    9   47 1
    19   10   11 1
    20   10   12 1
    21   10   24 1
    22   12   13 2
    23   12   14 am
    24   14   19 1
    25   14   15 1
    26   15   16 1
    27   15   48 1
    28   15   49 1
    29   16   17 1
    30   16   50 1
    31   16   51 1
    32   17   18 1
    33   17   20 1
    34   18   19 1
    35   18   52 1
    36   18   53 1
    37   19   54 1
    38   19   55 1
    39   20   21 2
    40   20   22 2
    41   20   23 1
    42   23   56 1
    43   23   57 1
    44   23   58 1
    45   24   25 1
    46   24   59 1
    47   25   26 2
    48   25   27 2
    49   25   28 1
    50   28   33 ar
    51   28   29 ar
    52   29   30 ar
    53   29   60 1
    54   30   31 ar
    55   30   61 1
    56   31   32 ar
    57   31   62 1
    58   32   37 ar
    59   32   33 ar
    60   33   34 ar
    61   34   35 ar
    62   34   63 1
    63   35   36 ar
    64   35   64 1
    65   36   37 ar
    66   36   65 1
    67   37   38 1
    68   38   39 1
    69   38   40 1
    70   39   66 1
    71   39   67 1
    72   39   68 1
    73   40   69 1
    74   40   70 1
    75   40   71 1
    76   41   72 1
    77   41   73 1
    78   74   75 1
@<TRIPOS>MOLECULE
ZINC03834117
   73    75     0     0     0
SMALL
USER_CHARGES

@<TRIPOS>ATOM
      1 H1          4.5191    2.4725    0.7082 H         1 <0>         0.4421
      2 C1          2.5256    2.7270    0.3831 C.cat     1 <0>         0.6001
      3 C2          1.2652    1.9862    0.1478 C.ar      1 <0>        -0.1444
      4 C3          0.0681    2.6797   -0.0301 C.ar      1 <0>        -0.0396
      5 C4         -1.1030    1.9838   -0.2490 C.ar      1 <0>        -0.0932
      6 C5         -1.0916    0.6009   -0.2923 C.ar      1 <0>        -0.0287
      7 C6          0.0924   -0.0924   -0.1170 C.ar      1 <0>        -0.0622
      8 C7          1.2703    0.5925    0.1026 C.ar      1 <0>        -0.0483
      9 C8          0.0963   -1.5985   -0.1666 C.3       1 <0>        -0.1092
     10 C9          0.3358   -2.0608   -1.6053 C.3       1 <0>         0.1454
     11 H2          1.3125   -1.7125   -1.9410 H         1 <0>         0.1088
     12 C10         0.2922   -3.5661   -1.6630 C.2       1 <0>         0.5138
     13 O1         -0.6276   -4.1252   -2.2217 O.2       1 <0>        -0.5089
     14 N1          1.2755   -4.2911   -1.0937 N.am      1 <0>        -0.6065
     15 C11         1.3080   -5.7529   -1.2407 C.3       1 <0>         0.0949
     16 C12         2.6733   -6.1517   -1.8261 C.3       1 <0>         0.1046
     17 N2          3.7287   -5.4952   -1.0420 N.pl3     1 <0>        -1.0005
     18 C13         3.6931   -4.0337   -0.8903 C.3       1 <0>         0.1021
     19 C14         2.3309   -3.6344   -0.3096 C.3       1 <0>         0.0770
     20 S1          4.9368   -6.3858   -0.3425 S.o2      1 <0>         2.6060
     21 O2          5.0367   -7.5546   -1.1447 O.2       1 <0>        -0.9445
     22 O3          6.0323   -5.4874   -0.2319 O.2       1 <0>        -0.9515
     23 C15         4.3084   -6.8109    1.3052 C.3       1 <0>        -0.6724
     24 N3         -0.7053   -1.5084   -2.4754 N.pl3     1 <0>        -1.0999
     25 S2         -0.4323   -0.0995   -3.3016 S.o2      1 <0>         2.6875
     26 O4         -1.6022    0.1560   -4.0666 O.2       1 <0>        -0.9460
     27 O5          0.0794    0.8319   -2.3582 O.2       1 <0>        -0.9492
     28 C16         0.8638   -0.4135   -4.4531 C.ar      1 <0>        -0.6887
     29 C17         2.1802   -0.2064   -4.0855 C.ar      1 <0>        -0.0264
     30 C18         3.1974   -0.4570   -4.9875 C.ar      1 <0>        -0.1433
     31 C19         2.8975   -0.9056   -6.2602 C.ar      1 <0>        -0.0026
     32 C20         1.5808   -1.1081   -6.6294 C.ar      1 <0>        -0.1307
     33 C21         0.5640   -0.8616   -5.7260 C.ar      1 <0>        -0.0112
     34 C22         4.0061   -1.1742   -7.2451 C.3       1 <0>        -0.0409
     35 C23         3.8249   -0.2801   -8.4733 C.3       1 <0>        -0.1427
     36 C24         5.3551   -0.8726   -6.5892 C.3       1 <0>        -0.1468
     37 C25         3.9638   -2.6426   -7.6725 C.3       1 <0>        -0.1420
     38 N4          2.5174    4.1041    0.4271 N.pl3     1 <0>        -0.7830
     39 H3          0.0580    3.7591    0.0031 H         1 <0>         0.1298
     40 H4         -2.0297    2.5199   -0.3913 H         1 <0>         0.1412
     41 H5         -2.0108    0.0606   -0.4639 H         1 <0>         0.1351
     42 H6          2.1941    0.0501    0.2397 H         1 <0>         0.1254
     43 H7          0.8901   -1.9811    0.4750 H         1 <0>         0.1030
     44 H8         -0.8654   -1.9760    0.1811 H         1 <0>         0.1029
     45 H9          1.1739   -6.2217   -0.2658 H         1 <0>         0.0804
     46 H10         0.5124   -6.0707   -1.9147 H         1 <0>         0.1114
     47 H11         2.7362   -5.8304   -2.8657 H         1 <0>         0.0829
     48 H12         2.7950   -7.2335   -1.7696 H         1 <0>         0.1103
     49 H13         3.8287   -3.5616   -1.8633 H         1 <0>         0.0815
     50 H14         4.4866   -3.7141   -0.2149 H         1 <0>         0.1076
     51 H15         2.2111   -2.5527   -0.3686 H         1 <0>         0.0962
     52 H16         2.2661   -3.9535    0.7306 H         1 <0>         0.0871
     53 H17         3.3886   -7.3871    1.2057 H         1 <0>         0.1294
     54 H18         5.0531   -7.4040    1.8362 H         1 <0>         0.1327
     55 H19         4.1062   -5.8970    1.8638 H         1 <0>         0.1261
     56 H20        -1.5545   -1.9680   -2.5676 H         1 <0>         0.4324
     57 H21         2.4142    0.1480   -3.0925 H         1 <0>         0.1318
     58 H22         4.2260   -0.2991   -4.6989 H         1 <0>         0.1370
     59 H23         1.3467   -1.4585   -7.6237 H         1 <0>         0.1359
     60 H24        -0.4647   -1.0195   -6.0146 H         1 <0>         0.1405
     61 H25         3.8551    0.7661   -8.1688 H         1 <0>         0.0580
     62 H26         4.6267   -0.4744   -9.1857 H         1 <0>         0.0675
     63 H27         2.8639   -0.4949   -8.9405 H         1 <0>         0.0609
     64 H28         5.4842   -1.5096   -5.7142 H         1 <0>         0.0597
     65 H29         6.1570   -1.0669   -7.3016 H         1 <0>         0.0664
     66 H30         5.3852    0.1735   -6.2847 H         1 <0>         0.0590
     67 H31         3.0027   -2.8575   -8.1397 H         1 <0>         0.0606
     68 H32         4.7656   -2.8369   -8.3849 H         1 <0>         0.0674
     69 H33         4.0929   -3.2796   -6.7974 H         1 <0>         0.0578
     70 H34         1.6860    4.5883    0.3040 H         1 <0>         0.4429
     71 H35         3.3430    4.5893    0.5813 H         1 <0>         0.4293
     72 N5          3.6258    2.0081    0.5434 N.pl3     1 <0>        -0.7662
     73 H36         3.5800    0.9832    0.5018 H         1 <0>         0.4569
@<TRIPOS>BOND
     1    1   72 1
     2    2    3 1
     3    2   38 1
     4    2   72 2
     5    3    8 ar
     6    3    4 ar
     7    4    5 ar
     8    4   39 1
     9    5    6 ar
    10    5   40 1
    11    6    7 ar
    12    6   41 1
    13    7    8 ar
    14    7    9 1
    15    8   42 1
    16    9   10 1
    17    9   43 1
    18    9   44 1
    19   10   11 1
    20   10   12 1
    21   10   24 1
    22   12   13 2
    23   12   14 am
    24   14   19 1
    25   14   15 1
    26   15   16 1
    27   15   45 1
    28   15   46 1
    29   16   17 1
    30   16   47 1
    31   16   48 1
    32   17   18 1
    33   17   20 1
    34   18   19 1
    35   18   49 1
    36   18   50 1
    37   19   51 1
    38   19   52 1
    39   20   21 2
    40   20   22 2
    41   20   23 1
    42   23   53 1
    43   23   54 1
    44   23   55 1
    45   24   25 1
    46   24   56 1
    47   25   26 2
    48   25   27 2
    49   25   28 1
    50   28   33 ar
    51   28   29 ar
    52   29   30 ar
    53   29   57 1
    54   30   31 ar
    55   30   58 1
    56   31   32 ar
    57   31   34 1
    58   32   33 ar
    59   32   59 1
    60   33   60 1
    61   34   35 1
    62   34   36 1
    63   34   37 1
    64   35   61 1
    65   35   62 1
    66   35   63 1
    67   36   64 1
    68   36   65 1
    69   36   66 1
    70   37   67 1
    71   37   68 1
    72   37   69 1
    73   38   70 1
    74   38   71 1
    75   72   73 1
@<TRIPOS>MOLECULE
ZINC03834118
   71    73     0     0     0
SMALL
USER_CHARGES

@<TRIPOS>ATOM
      1 H1         -2.0280    3.2238   -0.3360 H         1 <0>         0.4458
      2 C1         -0.3889    2.0276   -0.1730 C.cat     1 <0>         0.5989
      3 C2          0.0316    0.6118   -0.0637 C.ar      1 <0>        -0.1533
      4 C3          1.3857    0.2881    0.0190 C.ar      1 <0>        -0.0556
      5 C4          1.7711   -1.0324    0.1274 C.ar      1 <0>        -0.1039
      6 C5          0.8178   -2.0351    0.1412 C.ar      1 <0>        -0.0464
      7 C6         -0.5262   -1.7207    0.0534 C.ar      1 <0>        -0.0721
      8 C7         -0.9244   -0.4032   -0.0487 C.ar      1 <0>        -0.0604
      9 C8         -1.5580   -2.8189    0.0697 C.3       1 <0>        -0.0872
     10 C9         -1.8347   -3.2801   -1.3627 C.3       1 <0>         0.1357
     11 H2         -0.8972   -3.5657   -1.8398 H         1 <0>         0.1200
     12 C10        -2.7670   -4.4639   -1.3381 C.2       1 <0>         0.4953
     13 O1         -3.9542   -4.3049   -1.5285 O.2       1 <0>        -0.5120
     14 N1         -2.2815   -5.6992   -1.1045 N.am      1 <0>        -0.6040
     15 C11        -0.8646   -5.8956   -0.7687 C.3       1 <0>         0.0970
     16 C12        -0.2638   -6.9222   -1.7273 C.3       1 <0>        -0.1350
     17 C13        -1.1019   -8.2022   -1.6912 C.3       1 <0>        -0.0917
     18 C14        -2.5299   -7.8920   -2.1460 C.3       1 <0>        -0.1321
     19 C15        -3.1576   -6.8758   -1.1867 C.3       1 <0>         0.1117
     20 C16        -0.4837   -9.2428   -2.6270 C.3       1 <0>        -0.1494
     21 N2         -2.4532   -2.1869   -2.1168 N.pl3     1 <0>        -1.0972
     22 S1         -2.1079   -1.9909   -3.7245 S.o2      1 <0>         2.6880
     23 O2         -2.8716   -0.8790   -4.1714 O.2       1 <0>        -0.9539
     24 O3         -0.6929   -2.0410   -3.8449 O.2       1 <0>        -0.9525
     25 C17        -2.7355   -3.4047   -4.5683 C.ar      1 <0>        -0.6840
     26 C18        -1.9326   -4.5156   -4.7474 C.ar      1 <0>        -0.0200
     27 C19        -2.4264   -5.6265   -5.4055 C.ar      1 <0>        -0.1386
     28 C20        -3.7200   -5.6227   -5.8929 C.ar      1 <0>        -0.0007
     29 C21        -4.5213   -4.5099   -5.7181 C.ar      1 <0>        -0.1321
     30 C22        -4.0289   -3.4007   -5.0561 C.ar      1 <0>        -0.0030
     31 C23        -4.2568   -6.8319   -6.6146 C.3       1 <0>        -0.0393
     32 C24        -4.6599   -6.4394   -8.0374 C.3       1 <0>        -0.1422
     33 C25        -3.1763   -7.9137   -6.6707 C.3       1 <0>        -0.1471
     34 C26        -5.4792   -7.3702   -5.8684 C.3       1 <0>        -0.1395
     35 N3          0.5580    3.0283   -0.1875 N.pl3     1 <0>        -0.7789
     36 H3          2.1310    1.0696    0.0034 H         1 <0>         0.1396
     37 H4          2.8191   -1.2840    0.1966 H         1 <0>         0.1518
     38 H5          1.1245   -3.0675    0.2214 H         1 <0>         0.1478
     39 H6         -1.9741   -0.1589   -0.1166 H         1 <0>         0.1339
     40 H7         -1.1856   -3.6588    0.6563 H         1 <0>         0.1082
     41 H8         -2.4798   -2.4449    0.5153 H         1 <0>         0.1019
     42 H9         -0.3314   -4.9501   -0.8671 H         1 <0>         0.0809
     43 H10        -0.7789   -6.2612    0.2545 H         1 <0>         0.0802
     44 H11         0.7589   -7.1484   -1.4257 H         1 <0>         0.0821
     45 H12        -0.2640   -6.5156   -2.7386 H         1 <0>         0.0691
     46 H13        -1.1218   -8.5945   -0.6744 H         1 <0>         0.0746
     47 H14        -3.1201   -8.8083   -2.1424 H         1 <0>         0.0785
     48 H15        -2.5086   -7.4762   -3.1534 H         1 <0>         0.0693
     49 H16        -3.2626   -7.3230   -0.1982 H         1 <0>         0.0716
     50 H17        -4.1368   -6.5768   -1.5607 H         1 <0>         0.0934
     51 H18        -0.4642   -8.8509   -3.6440 H         1 <0>         0.0545
     52 H19         0.5333   -9.4640   -2.3033 H         1 <0>         0.0579
     53 H20        -1.0799  -10.1550   -2.6006 H         1 <0>         0.0583
     54 H21        -3.0650   -1.5779   -1.6744 H         1 <0>         0.4201
     55 H22        -0.9206   -4.5170   -4.3701 H         1 <0>         0.1322
     56 H23        -1.8006   -6.4960   -5.5419 H         1 <0>         0.1367
     57 H24        -5.5319   -4.5070   -6.0989 H         1 <0>         0.1332
     58 H25        -4.6548   -2.5313   -4.9199 H         1 <0>         0.1371
     59 H26        -3.7892   -6.0559   -8.5691 H         1 <0>         0.0586
     60 H27        -5.0482   -7.3141   -8.5594 H         1 <0>         0.0662
     61 H28        -5.4297   -5.6688   -7.9974 H         1 <0>         0.0597
     62 H29        -2.8891   -8.1933   -5.6571 H         1 <0>         0.0596
     63 H30        -3.5645   -8.7883   -7.1927 H         1 <0>         0.0651
     64 H31        -2.3055   -7.5302   -7.2024 H         1 <0>         0.0603
     65 H32        -6.2489   -6.5996   -5.8284 H         1 <0>         0.0591
     66 H33        -5.8674   -8.2448   -6.3903 H         1 <0>         0.0654
     67 H34        -5.1919   -7.6498   -4.8547 H         1 <0>         0.0576
     68 H35         1.5001    2.8056   -0.1261 H         1 <0>         0.4433
     69 H36         0.2825    3.9556   -0.2591 H         1 <0>         0.4320
     70 N4         -1.6886    2.2649   -0.2590 N.pl3     1 <0>        -0.7591
     71 H37        -2.3549    1.4837   -0.2483 H         1 <0>         0.4592
@<TRIPOS>BOND
     1    1   70 1
     2    2    3 1
     3    2   35 1
     4    2   70 2
     5    3    8 ar
     6    3    4 ar
     7    4    5 ar
     8    4   36 1
     9    5    6 ar
    10    5   37 1
    11    6    7 ar
    12    6   38 1
    13    7    8 ar
    14    7    9 1
    15    8   39 1
    16    9   10 1
    17    9   40 1
    18    9   41 1
    19   10   11 1
    20   10   12 1
    21   10   21 1
    22   12   13 2
    23   12   14 am
    24   14   19 1
    25   14   15 1
    26   15   16 1
    27   15   42 1
    28   15   43 1
    29   16   17 1
    30   16   44 1
    31   16   45 1
    32   17   18 1
    33   17   20 1
    34   17   46 1
    35   18   19 1
    36   18   47 1
    37   18   48 1
    38   19   49 1
    39   19   50 1
    40   20   51 1
    41   20   52 1
    42   20   53 1
    43   21   22 1
    44   21   54 1
    45   22   23 2
    46   22   24 2
    47   22   25 1
    48   25   30 ar
    49   25   26 ar
    50   26   27 ar
    51   26   55 1
    52   27   28 ar
    53   27   56 1
    54   28   29 ar
    55   28   31 1
    56   29   30 ar
    57   29   57 1
    58   30   58 1
    59   31   32 1
    60   31   33 1
    61   31   34 1
    62   32   59 1
    63   32   60 1
    64   32   61 1
    65   33   62 1
    66   33   63 1
    67   33   64 1
    68   34   65 1
    69   34   66 1
    70   34   67 1
    71   35   68 1
    72   35   69 1
    73   70   71 1
@<TRIPOS>MOLECULE
ZINC03834119
   65    68     0     0     0
SMALL
USER_CHARGES

@<TRIPOS>ATOM
      1 H1          2.6084   -1.7259   -0.0275 H         1 <0>         0.4435
      2 C1          0.8445   -0.7092   -0.0205 C.cat     1 <0>         0.5963
      3 C2          0.2701    0.6556   -0.0157 C.ar      1 <0>        -0.1382
      4 C3         -1.1134    0.8330   -0.0175 C.ar      1 <0>        -0.0417
      5 C4         -1.6426    2.1071   -0.0072 C.ar      1 <0>        -0.0983
      6 C5         -0.8040    3.2076   -0.0072 C.ar      1 <0>        -0.0349
      7 C6          0.5688    3.0381   -0.0111 C.ar      1 <0>        -0.0617
      8 C7          1.1101    1.7686   -0.0152 C.ar      1 <0>        -0.0415
      9 C8          1.4752    4.2420   -0.0107 C.3       1 <0>        -0.1020
     10 C9          1.7786    4.6526   -1.4529 C.3       1 <0>         0.1435
     11 H2          0.8505    4.9221   -1.9570 H         1 <0>         0.1110
     12 C10         2.7119    5.8358   -1.4526 C.2       1 <0>         0.5135
     13 O1          3.8942    5.6756   -1.6704 O.2       1 <0>        -0.5218
     14 N1          2.2328    7.0720   -1.2104 N.am      1 <0>        -0.6038
     15 C11         0.8269    7.2691   -0.8318 C.3       1 <0>         0.0975
     16 C12         0.1957    8.2903   -1.7764 C.3       1 <0>        -0.1343
     17 C13         1.0333    9.5710   -1.7730 C.3       1 <0>        -0.0930
     18 C14         2.4468    9.2596   -2.2702 C.3       1 <0>        -0.1320
     19 C15         3.1049    8.2488   -1.3257 C.3       1 <0>         0.1098
     20 C16         0.3855   10.6064   -2.6944 C.3       1 <0>        -0.1497
     21 N2          2.4093    3.5333   -2.1570 N.pl3     1 <0>        -1.1015
     22 S1          1.4862    2.4995   -3.0632 S.o2      1 <0>         2.6817
     23 O2          2.3786    1.5512   -3.6325 O.2       1 <0>        -0.9562
     24 O3          0.3863    2.1171   -2.2488 O.2       1 <0>        -0.9430
     25 C17         0.8214    3.4323   -4.4021 C.ar      1 <0>        -0.6827
     26 C18        -0.4106    4.0665   -4.2518 C.ar      1 <0>        -0.0555
     27 C19        -0.9496    4.7991   -5.2641 C.ar      1 <0>        -0.1094
     28 C20        -0.2619    4.9101   -6.4846 C.ar      1 <0>        -0.0100
     29 C21        -0.7899    5.6523   -7.5549 C.ar      1 <0>        -0.1212
     30 C22        -0.0955    5.7380   -8.7223 C.ar      1 <0>        -0.0855
     31 C23         1.1339    5.0993   -8.8744 C.ar      1 <0>        -0.1150
     32 C24         1.6759    4.3718   -7.8600 C.ar      1 <0>        -0.0921
     33 C25         0.9882    4.2608   -6.6394 C.ar      1 <0>        -0.0789
     34 C26         1.5159    3.5180   -5.5693 C.ar      1 <0>         0.0258
     35 N3          0.0119   -1.8072   -0.0210 N.pl3     1 <0>        -0.7824
     36 H3         -1.7690   -0.0252   -0.0223 H         1 <0>         0.1297
     37 H4         -2.7136    2.2458   -0.0038 H         1 <0>         0.1414
     38 H5         -1.2229    4.2030   -0.0037 H         1 <0>         0.1372
     39 H6          2.1821    1.6374   -0.0176 H         1 <0>         0.1227
     40 H7          0.9838    5.0665    0.5061 H         1 <0>         0.1047
     41 H8          2.4059    3.9959    0.5005 H         1 <0>         0.0983
     42 H9          0.2916    6.3226   -0.9087 H         1 <0>         0.0824
     43 H10         0.7725    7.6398    0.1917 H         1 <0>         0.0814
     44 H11        -0.8175    8.5172   -1.4445 H         1 <0>         0.0822
     45 H12         0.1647    7.8786   -2.7853 H         1 <0>         0.0687
     46 H13         1.0844    9.9685   -0.7592 H         1 <0>         0.0756
     47 H14         3.0360   10.1764   -2.2896 H         1 <0>         0.0811
     48 H15         2.3947    8.8387   -3.2743 H         1 <0>         0.0670
     49 H16         3.2402    8.7011   -0.3432 H         1 <0>         0.0746
     50 H17         4.0723    7.9486   -1.7284 H         1 <0>         0.0953
     51 H18         0.3348   10.2093   -3.7082 H         1 <0>         0.0543
     52 H19        -0.6213   10.8284   -2.3404 H         1 <0>         0.0580
     53 H20         0.9813   11.5191   -2.6911 H         1 <0>         0.0589
     54 H21         3.3676    3.3977   -2.0921 H         1 <0>         0.4296
     55 H22        -0.9434    3.9788   -3.3165 H         1 <0>         0.1371
     56 H23        -1.9034    5.2882   -5.1320 H         1 <0>         0.1380
     57 H24        -1.7414    6.1525   -7.4514 H         1 <0>         0.1356
     58 H25        -0.5034    6.3092   -9.5431 H         1 <0>         0.1331
     59 H26         1.6642    5.1827   -9.8116 H         1 <0>         0.1333
     60 H27         2.6292    3.8820   -7.9925 H         1 <0>         0.1354
     61 H28         2.4673    3.0175   -5.6728 H         1 <0>         0.1436
     62 H29        -0.9504   -1.6860   -0.0181 H         1 <0>         0.4426
     63 H30         0.3882   -2.7011   -0.0241 H         1 <0>         0.4296
     64 N4          2.1650   -0.8071   -0.0242 N.pl3     1 <0>        -0.7650
     65 H31         2.7427    0.0417   -0.0236 H         1 <0>         0.4571
@<TRIPOS>BOND
     1    1   64 1
     2    2    3 1
     3    2   35 1
     4    2   64 2
     5    3    8 ar
     6    3    4 ar
     7    4    5 ar
     8    4   36 1
     9    5    6 ar
    10    5   37 1
    11    6    7 ar
    12    6   38 1
    13    7    8 ar
    14    7    9 1
    15    8   39 1
    16    9   10 1
    17    9   40 1
    18    9   41 1
    19   10   11 1
    20   10   12 1
    21   10   21 1
    22   12   13 2
    23   12   14 am
    24   14   19 1
    25   14   15 1
    26   15   16 1
    27   15   42 1
    28   15   43 1
    29   16   17 1
    30   16   44 1
    31   16   45 1
    32   17   18 1
    33   17   20 1
    34   17   46 1
    35   18   19 1
    36   18   47 1
    37   18   48 1
    38   19   49 1
    39   19   50 1
    40   20   51 1
    41   20   52 1
    42   20   53 1
    43   21   22 1
    44   21   54 1
    45   22   23 2
    46   22   24 2
    47   22   25 1
    48   25   34 ar
    49   25   26 ar
    50   26   27 ar
    51   26   55 1
    52   27   28 ar
    53   27   56 1
    54   28   33 ar
    55   28   29 ar
    56   29   30 ar
    57   29   57 1
    58   30   31 ar
    59   30   58 1
    60   31   32 ar
    61   31   59 1
    62   32   33 ar
    63   32   60 1
    64   33   34 ar
    65   34   61 1
    66   35   62 1
    67   35   63 1
    68   64   65 1
@<TRIPOS>MOLECULE
ZINC03834121
   74    77     0     0     0
SMALL
USER_CHARGES

@<TRIPOS>ATOM
      1 H1         -3.3995   -3.1735   -3.5584 H         1 <0>         0.4446
      2 C1         -4.4514   -2.0326   -2.2408 C.cat     1 <0>         0.6017
      3 C2         -4.3551   -0.8277   -1.3852 C.ar      1 <0>        -0.1523
      4 C3         -5.4434   -0.4324   -0.6074 C.ar      1 <0>        -0.0551
      5 C4         -5.3474    0.6908    0.1880 C.ar      1 <0>        -0.1062
      6 C5         -4.1748    1.4246    0.2151 C.ar      1 <0>        -0.0437
      7 C6         -3.0922    1.0376   -0.5540 C.ar      1 <0>        -0.0720
      8 C7         -3.1779   -0.0811   -1.3577 C.ar      1 <0>        -0.0598
      9 C8         -1.8188    1.8428   -0.5190 C.3       1 <0>        -0.0909
     10 C9         -0.9041    1.3030    0.5823 C.3       1 <0>         0.1355
     11 H2         -0.7441    0.2354    0.4308 H         1 <0>         0.1169
     12 C10         0.4196    2.0214    0.5328 C.2       1 <0>         0.4889
     13 O1          0.6852    2.8613    1.3665 O.2       1 <0>        -0.5100
     14 N1          1.3084    1.7306   -0.4377 N.am      1 <0>        -0.6063
     15 C11         0.9575    0.8007   -1.5198 C.3       1 <0>         0.0967
     16 C12         2.0180   -0.2961   -1.5966 C.3       1 <0>        -0.1350
     17 C13         3.4009    0.3435   -1.7407 C.3       1 <0>        -0.0930
     18 C14         3.6920    1.2143   -0.5163 C.3       1 <0>        -0.1322
     19 C15         2.6486    2.3326   -0.4303 C.3       1 <0>         0.1080
     20 C16         4.4612   -0.7541   -1.8493 C.3       1 <0>        -0.1500
     21 N2         -1.5304    1.5224    1.8884 N.pl3     1 <0>        -1.0990
     22 S1         -1.3304    0.4111    3.0997 S.o2      1 <0>         2.5964
     23 O2         -2.0806    0.9257    4.1913 O.2       1 <0>        -0.9113
     24 O3         -1.6729   -0.8350    2.5087 O.2       1 <0>        -0.9565
     25 C17         0.4418    0.4543    3.4840 C.3       1 <0>        -0.5917
     26 C18         0.7457   -0.5444    4.6026 C.3       1 <0>        -0.1150
     27 C19         0.4490   -2.0402    4.2777 C.3       1 <0>        -0.1217
     28 C20         1.3051   -2.8241    5.3279 C.3       1 <0>        -0.1235
     29 C21         2.0022   -1.7151    6.1747 C.3       1 <0>        -0.0891
     30 H3          2.8684   -2.0301    6.7567 H         1 <0>         0.1206
     31 C22         2.2400   -0.6190    5.0759 C.3       1 <0>        -0.0413
     32 C23         3.1739   -1.0920    3.9602 C.3       1 <0>        -0.1373
     33 C24         2.7141    0.6979    5.6939 C.3       1 <0>        -0.1510
     34 C25         0.8394   -1.0548    6.9773 C.3       1 <0>        -0.1691
     35 C26         0.0321   -0.2908    5.9380 C.2       1 <0>         0.3432
     36 O4         -0.9591    0.3736    6.1241 O.2       1 <0>        -0.3903
     37 N3         -5.6177   -2.7657   -2.2695 N.pl3     1 <0>        -0.7790
     38 H4         -6.3593   -1.0042   -0.6280 H         1 <0>         0.1395
     39 H5         -6.1893    0.9976    0.7911 H         1 <0>         0.1519
     40 H6         -4.1043    2.3029    0.8396 H         1 <0>         0.1462
     41 H7         -2.3334   -0.3796   -1.9612 H         1 <0>         0.1349
     42 H8         -2.0548    2.8873   -0.3158 H         1 <0>         0.1060
     43 H9         -1.3134    1.7652   -1.4816 H         1 <0>         0.1042
     44 H10        -0.0151    0.3532   -1.3160 H         1 <0>         0.0788
     45 H11         0.9232    1.3389   -2.4672 H         1 <0>         0.0801
     46 H12         1.8209   -0.9346   -2.4579 H         1 <0>         0.0794
     47 H13         1.9868   -0.8940   -0.6858 H         1 <0>         0.0699
     48 H14         3.4236    0.9605   -2.6389 H         1 <0>         0.0754
     49 H15         4.6865    1.6508   -0.6086 H         1 <0>         0.0816
     50 H16         3.6452    0.6030    0.3849 H         1 <0>         0.0681
     51 H17         2.7549    2.9982   -1.2870 H         1 <0>         0.0737
     52 H18         2.7904    2.8975    0.4910 H         1 <0>         0.0967
     53 H19         4.4390   -1.3710   -0.9510 H         1 <0>         0.0555
     54 H20         4.2540   -1.3744   -2.7213 H         1 <0>         0.0568
     55 H21         5.4461   -0.2988   -1.9532 H         1 <0>         0.0598
     56 H22        -2.0622    2.3186    2.0436 H         1 <0>         0.4248
     57 H23         1.0131    0.1884    2.5946 H         1 <0>         0.1303
     58 H24         0.7192    1.4575    3.8074 H         1 <0>         0.1457
     59 H25        -0.6115   -2.2549    4.4096 H         1 <0>         0.0743
     60 H26         0.7621   -2.2777    3.2610 H         1 <0>         0.0878
     61 H27         2.0484   -3.4457    4.8290 H         1 <0>         0.0799
     62 H28         0.6601   -3.4356    5.9588 H         1 <0>         0.0760
     63 H29         3.1178   -0.3987    3.1210 H         1 <0>         0.0565
     64 H30         4.1973   -1.1281    4.3338 H         1 <0>         0.0666
     65 H31         2.8721   -2.0863    3.6309 H         1 <0>         0.0654
     66 H32         2.0955    0.9368    6.5590 H         1 <0>         0.0599
     67 H33         3.7536    0.5990    6.0068 H         1 <0>         0.0705
     68 H34         2.6310    1.4961    4.9563 H         1 <0>         0.0616
     69 H35         1.2190   -0.4516    7.6787 H         1 <0>         0.0963
     70 H36         0.2221   -1.8181    7.4510 H         1 <0>         0.1031
     71 H37        -6.3757   -2.4926   -1.7293 H         1 <0>         0.4435
     72 H38        -5.6808   -3.5550   -2.8299 H         1 <0>         0.4317
     73 N4         -3.3825   -2.3521   -2.9536 N.pl3     1 <0>        -0.7606
     74 H39        -2.5363   -1.7733   -2.8978 H         1 <0>         0.4583
@<TRIPOS>BOND
     1    1   73 1
     2    2    3 1
     3    2   37 1
     4    2   73 2
     5    3    8 ar
     6    3    4 ar
     7    4    5 ar
     8    4   38 1
     9    5    6 ar
    10    5   39 1
    11    6    7 ar
    12    6   40 1
    13    7    8 ar
    14    7    9 1
    15    8   41 1
    16    9   10 1
    17    9   42 1
    18    9   43 1
    19   10   11 1
    20   10   12 1
    21   10   21 1
    22   12   13 2
    23   12   14 am
    24   14   19 1
    25   14   15 1
    26   15   16 1
    27   15   44 1
    28   15   45 1
    29   16   17 1
    30   16   46 1
    31   16   47 1
    32   17   18 1
    33   17   20 1
    34   17   48 1
    35   18   19 1
    36   18   49 1
    37   18   50 1
    38   19   51 1
    39   19   52 1
    40   20   53 1
    41   20   54 1
    42   20   55 1
    43   21   22 1
    44   21   56 1
    45   22   23 2
    46   22   24 2
    47   22   25 1
    48   25   26 1
    49   25   57 1
    50   25   58 1
    51   26   31 1
    52   26   35 1
    53   26   27 1
    54   27   28 1
    55   27   59 1
    56   27   60 1
    57   28   29 1
    58   28   61 1
    59   28   62 1
    60   29   30 1
    61   29   31 1
    62   29   34 1
    63   31   32 1
    64   31   33 1
    65   32   63 1
    66   32   64 1
    67   32   65 1
    68   33   66 1
    69   33   67 1
    70   33   68 1
    71   34   35 1
    72   34   69 1
    73   34   70 1
    74   35   36 2
    75   37   71 1
    76   37   72 1
    77   73   74 1
@<TRIPOS>MOLECULE
ZINC03834122
   65    68     0     0     0
SMALL
USER_CHARGES

@<TRIPOS>ATOM
      1 H1         -8.4192    5.1630    3.4106 H         1 <0>         0.4458
      2 C1         -7.8985    6.8194    2.3479 C.cat     1 <0>         0.5989
      3 C2         -6.7347    7.6322    1.9261 C.ar      1 <0>        -0.1538
      4 C3         -6.9222    8.7679    1.1384 C.ar      1 <0>        -0.0560
      5 C4         -5.8341    9.5212    0.7490 C.ar      1 <0>        -0.1039
      6 C5         -4.5592    9.1556    1.1431 C.ar      1 <0>        -0.0457
      7 C6         -4.3662    8.0273    1.9196 C.ar      1 <0>        -0.0713
      8 C7         -5.4468    7.2656    2.3154 C.ar      1 <0>        -0.0613
      9 C8         -2.9738    7.6325    2.3394 C.3       1 <0>        -0.0858
     10 C9         -2.3716    6.6948    1.2912 C.3       1 <0>         0.1363
     11 H2         -2.3751    7.1870    0.3186 H         1 <0>         0.1202
     12 C10        -0.9552    6.3540    1.6765 C.2       1 <0>         0.4935
     13 O1         -0.7236    5.3390    2.2988 O.2       1 <0>        -0.5061
     14 N1          0.0542    7.1769    1.3296 N.am      1 <0>        -0.6044
     15 C11        -0.2191    8.4557    0.6599 C.3       1 <0>         0.0976
     16 C12         0.6023    8.5297   -0.6259 C.3       1 <0>        -0.1347
     17 C13         2.0788    8.2935   -0.2997 C.3       1 <0>        -0.0918
     18 C14         2.2523    6.8992    0.3069 C.3       1 <0>        -0.1308
     19 C15         1.4492    6.8094    1.6083 C.3       1 <0>         0.1123
     20 C16         2.9071    8.3983   -1.5818 C.3       1 <0>        -0.1492
     21 N2         -3.1674    5.4668    1.2199 N.pl3     1 <0>        -1.0974
     22 S1         -3.3824    4.7026   -0.2334 S.o2      1 <0>         2.6901
     23 O2         -3.7687    5.7035   -1.1653 O.2       1 <0>        -0.9531
     24 O3         -4.1788    3.5546    0.0253 O.2       1 <0>        -0.9498
     25 C17        -1.8044    4.1145   -0.7514 C.ar      1 <0>        -0.6803
     26 C18        -1.2163    4.6256   -1.8677 C.ar      1 <0>         0.0114
     27 C19         0.0287    4.1692   -2.2956 C.ar      1 <0>        -0.1530
     28 C20         0.6985    3.2074   -1.6032 C.ar      1 <0>        -0.0300
     29 C21         0.1262    2.6606   -0.4424 C.ar      1 <0>        -0.0725
     30 C22        -1.1429    3.1208   -0.0103 C.ar      1 <0>         0.0435
     31 C23        -1.7151    2.5743    1.1513 C.ar      1 <0>        -0.1246
     32 C24        -1.0455    1.6129    1.8436 C.ar      1 <0>        -0.0783
     33 C25         0.2026    1.1605    1.4188 C.ar      1 <0>        -0.1181
     34 C26         0.7877    1.6666    0.2991 C.ar      1 <0>        -0.0913
     35 N3         -9.1698    7.1842    1.9617 N.pl3     1 <0>        -0.7788
     36 H3         -7.9174    9.0569    0.8340 H         1 <0>         0.1395
     37 H4         -5.9780   10.4006    0.1386 H         1 <0>         0.1518
     38 H5         -3.7109    9.7510    0.8395 H         1 <0>         0.1480
     39 H6         -5.2953    6.3871    2.9251 H         1 <0>         0.1337
     40 H7         -3.0153    7.1227    3.3020 H         1 <0>         0.1018
     41 H8         -2.3540    8.5250    2.4273 H         1 <0>         0.1080
     42 H9         -1.2800    8.5225    0.4185 H         1 <0>         0.0812
     43 H10         0.0607    9.2794    1.3168 H         1 <0>         0.0794
     44 H11         0.4829    9.5136   -1.0794 H         1 <0>         0.0816
     45 H12         0.2562    7.7641   -1.3203 H         1 <0>         0.0691
     46 H13         2.4175    9.0447    0.4138 H         1 <0>         0.0743
     47 H14         3.3070    6.7227    0.5174 H         1 <0>         0.0782
     48 H15         1.8906    6.1489   -0.3962 H         1 <0>         0.0673
     49 H16         1.8678    7.4960    2.3442 H         1 <0>         0.0711
     50 H17         1.4887    5.7901    1.9925 H         1 <0>         0.0935
     51 H18         2.5689    7.6468   -2.2953 H         1 <0>         0.0547
     52 H19         2.7838    9.3912   -2.0140 H         1 <0>         0.0578
     53 H20         3.9589    8.2313   -1.3495 H         1 <0>         0.0580
     54 H21        -3.5682    5.1013    2.0241 H         1 <0>         0.4192
     55 H22        -1.7244    5.3930   -2.4326 H         1 <0>         0.1415
     56 H23         0.4709    4.5879   -3.1876 H         1 <0>         0.1361
     57 H24         1.6651    2.8668   -1.9441 H         1 <0>         0.1374
     58 H25        -2.6812    2.9156    1.4928 H         1 <0>         0.1239
     59 H26        -1.4875    1.1944    2.7357 H         1 <0>         0.1283
     60 H27         0.7131    0.3970    1.9869 H         1 <0>         0.1295
     61 H28         1.7553    1.3066   -0.0177 H         1 <0>         0.1324
     62 H29        -9.3024    7.9733    1.4135 H         1 <0>         0.4433
     63 H30        -9.9320    6.6517    2.2379 H         1 <0>         0.4320
     64 N4         -7.6506    5.7547    3.0949 N.pl3     1 <0>        -0.7592
     65 H31        -6.6847    5.5247    3.3564 H         1 <0>         0.4590
@<TRIPOS>BOND
     1    1   64 1
     2    2    3 1
     3    2   35 1
     4    2   64 2
     5    3    8 ar
     6    3    4 ar
     7    4    5 ar
     8    4   36 1
     9    5    6 ar
    10    5   37 1
    11    6    7 ar
    12    6   38 1
    13    7    8 ar
    14    7    9 1
    15    8   39 1
    16    9   10 1
    17    9   40 1
    18    9   41 1
    19   10   11 1
    20   10   12 1
    21   10   21 1
    22   12   13 2
    23   12   14 am
    24   14   19 1
    25   14   15 1
    26   15   16 1
    27   15   42 1
    28   15   43 1
    29   16   17 1
    30   16   44 1
    31   16   45 1
    32   17   18 1
    33   17   20 1
    34   17   46 1
    35   18   19 1
    36   18   47 1
    37   18   48 1
    38   19   49 1
    39   19   50 1
    40   20   51 1
    41   20   52 1
    42   20   53 1
    43   21   22 1
    44   21   54 1
    45   22   23 2
    46   22   24 2
    47   22   25 1
    48   25   30 ar
    49   25   26 ar
    50   26   27 ar
    51   26   55 1
    52   27   28 ar
    53   27   56 1
    54   28   29 ar
    55   28   57 1
    56   29   34 ar
    57   29   30 ar
    58   30   31 ar
    59   31   32 ar
    60   31   58 1
    61   32   33 ar
    62   32   59 1
    63   33   34 ar
    64   33   60 1
    65   34   61 1
    66   35   62 1
    67   35   63 1
    68   64   65 1
@<TRIPOS>MOLECULE
ZINC03834123
   68    72     0     0     0
SMALL
USER_CHARGES

@<TRIPOS>ATOM
      1 H1         -3.1383   11.0618    1.0043 H         1 <0>         0.4411
      2 C1         -3.3478   10.3329   -0.8850 C.cat     1 <0>         0.5992
      3 C2         -3.2523    9.0920   -1.6875 C.ar      1 <0>        -0.1389
      4 C3         -3.5143    9.1221   -3.0571 C.ar      1 <0>        -0.0491
      5 C4         -3.4231    7.9627   -3.7996 C.ar      1 <0>        -0.1090
      6 C5         -3.0675    6.7731   -3.1892 C.ar      1 <0>        -0.0423
      7 C6         -2.8116    6.7360   -1.8304 C.ar      1 <0>        -0.0644
      8 C7         -2.8994    7.8890   -1.0771 C.ar      1 <0>        -0.0091
      9 C8         -2.4299    5.4351   -1.1723 C.3       1 <0>        -0.1183
     10 C9         -3.6924    4.7184   -0.6890 C.3       1 <0>         0.1462
     11 H2         -4.3834    4.5973   -1.5232 H         1 <0>         0.1065
     12 C10        -3.3228    3.3637   -0.1419 C.2       1 <0>         0.4903
     13 O1         -3.5692    3.0884    1.0132 O.2       1 <0>        -0.4328
     14 N1         -2.7183    2.4583   -0.9365 N.am      1 <0>        -0.5957
     15 C11        -2.3245    2.7904   -2.3098 C.3       1 <0>         0.1428
     16 C12        -2.7059    1.6613   -3.2338 C.ar      1 <0>        -0.1074
     17 C13        -2.6259    1.8882   -4.6012 C.ar      1 <0>        -0.1150
     18 C14        -2.9538    0.8915   -5.4970 C.ar      1 <0>        -0.1300
     19 C15        -3.3642   -0.3430   -5.0288 C.ar      1 <0>        -0.1152
     20 C16        -3.4470   -0.5687   -3.6708 C.ar      1 <0>        -0.1209
     21 C17        -3.1215    0.4350   -2.7661 C.ar      1 <0>        -0.0482
     22 C18        -3.2495    0.1203   -1.2990 C.3       1 <0>        -0.0879
     23 C19        -2.4271    1.0969   -0.4597 C.3       1 <0>         0.1043
     24 H3         -1.3650    0.8832   -0.5802 H         1 <0>         0.0726
     25 C20        -2.8109    0.9703    0.9921 C.2       1 <0>         0.4851
     26 O2         -1.9531    0.9169    1.8414 O.co2     1 <0>        -0.6406
     27 N2         -4.3319    5.5121    0.3634 N.pl3     1 <0>        -1.0940
     28 S1         -5.5525    6.5639   -0.0189 S.o2      1 <0>         2.6815
     29 O3         -5.9768    7.1545    1.2018 O.2       1 <0>        -0.9611
     30 O4         -5.0933    7.3362   -1.1198 O.2       1 <0>        -0.9502
     31 C21        -6.9047    5.6003   -0.6089 C.ar      1 <0>        -0.6796
     32 C22        -7.0042    5.3183   -1.9701 C.ar      1 <0>        -0.0506
     33 C23        -8.0329    4.5724   -2.4578 C.ar      1 <0>        -0.1131
     34 C24        -9.0175    4.0877   -1.5799 C.ar      1 <0>        -0.0088
     35 C25       -10.0979    3.3200   -2.0473 C.ar      1 <0>        -0.1217
     36 C26       -11.0325    2.8672   -1.1678 C.ar      1 <0>        -0.0885
     37 C27       -10.9359    3.1538    0.1927 C.ar      1 <0>        -0.1199
     38 C28        -9.9040    3.8944    0.6813 C.ar      1 <0>        -0.0866
     39 C29        -8.9192    4.3791   -0.1964 C.ar      1 <0>        -0.0771
     40 C30        -7.8391    5.1474    0.2707 C.ar      1 <0>         0.0314
     41 N3         -3.6966   11.5201   -1.4910 N.pl3     1 <0>        -0.7870
     42 H4         -3.7876   10.0509   -3.5356 H         1 <0>         0.1269
     43 H5         -3.6255    7.9848   -4.8603 H         1 <0>         0.1392
     44 H6         -2.9931    5.8691   -3.7753 H         1 <0>         0.1379
     45 H7         -2.6958    7.8595   -0.0169 H         1 <0>         0.1200
     46 H8         -1.7779    5.6355   -0.3223 H         1 <0>         0.0989
     47 H9         -1.9066    4.8042   -1.8909 H         1 <0>         0.1129
     48 H10        -1.2461    2.9442   -2.3508 H         1 <0>         0.0812
     49 H11        -2.8329    3.7024   -2.6225 H         1 <0>         0.0878
     50 H12        -2.3046    2.8524   -4.9665 H         1 <0>         0.1194
     51 H13        -2.8907    1.0750   -6.5595 H         1 <0>         0.1203
     52 H14        -3.6190   -1.1286   -5.7247 H         1 <0>         0.1204
     53 H15        -3.7671   -1.5339   -3.3071 H         1 <0>         0.1224
     54 H16        -4.2973    0.1911   -1.0071 H         1 <0>         0.0975
     55 H17        -2.8946   -0.8942   -1.1176 H         1 <0>         0.0803
     56 H18        -4.0402    5.4216    1.2840 H         1 <0>         0.4306
     57 H19        -6.2515    5.6936   -2.6476 H         1 <0>         0.1358
     58 H20        -8.0951    4.3586   -3.5146 H         1 <0>         0.1357
     59 H21       -10.1857    3.0901   -3.0989 H         1 <0>         0.1331
     60 H22       -11.8616    2.2771   -1.5296 H         1 <0>         0.1300
     61 H23       -11.6915    2.7828    0.8695 H         1 <0>         0.1309
     62 H24        -9.8423    4.1089    1.7380 H         1 <0>         0.1352
     63 H25        -7.7511    5.3771    1.3224 H         1 <0>         0.1442
     64 H26        -3.8796   11.5431   -2.4433 H         1 <0>         0.4414
     65 H27        -3.7592   12.3329   -0.9653 H         1 <0>         0.4270
     66 N4         -3.0859   10.2349    0.4092 N.pl3     1 <0>        -0.7660
     67 H28        -2.8300    9.3266    0.8139 H         1 <0>         0.4583
     68 O5         -4.1058    0.9168    1.3417 O.co2     1 <0>        -0.7391
@<TRIPOS>BOND
     1    1   66 1
     2    2    3 1
     3    2   41 1
     4    2   66 2
     5    3    8 ar
     6    3    4 ar
     7    4    5 ar
     8    4   42 1
     9    5    6 ar
    10    5   43 1
    11    6    7 ar
    12    6   44 1
    13    7    8 ar
    14    7    9 1
    15    8   45 1
    16    9   10 1
    17    9   46 1
    18    9   47 1
    19   10   11 1
    20   10   12 1
    21   10   27 1
    22   12   13 2
    23   12   14 am
    24   14   23 1
    25   14   15 1
    26   15   16 1
    27   15   48 1
    28   15   49 1
    29   16   21 ar
    30   16   17 ar
    31   17   18 ar
    32   17   50 1
    33   18   19 ar
    34   18   51 1
    35   19   20 ar
    36   19   52 1
    37   20   21 ar
    38   20   53 1
    39   21   22 1
    40   22   23 1
    41   22   54 1
    42   22   55 1
    43   23   24 1
    44   23   25 1
    45   25   26 2
    46   25   68 1
    47   27   28 1
    48   27   56 1
    49   28   29 2
    50   28   30 2
    51   28   31 1
    52   31   40 ar
    53   31   32 ar
    54   32   33 ar
    55   32   57 1
    56   33   34 ar
    57   33   58 1
    58   34   39 ar
    59   34   35 ar
    60   35   36 ar
    61   35   59 1
    62   36   37 ar
    63   36   60 1
    64   37   38 ar
    65   37   61 1
    66   38   39 ar
    67   38   62 1
    68   39   40 ar
    69   40   63 1
    70   41   64 1
    71   41   65 1
    72   66   67 1
@<TRIPOS>MOLECULE
ZINC03834124
   65    68     0     0     0
SMALL
USER_CHARGES

@<TRIPOS>ATOM
      1 H1          3.8335   12.3439    0.2446 H         1 <0>         0.4458
      2 C1          1.8770   12.8659    0.0340 C.cat     1 <0>         0.5989
      3 C2          0.6173   12.4723   -0.6378 C.ar      1 <0>        -0.1534
      4 C3         -0.5439   13.2198   -0.4417 C.ar      1 <0>        -0.0558
      5 C4         -1.7144   12.8485   -1.0705 C.ar      1 <0>        -0.1035
      6 C5         -1.7366   11.7404   -1.8989 C.ar      1 <0>        -0.0458
      7 C6         -0.5896   10.9919   -2.0928 C.ar      1 <0>        -0.0713
      8 C7          0.5873   11.3534   -1.4691 C.ar      1 <0>        -0.0611
      9 C8         -0.6238    9.7829   -2.9917 C.3       1 <0>        -0.0887
     10 C9         -0.9789    8.5440   -2.1669 C.3       1 <0>         0.1341
     11 H2         -1.9452    8.6929   -1.6852 H         1 <0>         0.1188
     12 C10        -1.0488    7.3411   -3.0721 C.2       1 <0>         0.4881
     13 O1         -0.0873    6.6106   -3.1852 O.2       1 <0>        -0.5077
     14 N1         -2.1799    7.0772   -3.7557 N.am      1 <0>        -0.5957
     15 C11        -2.2533    5.8582   -4.5298 C.3       1 <0>         0.1173
     16 C12        -1.7263    6.1103   -5.9581 C.3       1 <0>        -0.1321
     17 C13        -2.6789    6.9370   -6.7148 C.3       1 <0>        -0.1230
     18 C14        -2.8957    8.3329   -6.1386 C.3       1 <0>        -0.1156
     19 C15        -3.9499    8.2709   -5.0610 C.3       1 <0>        -0.1342
     20 C16        -3.2903    8.0472   -3.6880 C.3       1 <0>         0.0947
     21 N2          0.0481    8.3271   -1.1449 N.pl3     1 <0>        -1.0964
     22 S1         -0.3749    7.7280    0.3398 S.o2      1 <0>         2.6876
     23 O2         -1.4775    8.5024    0.7911 O.2       1 <0>        -0.9508
     24 O3          0.8279    7.6074    1.0869 O.2       1 <0>        -0.9503
     25 C17        -0.9780    6.0916    0.0888 C.ar      1 <0>        -0.6712
     26 C18        -0.0902    5.0181    0.1349 C.ar      1 <0>        -0.0386
     27 C19        -0.5232    3.7419   -0.0547 C.ar      1 <0>        -0.1090
     28 C20        -1.8854    3.4993   -0.3010 C.ar      1 <0>        -0.0072
     29 C21        -2.3699    2.1954   -0.5021 C.ar      1 <0>        -0.1180
     30 C22        -3.6955    1.9987   -0.7387 C.ar      1 <0>        -0.0895
     31 C23        -4.5824    3.0726   -0.7902 C.ar      1 <0>        -0.1162
     32 C24        -4.1503    4.3482   -0.5945 C.ar      1 <0>        -0.0935
     33 C25        -2.7881    4.5908   -0.3480 C.ar      1 <0>        -0.0757
     34 C26        -2.3037    5.8947   -0.1478 C.ar      1 <0>         0.0144
     35 N3          1.9035   13.9720    0.8550 N.pl3     1 <0>        -0.7788
     36 H3         -0.5266   14.0877    0.2009 H         1 <0>         0.1396
     37 H4         -2.6142   13.4263   -0.9193 H         1 <0>         0.1519
     38 H5         -2.6541   11.4562   -2.3925 H         1 <0>         0.1478
     39 H6          1.4831   10.7706   -1.6245 H         1 <0>         0.1340
     40 H7          0.3545    9.6447   -3.4522 H         1 <0>         0.1019
     41 H8         -1.3739    9.9291   -3.7689 H         1 <0>         0.1095
     42 H9         -1.6450    5.0890   -4.0540 H         1 <0>         0.0833
     43 H10        -3.2890    5.5220   -4.5799 H         1 <0>         0.0787
     44 H11        -1.5920    5.1563   -6.4680 H         1 <0>         0.0753
     45 H12        -0.7679    6.6262   -5.8996 H         1 <0>         0.0654
     46 H13        -3.6388    6.4212   -6.7427 H         1 <0>         0.0619
     47 H14        -2.3115    7.0373   -7.7361 H         1 <0>         0.0605
     48 H15        -3.2243    9.0062   -6.9303 H         1 <0>         0.0674
     49 H16        -1.9619    8.7002   -5.7130 H         1 <0>         0.0609
     50 H17        -4.6341    7.4488   -5.2714 H         1 <0>         0.0745
     51 H18        -4.5053    9.2087   -5.0467 H         1 <0>         0.0814
     52 H19        -4.0417    7.6770   -2.9904 H         1 <0>         0.0731
     53 H20        -2.9066    8.9995   -3.3219 H         1 <0>         0.0787
     54 H21         0.9759    8.5344   -1.3378 H         1 <0>         0.4201
     55 H22         0.9571    5.2018    0.3244 H         1 <0>         0.1370
     56 H23         0.1763    2.9200   -0.0164 H         1 <0>         0.1376
     57 H24        -1.6935    1.3539   -0.4694 H         1 <0>         0.1345
     58 H25        -4.0651    0.9957   -0.8933 H         1 <0>         0.1312
     59 H26        -5.6290    2.8894   -0.9842 H         1 <0>         0.1307
     60 H27        -4.8496    5.1702   -0.6337 H         1 <0>         0.1315
     61 H28        -2.9799    6.7361   -0.1808 H         1 <0>         0.1392
     62 H29         1.0970   14.4931    0.9930 H         1 <0>         0.4433
     63 H30         2.7287   14.2298    1.2950 H         1 <0>         0.4321
     64 N4          2.9423   12.1137   -0.1952 N.pl3     1 <0>        -0.7590
     65 H31         2.8714   11.2987   -0.8157 H         1 <0>         0.4591
@<TRIPOS>BOND
     1    1   64 1
     2    2    3 1
     3    2   35 1
     4    2   64 2
     5    3    8 ar
     6    3    4 ar
     7    4    5 ar
     8    4   36 1
     9    5    6 ar
    10    5   37 1
    11    6    7 ar
    12    6   38 1
    13    7    8 ar
    14    7    9 1
    15    8   39 1
    16    9   10 1
    17    9   40 1
    18    9   41 1
    19   10   11 1
    20   10   12 1
    21   10   21 1
    22   12   13 2
    23   12   14 am
    24   14   20 1
    25   14   15 1
    26   15   16 1
    27   15   42 1
    28   15   43 1
    29   16   17 1
    30   16   44 1
    31   16   45 1
    32   17   18 1
    33   17   46 1
    34   17   47 1
    35   18   19 1
    36   18   48 1
    37   18   49 1
    38   19   20 1
    39   19   50 1
    40   19   51 1
    41   20   52 1
    42   20   53 1
    43   21   22 1
    44   21   54 1
    45   22   23 2
    46   22   24 2
    47   22   25 1
    48   25   34 ar
    49   25   26 ar
    50   26   27 ar
    51   26   55 1
    52   27   28 ar
    53   27   56 1
    54   28   33 ar
    55   28   29 ar
    56   29   30 ar
    57   29   57 1
    58   30   31 ar
    59   30   58 1
    60   31   32 ar
    61   31   59 1
    62   32   33 ar
    63   32   60 1
    64   33   34 ar
    65   34   61 1
    66   35   62 1
    67   35   63 1
    68   64   65 1
@<TRIPOS>MOLECULE
ZINC03834125
   71    75     0     0     0
SMALL
USER_CHARGES

@<TRIPOS>ATOM
      1 H1         -3.5016   14.1347   -2.1633 H         1 <0>         0.4436
      2 C1         -1.6357   13.3532   -2.3905 C.cat     1 <0>         0.5964
      3 C2         -0.5624   12.6338   -1.6671 C.ar      1 <0>        -0.1385
      4 C3          0.6223   12.2999   -2.3232 C.ar      1 <0>        -0.0421
      5 C4          1.6188   11.6300   -1.6437 C.ar      1 <0>        -0.0963
      6 C5          1.4470   11.2944   -0.3125 C.ar      1 <0>        -0.0351
      7 C6          0.2722   11.6177    0.3421 C.ar      1 <0>        -0.0642
      8 C7         -0.7319   12.2877   -0.3270 C.ar      1 <0>        -0.0431
      9 C8          0.0907   11.2429    1.7905 C.3       1 <0>        -0.1030
     10 C9         -0.5468    9.8551    1.8822 C.3       1 <0>         0.1406
     11 H2          0.1111    9.1216    1.4159 H         1 <0>         0.1094
     12 C10        -0.7566    9.4933    3.3299 C.2       1 <0>         0.5130
     13 O1         -1.8698    9.5321    3.8095 O.2       1 <0>        -0.5202
     14 N1          0.2930    9.1267    4.0918 N.am      1 <0>        -0.6034
     15 C11         1.6614    9.1879    3.5604 C.3       1 <0>         0.0960
     16 C12         2.3269    7.8248    3.7412 C.3       1 <0>        -0.1342
     17 C13         2.2412    7.4087    5.2115 C.3       1 <0>        -0.0930
     18 C14         0.7726    7.2899    5.6250 C.3       1 <0>        -0.1323
     19 C15         0.0900    8.6522    5.4674 C.3       1 <0>         0.1099
     20 C16         2.9349    6.0582    5.4002 C.3       1 <0>        -0.1497
     21 N2         -1.8374    9.8638    1.1890 N.pl3     1 <0>        -1.0978
     22 S1         -1.9333    9.3694   -0.3886 S.o2      1 <0>         2.6827
     23 O2         -0.9016   10.0491   -1.0906 O.2       1 <0>        -0.9355
     24 O3         -3.3009    9.4668   -0.7623 O.2       1 <0>        -0.9458
     25 C17        -1.5224    7.6564   -0.4237 C.ar      1 <0>        -0.6746
     26 C18        -2.5184    6.7080   -0.2791 C.ar      1 <0>         0.0060
     27 C19        -2.2105    5.3590   -0.3046 C.ar      1 <0>        -0.0859
     28 C20        -0.8905    4.9519   -0.4763 C.ar      1 <0>        -0.0550
     29 C21         0.1224    5.9162   -0.6229 C.ar      1 <0>        -0.1359
     30 C22        -0.2049    7.2688   -0.5953 C.ar      1 <0>         0.0215
     31 C23         1.5264    5.4926   -0.8068 C.2       1 <0>         0.4392
     32 O4          2.4017    6.3258   -0.9334 O.2       1 <0>        -0.4243
     33 C24         1.8644    4.0541   -0.8355 C.ar      1 <0>        -0.1251
     34 C25         3.1840    3.6462   -1.0079 C.ar      1 <0>        -0.0641
     35 C26         3.4913    2.2969   -1.0340 C.ar      1 <0>        -0.0932
     36 C27         2.4949    1.3487   -0.8903 C.ar      1 <0>        -0.0918
     37 C28         1.1770    1.7368   -0.7233 C.ar      1 <0>        -0.0637
     38 C29         0.8513    3.0898   -0.6889 C.ar      1 <0>        -0.1237
     39 C30        -0.5528    3.5133   -0.5053 C.2       1 <0>         0.4267
     40 O5         -1.4279    2.6801   -0.3780 O.2       1 <0>        -0.4082
     41 N3         -1.4653   13.6938   -3.7147 N.pl3     1 <0>        -0.7820
     42 H3          0.7594   12.5656   -3.3610 H         1 <0>         0.1303
     43 H4          2.5364   11.3706   -2.1509 H         1 <0>         0.1425
     44 H5          2.2317   10.7738    0.2164 H         1 <0>         0.1384
     45 H6         -1.6471   12.5433    0.1863 H         1 <0>         0.1233
     46 H7         -0.5567   11.9729    2.2762 H         1 <0>         0.0998
     47 H8          1.0610   11.2306    2.2869 H         1 <0>         0.1069
     48 H9          1.6309    9.4404    2.5005 H         1 <0>         0.0831
     49 H10         2.2302    9.9438    4.1019 H         1 <0>         0.0829
     50 H11         3.3729    7.8866    3.4410 H         1 <0>         0.0833
     51 H12         1.8137    7.0875    3.1239 H         1 <0>         0.0664
     52 H13         2.7331    8.1593    5.8303 H         1 <0>         0.0765
     53 H14         0.7122    6.9709    6.6655 H         1 <0>         0.0819
     54 H15         0.2739    6.5575    4.9900 H         1 <0>         0.0666
     55 H16         0.5280    9.3635    6.1677 H         1 <0>         0.0754
     56 H17        -0.9772    8.5514    5.6654 H         1 <0>         0.0959
     57 H18         2.4428    5.3074    4.7819 H         1 <0>         0.0537
     58 H19         3.9809    6.1426    5.1058 H         1 <0>         0.0584
     59 H20         2.8750    5.7622    6.4476 H         1 <0>         0.0594
     60 H21        -2.6357   10.1591    1.6542 H         1 <0>         0.4322
     61 H22        -3.5432    7.0220   -0.1458 H         1 <0>         0.1564
     62 H23        -2.9930    4.6233   -0.1911 H         1 <0>         0.1595
     63 H24         0.5680    8.0148   -0.7072 H         1 <0>         0.1597
     64 H25         3.9671    4.3814   -1.1207 H         1 <0>         0.1464
     65 H26         4.5157    1.9825   -1.1678 H         1 <0>         0.1432
     66 H27         2.7462    0.2986   -0.9130 H         1 <0>         0.1436
     67 H28         0.4031    0.9913   -0.6156 H         1 <0>         0.1469
     68 H29        -0.6424   13.4623   -4.1730 H         1 <0>         0.4428
     69 H30        -2.1684   14.1651   -4.1885 H         1 <0>         0.4298
     70 N4         -2.7340   13.6401   -1.7089 N.pl3     1 <0>        -0.7652
     71 H31        -2.8129   13.3646   -0.7229 H         1 <0>         0.4570
@<TRIPOS>BOND
     1    1   70 1
     2    2    3 1
     3    2   41 1
     4    2   70 2
     5    3    8 ar
     6    3    4 ar
     7    4    5 ar
     8    4   42 1
     9    5    6 ar
    10    5   43 1
    11    6    7 ar
    12    6   44 1
    13    7    8 ar
    14    7    9 1
    15    8   45 1
    16    9   10 1
    17    9   46 1
    18    9   47 1
    19   10   11 1
    20   10   12 1
    21   10   21 1
    22   12   13 2
    23   12   14 am
    24   14   19 1
    25   14   15 1
    26   15   16 1
    27   15   48 1
    28   15   49 1
    29   16   17 1
    30   16   50 1
    31   16   51 1
    32   17   18 1
    33   17   20 1
    34   17   52 1
    35   18   19 1
    36   18   53 1
    37   18   54 1
    38   19   55 1
    39   19   56 1
    40   20   57 1
    41   20   58 1
    42   20   59 1
    43   21   22 1
    44   21   60 1
    45   22   23 2
    46   22   24 2
    47   22   25 1
    48   25   30 ar
    49   25   26 ar
    50   26   27 ar
    51   26   61 1
    52   27   28 ar
    53   27   62 1
    54   28   39 1
    55   28   29 ar
    56   29   30 ar
    57   29   31 1
    58   30   63 1
    59   31   32 2
    60   31   33 1
    61   33   38 ar
    62   33   34 ar
    63   34   35 ar
    64   34   64 1
    65   35   36 ar
    66   35   65 1
    67   36   37 ar
    68   36   66 1
    69   37   38 ar
    70   37   67 1
    71   38   39 1
    72   39   40 2
    73   41   68 1
    74   41   69 1
    75   70   71 1
@<TRIPOS>MOLECULE
ZINC03834126
   62    64     0     0     0
SMALL
USER_CHARGES

@<TRIPOS>ATOM
      1 H1         -2.0294    3.2254   -0.3442 H         1 <0>         0.4458
      2 C1         -0.3904    2.0293   -0.1776 C.cat     1 <0>         0.5988
      3 C2          0.0300    0.6138   -0.0658 C.ar      1 <0>        -0.1533
      4 C3          1.3841    0.2902    0.0190 C.ar      1 <0>        -0.0555
      5 C4          1.7692   -1.0301    0.1296 C.ar      1 <0>        -0.1039
      6 C5          0.8160   -2.0328    0.1438 C.ar      1 <0>        -0.0463
      7 C6         -0.5280   -1.7185    0.0540 C.ar      1 <0>        -0.0723
      8 C7         -0.9260   -0.4011   -0.0505 C.ar      1 <0>        -0.0603
      9 C8         -1.5598   -2.8167    0.0706 C.3       1 <0>        -0.0871
     10 C9         -1.8348   -3.2800   -1.3614 C.3       1 <0>         0.1356
     11 H2         -0.8968   -3.5663   -1.8371 H         1 <0>         0.1202
     12 C10        -2.7671   -4.4637   -1.3362 C.2       1 <0>         0.4951
     13 O1         -3.9544   -4.3047   -1.5262 O.2       1 <0>        -0.5125
     14 N1         -2.2816   -5.6990   -1.1024 N.am      1 <0>        -0.6042
     15 C11        -0.8647   -5.8954   -0.7670 C.3       1 <0>         0.0969
     16 C12        -0.2641   -6.9222   -1.7255 C.3       1 <0>        -0.1351
     17 C13        -1.1023   -8.2021   -1.6889 C.3       1 <0>        -0.0921
     18 C14        -2.5304   -7.8920   -2.1434 C.3       1 <0>        -0.1321
     19 C15        -3.1578   -6.8756   -1.1841 C.3       1 <0>         0.1113
     20 C16        -0.4843   -9.2430   -2.6246 C.3       1 <0>        -0.1495
     21 N2         -2.4525   -2.1879   -2.1178 N.pl3     1 <0>        -1.0971
     22 S1         -2.1053   -1.9942   -3.7254 S.o2      1 <0>         2.6885
     23 O2         -2.8685   -0.8829   -4.1747 O.2       1 <0>        -0.9535
     24 O3         -0.6901   -2.0444   -3.8441 O.2       1 <0>        -0.9520
     25 C17        -2.7319   -3.4092   -4.5678 C.ar      1 <0>        -0.6860
     26 C18        -1.9288   -4.5204   -4.7444 C.ar      1 <0>        -0.0188
     27 C19        -2.4219   -5.6321   -5.4016 C.ar      1 <0>        -0.1386
     28 C20        -3.7149   -5.6291   -5.8905 C.ar      1 <0>        -0.0167
     29 C21        -4.5164   -4.5160   -5.7181 C.ar      1 <0>        -0.1375
     30 C22        -4.0248   -3.4060   -5.0572 C.ar      1 <0>        -0.0016
     31 C23        -4.2509   -6.8392   -6.6110 C.3       1 <0>        -0.1292
     32 N3          0.5565    3.0301   -0.1924 N.pl3     1 <0>        -0.7789
     33 H3          2.1292    1.0718    0.0031 H         1 <0>         0.1396
     34 H4          2.8171   -1.2816    0.2005 H         1 <0>         0.1519
     35 H5          1.1226   -3.0651    0.2257 H         1 <0>         0.1479
     36 H6         -1.9757   -0.1569   -0.1198 H         1 <0>         0.1339
     37 H7         -1.1880   -3.6557    0.6588 H         1 <0>         0.1083
     38 H8         -2.4821   -2.4421    0.5148 H         1 <0>         0.1020
     39 H9         -0.3314   -4.9499   -0.8657 H         1 <0>         0.0810
     40 H10        -0.7786   -6.2607    0.2563 H         1 <0>         0.0804
     41 H11         0.7587   -7.1483   -1.4241 H         1 <0>         0.0823
     42 H12        -0.2646   -6.5158   -2.7370 H         1 <0>         0.0690
     43 H13        -1.1219   -8.5942   -0.6720 H         1 <0>         0.0748
     44 H14        -3.1206   -8.8083   -2.1394 H         1 <0>         0.0789
     45 H15        -2.5094   -7.4765   -3.1508 H         1 <0>         0.0689
     46 H16        -3.2625   -7.3225   -0.1955 H         1 <0>         0.0721
     47 H17        -4.1371   -6.5766   -1.5579 H         1 <0>         0.0935
     48 H18        -0.4652   -8.8514   -3.6417 H         1 <0>         0.0545
     49 H19         0.5327   -9.4641   -2.3011 H         1 <0>         0.0580
     50 H20        -1.0805  -10.1552   -2.5978 H         1 <0>         0.0583
     51 H21        -3.0647   -1.5783   -1.6770 H         1 <0>         0.4203
     52 H22        -0.9173   -4.5212   -4.3660 H         1 <0>         0.1331
     53 H23        -1.7958   -6.5019   -5.5359 H         1 <0>         0.1323
     54 H24        -5.5266   -4.5136   -6.1002 H         1 <0>         0.1348
     55 H25        -4.6509   -2.5362   -4.9229 H         1 <0>         0.1380
     56 H26        -4.0421   -6.7495   -7.6771 H         1 <0>         0.0831
     57 H27        -3.7705   -7.7366   -6.2210 H         1 <0>         0.0744
     58 H28        -5.3277   -6.9070   -6.4561 H         1 <0>         0.0755
     59 H29         1.4985    2.8075   -0.1296 H         1 <0>         0.4432
     60 H30         0.2811    3.9573   -0.2657 H         1 <0>         0.4321
     61 N4         -1.6901    2.2666   -0.2654 N.pl3     1 <0>        -0.7592
     62 H31        -2.3565    1.4855   -0.2542 H         1 <0>         0.4592
@<TRIPOS>BOND
     1    1   61 1
     2    2    3 1
     3    2   32 1
     4    2   61 2
     5    3    8 ar
     6    3    4 ar
     7    4    5 ar
     8    4   33 1
     9    5    6 ar
    10    5   34 1
    11    6    7 ar
    12    6   35 1
    13    7    8 ar
    14    7    9 1
    15    8   36 1
    16    9   10 1
    17    9   37 1
    18    9   38 1
    19   10   11 1
    20   10   12 1
    21   10   21 1
    22   12   13 2
    23   12   14 am
    24   14   19 1
    25   14   15 1
    26   15   16 1
    27   15   39 1
    28   15   40 1
    29   16   17 1
    30   16   41 1
    31   16   42 1
    32   17   18 1
    33   17   20 1
    34   17   43 1
    35   18   19 1
    36   18   44 1
    37   18   45 1
    38   19   46 1
    39   19   47 1
    40   20   48 1
    41   20   49 1
    42   20   50 1
    43   21   22 1
    44   21   51 1
    45   22   23 2
    46   22   24 2
    47   22   25 1
    48   25   30 ar
    49   25   26 ar
    50   26   27 ar
    51   26   52 1
    52   27   28 ar
    53   27   53 1
    54   28   29 ar
    55   28   31 1
    56   29   30 ar
    57   29   54 1
    58   30   55 1
    59   31   56 1
    60   31   57 1
    61   31   58 1
    62   32   59 1
    63   32   60 1
    64   61   62 1
@<TRIPOS>MOLECULE
ZINC03834129
   66    70     0     0     0
SMALL
USER_CHARGES

@<TRIPOS>ATOM
      1 H1         -1.4717    3.0476    0.0255 H         1 <0>         0.4434
      2 C1          0.0746    1.7234    0.0111 C.cat     1 <0>         0.5980
      3 C2          0.3877    0.2760    0.0017 C.ar      1 <0>        -0.1361
      4 C3          1.7145   -0.1532   -0.0185 C.ar      1 <0>        -0.0434
      5 C4          2.0000   -1.5031   -0.0213 C.ar      1 <0>        -0.1076
      6 C5          0.9729   -2.4301   -0.0162 C.ar      1 <0>        -0.0424
      7 C6         -0.3450   -2.0105   -0.0014 C.ar      1 <0>        -0.0744
      8 C7         -0.6430   -0.6631    0.0073 C.ar      1 <0>        -0.0104
      9 C8         -1.4577   -3.0269    0.0046 C.3       1 <0>        -0.1124
     10 C9         -1.8479   -3.3645   -1.4358 C.3       1 <0>         0.1437
     11 H2         -0.9643   -3.6906   -1.9846 H         1 <0>         0.1145
     12 C10        -2.8734   -4.4688   -1.4327 C.2       1 <0>         0.5172
     13 O1         -3.9677   -4.2815   -1.9209 O.2       1 <0>        -0.5156
     14 N1         -2.5744   -5.6645   -0.8876 N.am      1 <0>        -0.6065
     15 C11        -3.5558   -6.7619   -0.8631 C.3       1 <0>         0.1115
     16 C12        -3.0014   -7.8997   -1.7275 C.3       1 <0>        -0.1003
     17 C13        -1.5634   -8.1831   -1.3813 C.ar      1 <0>        -0.0659
     18 C14        -1.0437   -9.4185   -1.7492 C.ar      1 <0>        -0.1170
     19 C15         0.2693   -9.7376   -1.4738 C.ar      1 <0>        -0.1096
     20 C16         1.0781   -8.8222   -0.8257 C.ar      1 <0>        -0.1175
     21 C17         0.5637   -7.5968   -0.4556 C.ar      1 <0>        -0.1126
     22 C18        -0.7589   -7.2757   -0.7296 C.ar      1 <0>        -0.1090
     23 C19        -1.2602   -5.9231   -0.2894 C.3       1 <0>         0.1431
     24 N2         -2.4121   -2.1760   -2.0803 N.pl3     1 <0>        -1.0987
     25 S1         -1.4432   -1.1899   -2.9921 S.o2      1 <0>         2.6782
     26 O2         -2.2766   -0.1554   -3.4966 O.2       1 <0>        -0.9545
     27 O3         -0.2858   -0.9235   -2.2119 O.2       1 <0>        -0.9431
     28 C20        -0.9074   -2.1285   -4.3838 C.ar      1 <0>        -0.6819
     29 C21         0.2740   -2.8636   -4.3022 C.ar      1 <0>        -0.0558
     30 C22         0.7131   -3.6034   -5.3567 C.ar      1 <0>        -0.1093
     31 C23        -0.0272   -3.6192   -6.5513 C.ar      1 <0>        -0.0099
     32 C24         0.3980   -4.3658   -7.6635 C.ar      1 <0>        -0.1213
     33 C25        -0.3447   -4.3575   -8.8039 C.ar      1 <0>        -0.0855
     34 C26        -1.5233   -3.6180   -8.8872 C.ar      1 <0>        -0.1152
     35 C27        -1.9656   -2.8832   -7.8307 C.ar      1 <0>        -0.0916
     36 C28        -1.2255   -2.8674   -6.6361 C.ar      1 <0>        -0.0790
     37 C29        -1.6503   -2.1203   -5.5240 C.ar      1 <0>         0.0273
     38 N3          1.0952    2.6490    0.0055 N.pl3     1 <0>        -0.7827
     39 H3          2.5171    0.5695   -0.0274 H         1 <0>         0.1300
     40 H4          3.0270   -1.8367   -0.0324 H         1 <0>         0.1418
     41 H5          1.2012   -3.4857   -0.0232 H         1 <0>         0.1371
     42 H6         -1.6725   -0.3366    0.0187 H         1 <0>         0.1197
     43 H7         -1.1210   -3.9313    0.5113 H         1 <0>         0.1097
     44 H8         -2.3213   -2.6171    0.5284 H         1 <0>         0.0993
     45 H9         -3.6960   -7.1085    0.1607 H         1 <0>         0.0825
     46 H10        -4.5061   -6.4159   -1.2697 H         1 <0>         0.1031
     47 H11        -3.0686   -7.6195   -2.7787 H         1 <0>         0.0824
     48 H12        -3.5948   -8.7981   -1.5575 H         1 <0>         0.0920
     49 H13        -1.6737  -10.1349   -2.2555 H         1 <0>         0.1246
     50 H14         0.6648  -10.7000   -1.7631 H         1 <0>         0.1262
     51 H15         2.1081   -9.0654   -0.6106 H         1 <0>         0.1268
     52 H16         1.1948   -6.8818    0.0511 H         1 <0>         0.1241
     53 H17        -0.5579   -5.1539   -0.6104 H         1 <0>         0.0935
     54 H18        -1.3463   -5.9042    0.7971 H         1 <0>         0.0912
     55 H19        -3.3530   -1.9666   -1.9729 H         1 <0>         0.4299
     56 H20         0.8472   -2.8495   -3.3870 H         1 <0>         0.1367
     57 H21         1.6284   -4.1711   -5.2778 H         1 <0>         0.1375
     58 H22         1.3092   -4.9434   -7.6134 H         1 <0>         0.1354
     59 H23        -0.0160   -4.9322   -9.6569 H         1 <0>         0.1331
     60 H24        -2.0937   -3.6281   -9.8042 H         1 <0>         0.1334
     61 H25        -2.8805   -2.3148   -7.9099 H         1 <0>         0.1357
     62 H26        -2.5613   -1.5424   -5.5742 H         1 <0>         0.1441
     63 H27         2.0187    2.3526   -0.0046 H         1 <0>         0.4425
     64 H28         0.8902    3.5971    0.0116 H         1 <0>         0.4295
     65 N4         -1.2052    2.0629    0.0190 N.pl3     1 <0>        -0.7661
     66 H29        -1.9294    1.3350    0.0185 H         1 <0>         0.4562
@<TRIPOS>BOND
     1    1   65 1
     2    2    3 1
     3    2   38 1
     4    2   65 2
     5    3    8 ar
     6    3    4 ar
     7    4    5 ar
     8    4   39 1
     9    5    6 ar
    10    5   40 1
    11    6    7 ar
    12    6   41 1
    13    7    8 ar
    14    7    9 1
    15    8   42 1
    16    9   10 1
    17    9   43 1
    18    9   44 1
    19   10   11 1
    20   10   12 1
    21   10   24 1
    22   12   13 2
    23   12   14 am
    24   14   23 1
    25   14   15 1
    26   15   16 1
    27   15   45 1
    28   15   46 1
    29   16   17 1
    30   16   47 1
    31   16   48 1
    32   17   22 ar
    33   17   18 ar
    34   18   19 ar
    35   18   49 1
    36   19   20 ar
    37   19   50 1
    38   20   21 ar
    39   20   51 1
    40   21   22 ar
    41   21   52 1
    42   22   23 1
    43   23   53 1
    44   23   54 1
    45   24   25 1
    46   24   55 1
    47   25   26 2
    48   25   27 2
    49   25   28 1
    50   28   37 ar
    51   28   29 ar
    52   29   30 ar
    53   29   56 1
    54   30   31 ar
    55   30   57 1
    56   31   36 ar
    57   31   32 ar
    58   32   33 ar
    59   32   58 1
    60   33   34 ar
    61   33   59 1
    62   34   35 ar
    63   34   60 1
    64   35   36 ar
    65   35   61 1
    66   36   37 ar
    67   37   62 1
    68   38   63 1
    69   38   64 1
    70   65   66 1
@<TRIPOS>MOLECULE
ZINC03834131
   61    64     0     0     0
SMALL
USER_CHARGES

@<TRIPOS>ATOM
      1 H1          1.4557   -1.5749   -0.0203 H         1 <0>         0.4433
      2 C1         -0.0905   -0.2509    0.0015 C.cat     1 <0>         0.5983
      3 C2         -0.4035    1.1965    0.0123 C.ar      1 <0>        -0.1380
      4 C3         -1.7306    1.6258    0.0214 C.ar      1 <0>        -0.0426
      5 C4         -2.0158    2.9756    0.0371 C.ar      1 <0>        -0.1090
      6 C5         -0.9888    3.9027    0.0319 C.ar      1 <0>        -0.0377
      7 C6          0.3291    3.4831    0.0171 C.ar      1 <0>        -0.0765
      8 C7          0.6272    2.1357    0.0075 C.ar      1 <0>        -0.0117
      9 C8          1.4418    4.4995    0.0119 C.3       1 <0>        -0.0987
     10 C9          1.8050    4.8506   -1.4323 C.3       1 <0>         0.1727
     11 H2          0.9115    5.1818   -1.9614 H         1 <0>         0.1273
     12 C10         2.8305    5.9550   -1.4380 C.2       1 <0>         0.4567
     13 O1          3.9114    5.7731   -1.9463 O.2       1 <0>        -0.4859
     14 O2          2.5430    7.1407   -0.8784 O.3       1 <0>        -0.3448
     15 C11         3.5783    8.1578   -0.9207 C.3       1 <0>         0.1122
     16 C12         3.0787    9.4112   -0.2493 C.ar      1 <0>        -0.1070
     17 C13         2.4277   10.3797   -0.9904 C.ar      1 <0>        -0.0938
     18 C14         1.9652   11.5272   -0.3737 C.ar      1 <0>        -0.1211
     19 C15         2.1627   11.7108    0.9820 C.ar      1 <0>        -0.1028
     20 C16         2.8188   10.7449    1.7220 C.ar      1 <0>        -0.1215
     21 C17         3.2766    9.5951    1.1063 C.ar      1 <0>        -0.0938
     22 N1          2.3570    3.6683   -2.0984 N.pl3     1 <0>        -1.1039
     23 S1          1.3712    2.6909   -3.0012 S.o2      1 <0>         2.6786
     24 O3          2.1950    1.6613   -3.5310 O.2       1 <0>        -0.9516
     25 O4          0.2285    2.4171   -2.2021 O.2       1 <0>        -0.9396
     26 C18         0.8095    3.6425   -4.3738 C.ar      1 <0>        -0.6834
     27 C19        -0.3700    4.3768   -4.2632 C.ar      1 <0>        -0.0568
     28 C20        -0.8287    5.1264   -5.3023 C.ar      1 <0>        -0.1088
     29 C21        -0.1108    5.1535   -6.5102 C.ar      1 <0>        -0.0101
     30 C22        -0.5567    5.9104   -7.6072 C.ar      1 <0>        -0.1211
     31 C23         0.1646    5.9131   -8.7613 C.ar      1 <0>        -0.0851
     32 C24         1.3413    5.1745   -8.8737 C.ar      1 <0>        -0.1148
     33 C25         1.8032    4.4297   -7.8325 C.ar      1 <0>        -0.0920
     34 C26         1.0856    4.4026   -6.6245 C.ar      1 <0>        -0.0797
     35 C27         1.5310    3.6451   -5.5277 C.ar      1 <0>         0.0269
     36 N2         -1.1111   -1.1764    0.0063 N.pl3     1 <0>        -0.7828
     37 H3         -2.5331    0.9031    0.0206 H         1 <0>         0.1300
     38 H4         -3.0429    3.3092    0.0491 H         1 <0>         0.1420
     39 H5         -1.2171    4.9583    0.0396 H         1 <0>         0.1410
     40 H6          1.6565    1.8092   -0.0033 H         1 <0>         0.1195
     41 H7          1.1147    5.3990    0.5333 H         1 <0>         0.1155
     42 H8          2.3151    4.0848    0.5156 H         1 <0>         0.0968
     43 H9          4.4649    7.7957   -0.4003 H         1 <0>         0.0850
     44 H10         3.8301    8.3771   -1.9582 H         1 <0>         0.0838
     45 H11         2.2770   10.2381   -2.0504 H         1 <0>         0.1240
     46 H12         1.4530   12.2819   -0.9519 H         1 <0>         0.1280
     47 H13         1.8047   12.6090    1.4632 H         1 <0>         0.1277
     48 H14         2.9734   10.8885    2.7812 H         1 <0>         0.1281
     49 H15         3.7892    8.8405    1.6845 H         1 <0>         0.1245
     50 H16         3.2998    3.4581   -2.0105 H         1 <0>         0.4304
     51 H17        -0.9260    4.3539   -3.3376 H         1 <0>         0.1387
     52 H18        -1.7423    5.6933   -5.2010 H         1 <0>         0.1389
     53 H19        -1.4667    6.4875   -7.5346 H         1 <0>         0.1361
     54 H20        -0.1800    6.4958   -9.6027 H         1 <0>         0.1335
     55 H21         1.8945    5.1933   -9.8009 H         1 <0>         0.1336
     56 H22         2.7165    3.8622   -7.9342 H         1 <0>         0.1357
     57 H23         2.4408    3.0678   -5.6004 H         1 <0>         0.1445
     58 H24        -2.0347   -0.8800    0.0168 H         1 <0>         0.4426
     59 H25        -0.9061   -2.1245   -0.0007 H         1 <0>         0.4294
     60 N3          1.1892   -0.5903   -0.0124 N.pl3     1 <0>        -0.7666
     61 H26         1.9133    0.1376   -0.0153 H         1 <0>         0.4559
@<TRIPOS>BOND
     1    1   60 1
     2    2    3 1
     3    2   36 1
     4    2   60 2
     5    3    8 ar
     6    3    4 ar
     7    4    5 ar
     8    4   37 1
     9    5    6 ar
    10    5   38 1
    11    6    7 ar
    12    6   39 1
    13    7    8 ar
    14    7    9 1
    15    8   40 1
    16    9   10 1
    17    9   41 1
    18    9   42 1
    19   10   11 1
    20   10   12 1
    21   10   22 1
    22   12   13 2
    23   12   14 1
    24   14   15 1
    25   15   16 1
    26   15   43 1
    27   15   44 1
    28   16   21 ar
    29   16   17 ar
    30   17   18 ar
    31   17   45 1
    32   18   19 ar
    33   18   46 1
    34   19   20 ar
    35   19   47 1
    36   20   21 ar
    37   20   48 1
    38   21   49 1
    39   22   23 1
    40   22   50 1
    41   23   24 2
    42   23   25 2
    43   23   26 1
    44   26   35 ar
    45   26   27 ar
    46   27   28 ar
    47   27   51 1
    48   28   29 ar
    49   28   52 1
    50   29   34 ar
    51   29   30 ar
    52   30   31 ar
    53   30   53 1
    54   31   32 ar
    55   31   54 1
    56   32   33 ar
    57   32   55 1
    58   33   34 ar
    59   33   56 1
    60   34   35 ar
    61   35   57 1
    62   36   58 1
    63   36   59 1
    64   60   61 1
@<TRIPOS>MOLECULE
ZINC03834132
   60    63     0     0     0
SMALL
USER_CHARGES

@<TRIPOS>ATOM
      1 H1          4.2628    4.1052    5.2510 H         1 <0>         0.4451
      2 C1          2.7679    2.7634    5.5816 C.cat     1 <0>         0.6014
      3 C2          1.9212    1.7518    4.9087 C.ar      1 <0>        -0.1513
      4 C3          0.9644    1.0439    5.6359 C.ar      1 <0>        -0.0550
      5 C4          0.1785    0.1027    5.0034 C.ar      1 <0>        -0.1063
      6 C5          0.3385   -0.1400    3.6507 C.ar      1 <0>        -0.0459
      7 C6          1.2853    0.5592    2.9242 C.ar      1 <0>        -0.0731
      8 C7          2.0808    1.4994    3.5467 C.ar      1 <0>        -0.0598
      9 C8          1.4528    0.2891    1.4510 C.3       1 <0>        -0.0872
     10 C9          0.5303    1.2143    0.6548 C.3       1 <0>         0.1391
     11 H2          0.7318    2.2504    0.9272 H         1 <0>         0.1160
     12 C10         0.7795    1.0249   -0.8193 C.2       1 <0>         0.4969
     13 O1          0.1116    0.2335   -1.4504 O.2       1 <0>        -0.5044
     14 N1          1.7446    1.7351   -1.4364 N.am      1 <0>        -0.6113
     15 C11         2.6339    2.6262   -0.6744 C.3       1 <0>         0.0628
     16 C12         4.0854    2.2973   -1.0586 C.3       1 <0>         0.0465
     17 O2          4.2144    2.3379   -2.4818 O.3       1 <0>        -0.3723
     18 C13         3.4181    1.3700   -3.1696 C.3       1 <0>         0.0475
     19 C14         1.9361    1.6471   -2.8927 C.3       1 <0>         0.0770
     20 N2         -0.8660    0.8920    0.9594 N.pl3     1 <0>        -1.0966
     21 S1         -2.0018    2.0961    1.0087 S.o2      1 <0>         2.6896
     22 O3         -3.2456    1.4697    1.2916 O.2       1 <0>        -0.9452
     23 O4         -1.4652    3.1274    1.8256 O.2       1 <0>        -0.9538
     24 C15        -2.1301    2.7582   -0.6191 C.ar      1 <0>        -0.6818
     25 C16        -1.3171    3.8273   -0.9913 C.ar      1 <0>        -0.0528
     26 C17        -1.3872    4.3586   -2.2422 C.ar      1 <0>        -0.1112
     27 C18        -2.3003    3.8313   -3.1714 C.ar      1 <0>        -0.0083
     28 C19        -2.4060    4.3580   -4.4701 C.ar      1 <0>        -0.1223
     29 C20        -3.3014    3.8216   -5.3433 C.ar      1 <0>        -0.0863
     30 C21        -4.1183    2.7560   -4.9695 C.ar      1 <0>        -0.1176
     31 C22        -4.0440    2.2206   -3.7205 C.ar      1 <0>        -0.0885
     32 C23        -3.1309    2.7478   -2.7913 C.ar      1 <0>        -0.0769
     33 C24        -3.0256    2.2218   -1.4922 C.ar      1 <0>         0.0373
     34 N3          2.6113    3.0070    6.9286 N.pl3     1 <0>        -0.7786
     35 H3          0.8391    1.2321    6.6920 H         1 <0>         0.1399
     36 H4         -0.5627   -0.4461    5.5654 H         1 <0>         0.1524
     37 H5         -0.2787   -0.8780    3.1601 H         1 <0>         0.1470
     38 H6          2.8229    2.0415    2.9792 H         1 <0>         0.1354
     39 H7          1.1959   -0.7490    1.2404 H         1 <0>         0.1077
     40 H8          2.4879    0.4727    1.1633 H         1 <0>         0.1021
     41 H9          2.4121    3.6645   -0.9211 H         1 <0>         0.0875
     42 H10         2.4896    2.4631    0.3936 H         1 <0>         0.0870
     43 H11         4.3436    1.3017   -0.6979 H         1 <0>         0.0583
     44 H12         4.7552    3.0318   -0.6112 H         1 <0>         0.1082
     45 H13         3.6739    0.3710   -2.8165 H         1 <0>         0.0596
     46 H14         3.6073    1.4378   -4.2408 H         1 <0>         0.1124
     47 H15         1.3296    0.8353   -3.2943 H         1 <0>         0.1053
     48 H16         1.6447    2.5883   -3.3588 H         1 <0>         0.0812
     49 H17        -1.1258   -0.0271    1.1283 H         1 <0>         0.4267
     50 H18        -0.6179    4.2375   -0.2776 H         1 <0>         0.1307
     51 H19        -0.7483    5.1845   -2.5178 H         1 <0>         0.1349
     52 H20        -1.7794    5.1836   -4.7738 H         1 <0>         0.1336
     53 H21        -3.3805    4.2279   -6.3408 H         1 <0>         0.1316
     54 H22        -4.8211    2.3492   -5.6815 H         1 <0>         0.1322
     55 H23        -4.6835    1.3953   -3.4447 H         1 <0>         0.1351
     56 H24        -3.6522    1.3963   -1.1884 H         1 <0>         0.1452
     57 H25         1.9465    2.5158    7.4362 H         1 <0>         0.4435
     58 H26         3.1658    3.6696    7.3693 H         1 <0>         0.4320
     59 N4          3.6562    3.3993    4.8335 N.pl3     1 <0>        -0.7601
     60 H27         3.7344    3.1820    3.8330 H         1 <0>         0.4583
@<TRIPOS>BOND
     1    1   59 1
     2    2    3 1
     3    2   34 1
     4    2   59 2
     5    3    8 ar
     6    3    4 ar
     7    4    5 ar
     8    4   35 1
     9    5    6 ar
    10    5   36 1
    11    6    7 ar
    12    6   37 1
    13    7    8 ar
    14    7    9 1
    15    8   38 1
    16    9   10 1
    17    9   39 1
    18    9   40 1
    19   10   11 1
    20   10   12 1
    21   10   20 1
    22   12   13 2
    23   12   14 am
    24   14   19 1
    25   14   15 1
    26   15   16 1
    27   15   41 1
    28   15   42 1
    29   16   17 1
    30   16   43 1
    31   16   44 1
    32   17   18 1
    33   18   19 1
    34   18   45 1
    35   18   46 1
    36   19   47 1
    37   19   48 1
    38   20   21 1
    39   20   49 1
    40   21   22 2
    41   21   23 2
    42   21   24 1
    43   24   33 ar
    44   24   25 ar
    45   25   26 ar
    46   25   50 1
    47   26   27 ar
    48   26   51 1
    49   27   32 ar
    50   27   28 ar
    51   28   29 ar
    52   28   52 1
    53   29   30 ar
    54   29   53 1
    55   30   31 ar
    56   30   54 1
    57   31   32 ar
    58   31   55 1
    59   32   33 ar
    60   33   56 1
    61   34   57 1
    62   34   58 1
    63   59   60 1
@<TRIPOS>MOLECULE
ZINC03834135
   62    65     0     0     0
SMALL
USER_CHARGES

@<TRIPOS>ATOM
      1 H1          6.5095    6.1514    2.1422 H         1 <0>         0.4448
      2 C1          7.7996    4.8659    1.2323 C.cat     1 <0>         0.6015
      3 C2          7.8822    3.5308    0.5972 C.ar      1 <0>        -0.1516
      4 C3          9.0965    3.0721    0.0867 C.ar      1 <0>        -0.0555
      5 C4          9.1672    1.8273   -0.5039 C.ar      1 <0>        -0.1065
      6 C5          8.0365    1.0346   -0.5911 C.ar      1 <0>        -0.0462
      7 C6          6.8296    1.4837   -0.0864 C.ar      1 <0>        -0.0725
      8 C7          6.7451    2.7293    0.5021 C.ar      1 <0>        -0.0598
      9 C8          5.6029    0.6140   -0.1849 C.3       1 <0>        -0.0912
     10 C9          5.5030   -0.2698    1.0602 C.3       1 <0>         0.1392
     11 H2          5.5268    0.3558    1.9525 H         1 <0>         0.1177
     12 C10         4.2109   -1.0444    1.0240 C.2       1 <0>         0.4932
     13 O1          4.2289   -2.2468    0.8661 O.2       1 <0>        -0.5046
     14 N1          3.0352   -0.4011    1.1672 N.am      1 <0>        -0.6070
     15 C11         2.9998    1.0446    1.4265 C.3       1 <0>         0.0985
     16 C12         2.1549    1.3004    2.6785 C.3       1 <0>        -0.1385
     17 C13         0.7766    0.6601    2.4985 C.3       1 <0>        -0.1220
     18 C14         0.9338   -0.8519    2.3225 C.3       1 <0>        -0.1365
     19 C15         1.7648   -1.1322    1.0664 C.3       1 <0>         0.1108
     20 N2          6.6316   -1.2034    1.0881 N.pl3     1 <0>        -1.0954
     21 S1          7.3110   -1.6381    2.5344 S.o2      1 <0>         2.6910
     22 O2          8.3490   -2.5611    2.2344 O.2       1 <0>        -0.9474
     23 O3          7.5462   -0.4337    3.2509 O.2       1 <0>        -0.9564
     24 C16         6.0888   -2.5304    3.4370 C.ar      1 <0>        -0.6747
     25 C17         5.2255   -1.8427    4.2880 C.ar      1 <0>        -0.0517
     26 C18         4.2669   -2.5010    4.9951 C.ar      1 <0>        -0.1124
     27 C19         4.1508   -3.8965    4.8768 C.ar      1 <0>        -0.0076
     28 C20         3.1779   -4.6115    5.5962 C.ar      1 <0>        -0.1226
     29 C21         3.0948   -5.9626    5.4562 C.ar      1 <0>        -0.0877
     30 C22         3.9615   -6.6511    4.6094 C.ar      1 <0>        -0.1190
     31 C23         4.9161   -5.9921    3.8975 C.ar      1 <0>        -0.0881
     32 C24         5.0322   -4.5965    4.0156 C.ar      1 <0>        -0.0751
     33 C25         6.0056   -3.8816    3.2969 C.ar      1 <0>         0.0412
     34 N3          8.9237    5.6578    1.3201 N.pl3     1 <0>        -0.7790
     35 H3          9.9796    3.6903    0.1535 H         1 <0>         0.1396
     36 H4         10.1068    1.4710   -0.8995 H         1 <0>         0.1520
     37 H5          8.0966    0.0610   -1.0546 H         1 <0>         0.1467
     38 H6          5.8012    3.0807    0.8919 H         1 <0>         0.1354
     39 H7          5.6738   -0.0152   -1.0721 H         1 <0>         0.1055
     40 H8          4.7158    1.2434   -0.2557 H         1 <0>         0.1052
     41 H9          2.5547    1.5579    0.5742 H         1 <0>         0.0777
     42 H10         4.0132    1.4119    1.5883 H         1 <0>         0.0772
     43 H11         2.0406    2.3742    2.8272 H         1 <0>         0.0778
     44 H12         2.6486    0.8631    3.5463 H         1 <0>         0.0700
     45 H13         0.1649    0.8617    3.3779 H         1 <0>         0.0699
     46 H14         0.2934    1.0802    1.6163 H         1 <0>         0.0671
     47 H15         1.4390   -1.2691    3.1936 H         1 <0>         0.0681
     48 H16        -0.0498   -1.3102    2.2178 H         1 <0>         0.0789
     49 H17         1.2189   -0.7964    0.1848 H         1 <0>         0.0717
     50 H18         1.9634   -2.2013    0.9906 H         1 <0>         0.0951
     51 H19         6.9809   -1.5671    0.2595 H         1 <0>         0.4253
     52 H20         5.3156   -0.7708    4.3843 H         1 <0>         0.1291
     53 H21         3.6025   -1.9544    5.6479 H         1 <0>         0.1328
     54 H22         2.4995   -4.0912    6.2560 H         1 <0>         0.1322
     55 H23         2.3460   -6.5096    6.0099 H         1 <0>         0.1305
     56 H24         3.8747   -7.7235    4.5170 H         1 <0>         0.1313
     57 H25         5.5811   -6.5388    3.2454 H         1 <0>         0.1345
     58 H26         6.6843   -4.4017    2.6372 H         1 <0>         0.1439
     59 H27         9.7692    5.3407    0.9658 H         1 <0>         0.4435
     60 H28         8.8696    6.5324    1.7362 H         1 <0>         0.4318
     61 N4          6.6172    5.2403    1.6960 N.pl3     1 <0>        -0.7603
     62 H29         5.8088    4.6137    1.6066 H         1 <0>         0.4585
@<TRIPOS>BOND
     1    1   61 1
     2    2    3 1
     3    2   34 1
     4    2   61 2
     5    3    8 ar
     6    3    4 ar
     7    4    5 ar
     8    4   35 1
     9    5    6 ar
    10    5   36 1
    11    6    7 ar
    12    6   37 1
    13    7    8 ar
    14    7    9 1
    15    8   38 1
    16    9   10 1
    17    9   39 1
    18    9   40 1
    19   10   11 1
    20   10   12 1
    21   10   20 1
    22   12   13 2
    23   12   14 am
    24   14   19 1
    25   14   15 1
    26   15   16 1
    27   15   41 1
    28   15   42 1
    29   16   17 1
    30   16   43 1
    31   16   44 1
    32   17   18 1
    33   17   45 1
    34   17   46 1
    35   18   19 1
    36   18   47 1
    37   18   48 1
    38   19   49 1
    39   19   50 1
    40   20   21 1
    41   20   51 1
    42   21   22 2
    43   21   23 2
    44   21   24 1
    45   24   33 ar
    46   24   25 ar
    47   25   26 ar
    48   25   52 1
    49   26   27 ar
    50   26   53 1
    51   27   32 ar
    52   27   28 ar
    53   28   29 ar
    54   28   54 1
    55   29   30 ar
    56   29   55 1
    57   30   31 ar
    58   30   56 1
    59   31   32 ar
    60   31   57 1
    61   32   33 ar
    62   33   58 1
    63   34   59 1
    64   34   60 1
    65   61   62 1
@<TRIPOS>MOLECULE
ZINC03834136
   72    74     0     0     0
SMALL
USER_CHARGES

@<TRIPOS>ATOM
      1 H1         -3.0588    2.4660   -6.1220 H         1 <0>         0.4433
      2 C1         -2.9723    0.4840   -6.5789 C.cat     1 <0>         0.5962
      3 C2         -2.0664   -0.6874   -6.5800 C.ar      1 <0>        -0.1368
      4 C3         -2.5246   -1.9265   -7.0273 C.ar      1 <0>        -0.0411
      5 C4         -1.6756   -3.0141   -7.0264 C.ar      1 <0>        -0.0963
      6 C5         -0.3705   -2.8761   -6.5884 C.ar      1 <0>        -0.0362
      7 C6          0.0881   -1.6513   -6.1383 C.ar      1 <0>        -0.0630
      8 C7         -0.7516   -0.5560   -6.1344 C.ar      1 <0>        -0.0428
      9 C8          1.5092   -1.5109   -5.6572 C.3       1 <0>        -0.1059
     10 C9          1.5688   -1.7913   -4.1542 C.3       1 <0>         0.1419
     11 H2          1.2532   -2.8170   -3.9632 H         1 <0>         0.1116
     12 C10         2.9808   -1.6005   -3.6631 C.2       1 <0>         0.5138
     13 O1          3.2640   -0.6296   -2.9939 O.2       1 <0>        -0.5214
     14 N1          3.9287   -2.5088   -3.9677 N.am      1 <0>        -0.6039
     15 C11         3.6303   -3.6278   -4.8720 C.3       1 <0>         0.0961
     16 C12         4.0053   -4.9384   -4.1826 C.3       1 <0>        -0.1347
     17 C13         5.4640   -4.8719   -3.7244 C.3       1 <0>        -0.0929
     18 C14         5.6333   -3.7299   -2.7198 C.3       1 <0>        -0.1322
     19 C15         5.2784   -2.4025   -3.3970 C.3       1 <0>         0.1100
     20 C16         5.8509   -6.1955   -3.0615 C.3       1 <0>        -0.1498
     21 N2          0.6775   -0.8668   -3.4493 N.pl3     1 <0>        -1.1021
     22 S1         -0.8672   -1.3305   -3.0736 S.o2      1 <0>         2.6891
     23 O2         -1.4282   -1.8737   -4.2608 O.2       1 <0>        -0.9458
     24 O3         -1.4606   -0.2416   -2.3796 O.2       1 <0>        -0.9555
     25 C17        -0.7471   -2.6572   -1.9205 C.ar      1 <0>        -0.7279
     26 C18        -0.5460   -2.3895   -0.5787 C.ar      1 <0>         0.0682
     27 C19        -0.4575   -3.4276    0.3281 C.ar      1 <0>        -0.2372
     28 C20        -0.5650   -4.7401   -0.1090 C.ar      1 <0>         0.1997
     29 C21        -0.7611   -5.0062   -1.4561 C.ar      1 <0>        -0.1477
     30 C22        -0.8488   -3.9642   -2.3592 C.ar      1 <0>         0.0535
     31 C23        -1.0623   -4.2525   -3.8229 C.3       1 <0>        -0.1568
     32 C24        -0.8787   -6.4305   -1.9342 C.3       1 <0>        -0.1086
     33 O4         -0.4787   -5.7632    0.7814 O.3       1 <0>        -0.3040
     34 C25        -0.2768   -5.4148    2.1525 C.3       1 <0>         0.0202
     35 C26        -0.4293   -0.9638   -0.1047 C.3       1 <0>        -0.1905
     36 N3         -4.2709    0.3510   -7.0198 N.pl3     1 <0>        -0.7824
     37 H3         -3.5417   -2.0343   -7.3739 H         1 <0>         0.1297
     38 H4         -2.0295   -3.9742   -7.3722 H         1 <0>         0.1421
     39 H5          0.2916   -3.7293   -6.5937 H         1 <0>         0.1377
     40 H6         -0.3912    0.4008   -5.7867 H         1 <0>         0.1229
     41 H7          1.8604   -0.4976   -5.8519 H         1 <0>         0.0986
     42 H8          2.1436   -2.2230   -6.1850 H         1 <0>         0.1063
     43 H9          2.5663   -3.6325   -5.1089 H         1 <0>         0.0832
     44 H10         4.2103   -3.5214   -5.7888 H         1 <0>         0.0816
     45 H11         3.8805   -5.7665   -4.8803 H         1 <0>         0.0826
     46 H12         3.3589   -5.0897   -3.3181 H         1 <0>         0.0688
     47 H13         6.1075   -4.6957   -4.5864 H         1 <0>         0.0757
     48 H14         6.6673   -3.6980   -2.3762 H         1 <0>         0.0810
     49 H15         4.9716   -3.8927   -1.8690 H         1 <0>         0.0668
     50 H16         5.9955   -2.1941   -4.1910 H         1 <0>         0.0746
     51 H17         5.3015   -1.5990   -2.6609 H         1 <0>         0.0952
     52 H18         5.2078   -6.3716   -2.1993 H         1 <0>         0.0544
     53 H19         5.7303   -7.0090   -3.7770 H         1 <0>         0.0583
     54 H20         6.8901   -6.1488   -2.7362 H         1 <0>         0.0588
     55 H21         0.9922    0.0170   -3.2026 H         1 <0>         0.4285
     56 H22        -0.3045   -3.2179    1.3765 H         1 <0>         0.1392
     57 H23        -2.1311   -4.2854   -4.0347 H         1 <0>         0.0947
     58 H24        -0.5978   -3.4674   -4.4194 H         1 <0>         0.1015
     59 H25        -0.6127   -5.2133   -4.0733 H         1 <0>         0.0774
     60 H26        -1.9244   -6.7371   -1.9086 H         1 <0>         0.0722
     61 H27        -0.5036   -6.5033   -2.9551 H         1 <0>         0.0720
     62 H28        -0.2932   -7.0813   -1.2847 H         1 <0>         0.0729
     63 H29        -1.1062   -4.7966    2.4962 H         1 <0>         0.0621
     64 H30        -0.2263   -6.3221    2.7543 H         1 <0>         0.1099
     65 H31         0.6559   -4.8598    2.2528 H         1 <0>         0.0615
     66 H32         0.5874   -0.6076   -0.2710 H         1 <0>         0.0848
     67 H33        -1.1288   -0.3382   -0.6592 H         1 <0>         0.1308
     68 H34        -0.6621   -0.9143    0.9589 H         1 <0>         0.0813
     69 H35        -4.5917   -0.5099   -7.3309 H         1 <0>         0.4426
     70 H36        -4.8643    1.1183   -7.0190 H         1 <0>         0.4296
     71 N4         -2.4740    1.6304   -6.1422 N.pl3     1 <0>        -0.7649
     72 H37        -1.4990    1.6783   -5.8239 H         1 <0>         0.4572
@<TRIPOS>BOND
     1    1   71 1
     2    2    3 1
     3    2   36 1
     4    2   71 2
     5    3    8 ar
     6    3    4 ar
     7    4    5 ar
     8    4   37 1
     9    5    6 ar
    10    5   38 1
    11    6    7 ar
    12    6   39 1
    13    7    8 ar
    14    7    9 1
    15    8   40 1
    16    9   10 1
    17    9   41 1
    18    9   42 1
    19   10   11 1
    20   10   12 1
    21   10   21 1
    22   12   13 2
    23   12   14 am
    24   14   19 1
    25   14   15 1
    26   15   16 1
    27   15   43 1
    28   15   44 1
    29   16   17 1
    30   16   45 1
    31   16   46 1
    32   17   18 1
    33   17   20 1
    34   17   47 1
    35   18   19 1
    36   18   48 1
    37   18   49 1
    38   19   50 1
    39   19   51 1
    40   20   52 1
    41   20   53 1
    42   20   54 1
    43   21   22 1
    44   21   55 1
    45   22   23 2
    46   22   24 2
    47   22   25 1
    48   25   30 ar
    49   25   26 ar
    50   26   27 ar
    51   26   35 1
    52   27   28 ar
    53   27   56 1
    54   28   29 ar
    55   28   33 1
    56   29   30 ar
    57   29   32 1
    58   30   31 1
    59   31   57 1
    60   31   58 1
    61   31   59 1
    62   32   60 1
    63   32   61 1
    64   32   62 1
    65   33   34 1
    66   34   63 1
    67   34   64 1
    68   34   65 1
    69   35   66 1
    70   35   67 1
    71   35   68 1
    72   36   69 1
    73   36   70 1
    74   71   72 1
@<TRIPOS>MOLECULE
ZINC03834141
   71    73     0     0     0
SMALL
USER_CHARGES

@<TRIPOS>ATOM
      1 H1          3.9994   -7.9140    6.0003 H         1 <0>         0.4452
      2 C1          5.0276   -6.4330    5.0549 C.cat     1 <0>         0.5984
      3 C2          4.8579   -5.2663    4.1589 C.ar      1 <0>        -0.1497
      4 C3          5.9669   -4.5152    3.7695 C.ar      1 <0>        -0.0520
      5 C4          5.8025   -3.4296    2.9342 C.ar      1 <0>        -0.1009
      6 C5          4.5414   -3.0886    2.4783 C.ar      1 <0>        -0.0428
      7 C6          3.4371   -3.8260    2.8655 C.ar      1 <0>        -0.0689
      8 C7          3.5889   -4.9142    3.7006 C.ar      1 <0>        -0.0606
      9 C8          2.0663   -3.4443    2.3694 C.3       1 <0>        -0.0924
     10 C9          1.4255   -2.4590    3.3489 C.3       1 <0>         0.1422
     11 H2          2.0951   -1.6129    3.5034 H         1 <0>         0.1172
     12 C10         0.1176   -1.9680    2.7840 C.2       1 <0>         0.5051
     13 O1         -0.9302   -2.3947    3.2212 O.2       1 <0>        -0.5121
     14 N1          0.1121   -1.0545    1.7930 N.am      1 <0>        -0.6093
     15 C11        -1.1495   -0.6396    1.1644 C.3       1 <0>         0.1123
     16 C12        -1.2514    0.8877    1.2245 C.3       1 <0>        -0.1216
     17 C13        -0.0014    1.5037    0.5918 C.3       1 <0>        -0.0787
     18 C14         1.2373    1.0708    1.3795 C.3       1 <0>        -0.1307
     19 C15         1.3674   -0.4545    1.3211 C.3       1 <0>         0.1005
     20 C16        -0.1136    3.0063    0.6186 C.2       1 <0>         0.4611
     21 O2         -1.0925    3.5306    1.0947 O.2       1 <0>        -0.4989
     22 O3          0.8739    3.7622    0.1135 O.3       1 <0>        -0.3587
     23 C17         0.6982    5.2022    0.1730 C.3       1 <0>         0.0341
     24 N2          1.1836   -3.1302    4.6285 N.pl3     1 <0>        -1.1011
     25 S1          1.8735   -2.5433    6.0147 S.o2      1 <0>         2.6862
     26 O4          1.4413   -3.3880    7.0726 O.2       1 <0>        -0.9539
     27 O5          3.2479   -2.3280    5.7248 O.2       1 <0>        -0.9478
     28 C18         1.1680   -0.9572    6.3167 C.ar      1 <0>        -0.7008
     29 C19         1.9406    0.1808    6.1776 C.ar      1 <0>         0.0240
     30 C20         1.3860    1.4253    6.4101 C.ar      1 <0>        -0.1539
     31 C21         0.0613    1.5316    6.7907 C.ar      1 <0>        -0.0077
     32 C22        -0.7098    0.3934    6.9349 C.ar      1 <0>        -0.1509
     33 C23        -0.1564   -0.8510    6.6981 C.ar      1 <0>         0.0383
     34 C24        -0.9970   -2.0918    6.8553 C.3       1 <0>        -0.1384
     35 C25        -0.5424    2.8882    7.0480 C.3       1 <0>        -0.1298
     36 C26         3.3862    0.0646    5.7678 C.3       1 <0>        -0.1529
     37 N3          6.2828   -6.7784    5.5060 N.pl3     1 <0>        -0.7795
     38 H3          6.9523   -4.7833    4.1209 H         1 <0>         0.1372
     39 H4          6.6604   -2.8470    2.6323 H         1 <0>         0.1495
     40 H5          4.4182   -2.2406    1.8210 H         1 <0>         0.1452
     41 H6          2.7264   -5.4918    3.9991 H         1 <0>         0.1309
     42 H7          1.4456   -4.3370    2.2938 H         1 <0>         0.1007
     43 H8          2.1521   -2.9772    1.3882 H         1 <0>         0.1064
     44 H9         -1.9882   -1.0832    1.7008 H         1 <0>         0.1031
     45 H10        -1.1668   -0.9663    0.1246 H         1 <0>         0.0787
     46 H11        -2.1352    1.2153    0.6772 H         1 <0>         0.0911
     47 H12        -1.3277    1.2065    2.2641 H         1 <0>         0.0784
     48 H13         0.0878    1.1647   -0.4403 H         1 <0>         0.1154
     49 H14         1.1375    1.3880    2.4176 H         1 <0>         0.0762
     50 H15         2.1249    1.5287    0.9430 H         1 <0>         0.0976
     51 H16         2.1893   -0.7758    1.9609 H         1 <0>         0.0875
     52 H17         1.5578   -0.7659    0.2940 H         1 <0>         0.0870
     53 H18         1.5661    5.6927   -0.2676 H         1 <0>         0.1052
     54 H19        -0.1976    5.4821   -0.3813 H         1 <0>         0.0655
     55 H20         0.5940    5.5129    1.2126 H         1 <0>         0.0639
     56 H21         0.6192   -3.9184    4.6637 H         1 <0>         0.4243
     57 H22         1.9883    2.3147    6.2973 H         1 <0>         0.1326
     58 H23        -1.7448    0.4764    7.2322 H         1 <0>         0.1336
     59 H24        -0.9206   -2.4550    7.8801 H         1 <0>         0.0954
     60 H25        -2.0372   -1.8570    6.6296 H         1 <0>         0.0852
     61 H26        -0.6412   -2.8609    6.1698 H         1 <0>         0.0647
     62 H27        -0.4097    3.1519    8.0972 H         1 <0>         0.0838
     63 H28        -0.0479    3.6306    6.4214 H         1 <0>         0.0745
     64 H29        -1.6060    2.8634    6.8112 H         1 <0>         0.0757
     65 H30         3.4466   -0.1020    4.6923 H         1 <0>         0.0776
     66 H31         3.9113    0.9851    6.0229 H         1 <0>         0.0713
     67 H32         3.8461   -0.7732    6.2917 H         1 <0>         0.1189
     68 H33         7.0554   -6.2573    5.2367 H         1 <0>         0.4432
     69 H34         6.3940   -7.5426    6.0929 H         1 <0>         0.4315
     70 N4          3.9342   -7.1027    5.3854 N.pl3     1 <0>        -0.7608
     71 H35         3.0208   -6.8053    5.0229 H         1 <0>         0.4586
@<TRIPOS>BOND
     1    1   70 1
     2    2    3 1
     3    2   37 1
     4    2   70 2
     5    3    8 ar
     6    3    4 ar
     7    4    5 ar
     8    4   38 1
     9    5    6 ar
    10    5   39 1
    11    6    7 ar
    12    6   40 1
    13    7    8 ar
    14    7    9 1
    15    8   41 1
    16    9   10 1
    17    9   42 1
    18    9   43 1
    19   10   11 1
    20   10   12 1
    21   10   24 1
    22   12   13 2
    23   12   14 am
    24   14   19 1
    25   14   15 1
    26   15   16 1
    27   15   44 1
    28   15   45 1
    29   16   17 1
    30   16   46 1
    31   16   47 1
    32   17   18 1
    33   17   20 1
    34   17   48 1
    35   18   19 1
    36   18   49 1
    37   18   50 1
    38   19   51 1
    39   19   52 1
    40   20   21 2
    41   20   22 1
    42   22   23 1
    43   23   53 1
    44   23   54 1
    45   23   55 1
    46   24   25 1
    47   24   56 1
    48   25   26 2
    49   25   27 2
    50   25   28 1
    51   28   33 ar
    52   28   29 ar
    53   29   30 ar
    54   29   36 1
    55   30   31 ar
    56   30   57 1
    57   31   32 ar
    58   31   35 1
    59   32   33 ar
    60   32   58 1
    61   33   34 1
    62   34   59 1
    63   34   60 1
    64   34   61 1
    65   35   62 1
    66   35   63 1
    67   35   64 1
    68   36   65 1
    69   36   66 1
    70   36   67 1
    71   37   68 1
    72   37   69 1
    73   70   71 1
@<TRIPOS>MOLECULE
ZINC03834143
   62    65     0     0     0
SMALL
USER_CHARGES

@<TRIPOS>ATOM
      1 H1         -3.1921   -4.1871   -0.8468 H         1 <0>         0.4458
      2 C1         -1.3805   -4.8510   -0.1972 C.cat     1 <0>         0.5989
      3 C2          0.0752   -4.6032   -0.3083 C.ar      1 <0>        -0.1536
      4 C3          0.9770   -5.4023    0.3943 C.ar      1 <0>        -0.0559
      5 C4          2.3322   -5.1669    0.2864 C.ar      1 <0>        -0.1037
      6 C5          2.7975   -4.1441   -0.5209 C.ar      1 <0>        -0.0460
      7 C6          1.9078   -3.3447   -1.2155 C.ar      1 <0>        -0.0717
      8 C7          0.5499   -3.5703   -1.1158 C.ar      1 <0>        -0.0610
      9 C8          2.4226   -2.2288   -2.0879 C.3       1 <0>        -0.0886
     10 C9          2.5282   -0.9443   -1.2635 C.3       1 <0>         0.1375
     11 H2          3.1579   -1.1227   -0.3919 H         1 <0>         0.1211
     12 C10         3.1363    0.1459   -2.1078 C.2       1 <0>         0.4925
     13 O1          2.4293    1.0058   -2.5892 O.2       1 <0>        -0.5035
     14 N1          4.4658    0.1652   -2.3281 N.am      1 <0>        -0.6061
     15 C11         5.0887    1.2829   -3.0503 C.3       1 <0>         0.1124
     16 C12         6.2289    1.8465   -2.1888 C.3       1 <0>        -0.1355
     17 C13         7.1948    0.7155   -1.8280 C.3       1 <0>        -0.1221
     18 C14         6.4559   -0.3480   -1.0125 C.3       1 <0>        -0.1388
     19 C15         5.3189   -0.9337   -1.8558 C.3       1 <0>         0.0975
     20 N2          1.1919   -0.5342   -0.8248 N.pl3     1 <0>        -1.0968
     21 S1          0.9859    0.1590    0.6649 S.o2      1 <0>         2.6913
     22 O2          1.6876   -0.6568    1.5930 O.2       1 <0>        -0.9539
     23 O3         -0.4010    0.4398    0.7939 O.2       1 <0>        -0.9501
     24 C16         1.8138    1.7141    0.6348 C.ar      1 <0>        -0.6797
     25 C17         2.8746    1.9405    1.4575 C.ar      1 <0>         0.0102
     26 C18         3.5460    3.1613    1.4428 C.ar      1 <0>        -0.1540
     27 C19         3.1527    4.1676    0.6148 C.ar      1 <0>        -0.0306
     28 C20         2.0579    3.9732   -0.2441 C.ar      1 <0>        -0.0728
     29 C21         1.3791    2.7290   -0.2341 C.ar      1 <0>         0.0460
     30 C22         0.2836    2.5350   -1.0929 C.ar      1 <0>        -0.1202
     31 C23        -0.1098    3.5412   -1.9204 C.ar      1 <0>        -0.0791
     32 C24         0.5575    4.7649   -1.9299 C.ar      1 <0>        -0.1180
     33 C25         1.6221    4.9889   -1.1124 C.ar      1 <0>        -0.0917
     34 N3         -1.8466   -5.8723    0.6016 N.pl3     1 <0>        -0.7788
     35 H3          0.6153   -6.2040    1.0211 H         1 <0>         0.1396
     36 H4          3.0315   -5.7848    0.8303 H         1 <0>         0.1519
     37 H5          3.8594   -3.9664   -0.6056 H         1 <0>         0.1478
     38 H6         -0.1436   -2.9481   -1.6619 H         1 <0>         0.1337
     39 H7          1.7357   -2.0714   -2.9195 H         1 <0>         0.1015
     40 H8          3.4064   -2.4944   -2.4746 H         1 <0>         0.1087
     41 H9          5.4866    0.9273   -4.0008 H         1 <0>         0.0712
     42 H10         4.3464    2.0604   -3.2307 H         1 <0>         0.0934
     43 H11         5.8189    2.2797   -1.2764 H         1 <0>         0.0666
     44 H12         6.7614    2.6147   -2.7495 H         1 <0>         0.0780
     45 H13         8.0196    1.1165   -1.2390 H         1 <0>         0.0699
     46 H14         7.5853    0.2665   -2.7412 H         1 <0>         0.0673
     47 H15         6.0436    0.1058   -0.1113 H         1 <0>         0.0690
     48 H16         7.1498   -1.1418   -0.7359 H         1 <0>         0.0807
     49 H17         4.7286   -1.6192   -1.2478 H         1 <0>         0.0807
     50 H18         5.7353   -1.4665   -2.7108 H         1 <0>         0.0792
     51 H19         0.4278   -0.6688   -1.4070 H         1 <0>         0.4192
     52 H20         3.2040    1.1603    2.1277 H         1 <0>         0.1415
     53 H21         4.3878    3.3133    2.1021 H         1 <0>         0.1361
     54 H22         3.6796    5.1103    0.6178 H         1 <0>         0.1373
     55 H23        -0.2435    1.5924   -1.0960 H         1 <0>         0.1221
     56 H24        -0.9519    3.3895   -2.5794 H         1 <0>         0.1276
     57 H25         0.2249    5.5469   -2.5965 H         1 <0>         0.1290
     58 H26         2.1292    5.9423   -1.1304 H         1 <0>         0.1319
     59 H27        -1.2212   -6.4290    1.0912 H         1 <0>         0.4433
     60 H28        -2.8001   -6.0346    0.6743 H         1 <0>         0.4321
     61 N4         -2.1813   -4.0564   -0.8904 N.pl3     1 <0>        -0.7593
     62 H29        -1.7850   -3.3087   -1.4718 H         1 <0>         0.4590
@<TRIPOS>BOND
     1    1   61 1
     2    2    3 1
     3    2   34 1
     4    2   61 2
     5    3    8 ar
     6    3    4 ar
     7    4    5 ar
     8    4   35 1
     9    5    6 ar
    10    5   36 1
    11    6    7 ar
    12    6   37 1
    13    7    8 ar
    14    7    9 1
    15    8   38 1
    16    9   10 1
    17    9   39 1
    18    9   40 1
    19   10   11 1
    20   10   12 1
    21   10   20 1
    22   12   13 2
    23   12   14 am
    24   14   19 1
    25   14   15 1
    26   15   16 1
    27   15   41 1
    28   15   42 1
    29   16   17 1
    30   16   43 1
    31   16   44 1
    32   17   18 1
    33   17   45 1
    34   17   46 1
    35   18   19 1
    36   18   47 1
    37   18   48 1
    38   19   49 1
    39   19   50 1
    40   20   21 1
    41   20   51 1
    42   21   22 2
    43   21   23 2
    44   21   24 1
    45   24   29 ar
    46   24   25 ar
    47   25   26 ar
    48   25   52 1
    49   26   27 ar
    50   26   53 1
    51   27   28 ar
    52   27   54 1
    53   28   33 ar
    54   28   29 ar
    55   29   30 ar
    56   30   31 ar
    57   30   55 1
    58   31   32 ar
    59   31   56 1
    60   32   33 ar
    61   32   57 1
    62   33   58 1
    63   34   59 1
    64   34   60 1
    65   61   62 1
@<TRIPOS>MOLECULE
ZINC03834144
   64    67     0     0     0
SMALL
USER_CHARGES

@<TRIPOS>ATOM
      1 H1         -3.7645   -8.1799   -3.1182 H         1 <0>         0.4426
      2 C1         -2.1625   -9.0265   -2.1902 C.cat     1 <0>         0.6029
      3 C2         -1.0525   -8.7356   -1.2541 C.ar      1 <0>        -0.1550
      4 C3         -0.1487   -9.7394   -0.9063 C.ar      1 <0>        -0.0608
      5 C4          0.8835   -9.4624   -0.0337 C.ar      1 <0>        -0.1088
      6 C5          1.0232   -8.1917    0.4958 C.ar      1 <0>        -0.0451
      7 C6          0.1303   -7.1920    0.1543 C.ar      1 <0>        -0.0621
      8 C7         -0.9098   -7.4585   -0.7128 C.ar      1 <0>        -0.0594
      9 C8          0.2899   -5.8106    0.7351 C.3       1 <0>        -0.1007
     10 C9          1.1842   -4.9725   -0.1806 C.3       1 <0>         0.1428
     11 H2          0.7705   -4.9697   -1.1890 H         1 <0>         0.1095
     12 C10         1.2513   -3.5594    0.3388 C.2       1 <0>         0.4734
     13 O1          2.2943   -3.1239    0.7785 O.2       1 <0>        -0.4330
     14 N1          0.1522   -2.7797    0.3147 N.am      1 <0>        -0.5961
     15 C11        -1.1484   -3.3316   -0.0886 C.3       1 <0>         0.0985
     16 C12        -1.7246   -2.4650   -1.2128 C.3       1 <0>        -0.1339
     17 C13        -1.7762   -1.0066   -0.7518 C.3       1 <0>        -0.1190
     18 C14        -0.3596   -0.5171   -0.4422 C.3       1 <0>        -0.1165
     19 C15         0.2320   -1.3617    0.6907 C.3       1 <0>         0.1005
     20 H3         -0.3338   -1.1919    1.6067 H         1 <0>         0.0629
     21 C16         1.6728   -0.9770    0.9081 C.2       1 <0>         0.4829
     22 O2          2.4655   -1.0661    0.0007 O.co2     1 <0>        -0.5993
     23 N2          2.5314   -5.5475   -0.2071 N.pl3     1 <0>        -1.0949
     24 S1          3.4256   -5.4981   -1.6001 S.o2      1 <0>         2.6942
     25 O3          4.6765   -6.1026   -1.3014 O.2       1 <0>        -0.9607
     26 O4          2.5814   -5.9687   -2.6416 O.2       1 <0>        -0.9689
     27 C17         3.7558   -3.8024   -1.9471 C.ar      1 <0>        -0.6655
     28 C18         2.8671   -3.0782   -2.7397 C.ar      1 <0>        -0.0475
     29 C19         3.0898   -1.7657   -3.0222 C.ar      1 <0>        -0.0900
     30 C20         4.2381   -1.1311   -2.5184 C.ar      1 <0>         0.0252
     31 C21         4.5052    0.2209   -2.7944 C.ar      1 <0>        -0.1152
     32 C22         5.6271    0.8023   -2.2891 C.ar      1 <0>        -0.0954
     33 C23         6.5186    0.0767   -1.5009 C.ar      1 <0>        -0.1261
     34 C24         6.2928   -1.2341   -1.2133 C.ar      1 <0>        -0.0846
     35 C25         5.1446   -1.8689   -1.7170 C.ar      1 <0>        -0.0548
     36 C26         4.8778   -3.2210   -1.4417 C.ar      1 <0>         0.0461
     37 N3         -2.3040  -10.2907   -2.7194 N.pl3     1 <0>        -0.7832
     38 H4         -0.2567  -10.7316   -1.3190 H         1 <0>         0.1365
     39 H5          1.5839  -10.2387    0.2364 H         1 <0>         0.1495
     40 H6          1.8328   -7.9795    1.1782 H         1 <0>         0.1471
     41 H7         -1.6090   -6.6783   -0.9753 H         1 <0>         0.1358
     42 H8          0.7462   -5.8821    1.7224 H         1 <0>         0.1043
     43 H9         -0.6882   -5.3371    0.8203 H         1 <0>         0.1091
     44 H10        -1.8283   -3.3244    0.7633 H         1 <0>         0.0669
     45 H11        -1.0195   -4.3537   -0.4446 H         1 <0>         0.0710
     46 H12        -2.7311   -2.8057   -1.4553 H         1 <0>         0.0661
     47 H13        -1.0902   -2.5452   -2.0955 H         1 <0>         0.0665
     48 H14        -2.3907   -0.9309    0.1454 H         1 <0>         0.0606
     49 H15        -2.2085   -0.3916   -1.5410 H         1 <0>         0.0606
     50 H16        -0.3947    0.5285   -0.1365 H         1 <0>         0.0670
     51 H17         0.2620   -0.6158   -1.3322 H         1 <0>         0.0703
     52 H18         2.8996   -5.9574    0.5913 H         1 <0>         0.4209
     53 H19         1.9863   -3.5647   -3.1320 H         1 <0>         0.1180
     54 H20         2.3904   -1.2160   -3.6348 H         1 <0>         0.1212
     55 H21         3.8232    0.7955   -3.4036 H         1 <0>         0.1233
     56 H22         5.8297    1.8415   -2.5023 H         1 <0>         0.1209
     57 H23         7.4020    0.5619   -1.1129 H         1 <0>         0.1218
     58 H24         6.9924   -1.7838   -0.6009 H         1 <0>         0.1256
     59 H25         5.5594   -3.7955   -0.8321 H         1 <0>         0.1332
     60 H26        -1.6765  -10.9902   -2.4789 H         1 <0>         0.4423
     61 H27        -3.0311  -10.4813   -3.3326 H         1 <0>         0.4294
     62 N4         -2.9845   -8.0293   -2.4783 N.pl3     1 <0>        -0.7599
     63 H28        -2.8368   -7.1044   -2.0576 H         1 <0>         0.4608
     64 O5          2.0754   -0.5353    2.1101 O.co2     1 <0>        -0.7741
@<TRIPOS>BOND
     1    1   62 1
     2    2    3 1
     3    2   37 1
     4    2   62 2
     5    3    8 ar
     6    3    4 ar
     7    4    5 ar
     8    4   38 1
     9    5    6 ar
    10    5   39 1
    11    6    7 ar
    12    6   40 1
    13    7    8 ar
    14    7    9 1
    15    8   41 1
    16    9   10 1
    17    9   42 1
    18    9   43 1
    19   10   11 1
    20   10   12 1
    21   10   23 1
    22   12   13 2
    23   12   14 am
    24   14   19 1
    25   14   15 1
    26   15   16 1
    27   15   44 1
    28   15   45 1
    29   16   17 1
    30   16   46 1
    31   16   47 1
    32   17   18 1
    33   17   48 1
    34   17   49 1
    35   18   19 1
    36   18   50 1
    37   18   51 1
    38   19   20 1
    39   19   21 1
    40   21   22 2
    41   21   64 1
    42   23   24 1
    43   23   52 1
    44   24   25 2
    45   24   26 2
    46   24   27 1
    47   27   36 ar
    48   27   28 ar
    49   28   29 ar
    50   28   53 1
    51   29   30 ar
    52   29   54 1
    53   30   35 ar
    54   30   31 ar
    55   31   32 ar
    56   31   55 1
    57   32   33 ar
    58   32   56 1
    59   33   34 ar
    60   33   57 1
    61   34   35 ar
    62   34   58 1
    63   35   36 ar
    64   36   59 1
    65   37   60 1
    66   37   61 1
    67   62   63 1
@<TRIPOS>MOLECULE
ZINC03834149
   64    67     0     0     0
SMALL
USER_CHARGES

@<TRIPOS>ATOM
      1 H1          2.5951   -7.9911    4.9813 H         1 <0>         0.4414
      2 C1          3.8927   -6.5334    5.5610 C.cat     1 <0>         0.5978
      3 C2          4.2771   -5.1265    5.3042 C.ar      1 <0>        -0.1416
      4 C3          5.3181   -4.5423    6.0257 C.ar      1 <0>        -0.0447
      5 C4          5.6718   -3.2313    5.7817 C.ar      1 <0>        -0.0980
      6 C5          4.9999   -2.4980    4.8197 C.ar      1 <0>        -0.0327
      7 C6          3.9631   -3.0701    4.1051 C.ar      1 <0>        -0.0571
      8 C7          3.6000   -4.3807    4.3401 C.ar      1 <0>        -0.0409
      9 C8          3.2324   -2.2626    3.0634 C.3       1 <0>        -0.1050
     10 C9          2.0444   -1.5492    3.7119 C.3       1 <0>         0.1421
     11 H2          2.4058   -0.8698    4.4838 H         1 <0>         0.1128
     12 C10         1.2956   -0.7664    2.6641 C.2       1 <0>         0.5098
     13 O1          0.1789   -1.1068    2.3356 O.2       1 <0>        -0.5327
     14 N1          1.8670    0.3120    2.0923 N.am      1 <0>        -0.5951
     15 C11         1.1785    1.0440    1.0204 C.3       1 <0>         0.1095
     16 C12         1.1046    2.5253    1.4037 C.3       1 <0>        -0.1113
     17 C13         2.5129    3.0393    1.7116 C.3       1 <0>        -0.1293
     18 C14         3.0937    2.2625    2.8953 C.3       1 <0>        -0.1124
     19 C15         3.1901    0.7781    2.5290 C.3       1 <0>         0.0983
     20 C16         2.4482    4.5050    2.0561 C.2       1 <0>         0.4629
     21 O2          1.3853    5.0794    2.0554 O.co2     1 <0>        -0.6355
     22 N2          1.1489   -2.5403    4.3137 N.pl3     1 <0>        -1.0987
     23 S1          1.2917   -2.9178    5.9198 S.o2      1 <0>         2.6844
     24 O3          0.2804   -3.8750    6.2034 O.2       1 <0>        -0.9617
     25 O4          2.6696   -3.1724    6.1563 O.2       1 <0>        -0.9459
     26 C17         0.8834   -1.4680    6.8341 C.ar      1 <0>        -0.6812
     27 C18         1.8888   -0.5639    7.1723 C.ar      1 <0>        -0.0559
     28 C19         1.6064    0.5682    7.8729 C.ar      1 <0>        -0.1061
     29 C20         0.2843    0.8265    8.2732 C.ar      1 <0>        -0.0093
     30 C21        -0.0446    1.9814    9.0036 C.ar      1 <0>        -0.1169
     31 C22        -1.3359    2.1989    9.3739 C.ar      1 <0>        -0.0886
     32 C23        -2.3405    1.2921    9.0404 C.ar      1 <0>        -0.1158
     33 C24        -2.0592    0.1630    8.3345 C.ar      1 <0>        -0.0936
     34 C25        -0.7371   -0.0954    7.9340 C.ar      1 <0>        -0.0785
     35 C26        -0.4080   -1.2505    7.2043 C.ar      1 <0>         0.0237
     36 N3          4.5635   -7.2678    6.5143 N.pl3     1 <0>        -0.7851
     37 H3          5.8463   -5.1151    6.7735 H         1 <0>         0.1276
     38 H4          6.4774   -2.7777    6.3399 H         1 <0>         0.1410
     39 H5          5.2834   -1.4734    4.6291 H         1 <0>         0.1408
     40 H6          2.7929   -4.8276    3.7786 H         1 <0>         0.1219
     41 H7          2.8727   -2.9254    2.2763 H         1 <0>         0.0966
     42 H8          3.9100   -1.5240    2.6349 H         1 <0>         0.1095
     43 H9          0.1706    0.6479    0.8965 H         1 <0>         0.0904
     44 H10         1.7311    0.9351    0.0872 H         1 <0>         0.0704
     45 H11         0.6825    3.0947    0.5756 H         1 <0>         0.0784
     46 H12         0.4739    2.6420    2.2850 H         1 <0>         0.0651
     47 H13         3.1495    2.8995    0.8380 H         1 <0>         0.0718
     48 H14         2.4443    2.3817    3.7626 H         1 <0>         0.0603
     49 H15         4.0873    2.6446    3.1295 H         1 <0>         0.0872
     50 H16         3.5096    0.2067    3.4005 H         1 <0>         0.0759
     51 H17         3.9090    0.6473    1.7202 H         1 <0>         0.0790
     52 H18         0.4725   -2.9753    3.7715 H         1 <0>         0.4280
     53 H19         2.9065   -0.7625    6.8699 H         1 <0>         0.1378
     54 H20         2.3952    1.2616    8.1247 H         1 <0>         0.1398
     55 H21         0.7234    2.6928    9.2690 H         1 <0>         0.1366
     56 H22        -1.5860    3.0872    9.9348 H         1 <0>         0.1321
     57 H23        -3.3572    1.4881    9.3472 H         1 <0>         0.1313
     58 H24        -2.8479   -0.5307    8.0835 H         1 <0>         0.1337
     59 H25        -1.1759   -1.9622    6.9390 H         1 <0>         0.1425
     60 H26         5.2876   -6.8634    7.0174 H         1 <0>         0.4422
     61 H27         4.3118   -8.1894    6.6825 H         1 <0>         0.4277
     62 N4          2.8968   -7.0267    4.8413 N.pl3     1 <0>        -0.7663
     63 H28         2.4282   -6.4385    4.1422 H         1 <0>         0.4578
     64 O5          3.5715    5.1722    2.3637 O.co2     1 <0>        -0.7683
@<TRIPOS>BOND
     1    1   62 1
     2    2    3 1
     3    2   36 1
     4    2   62 2
     5    3    8 ar
     6    3    4 ar
     7    4    5 ar
     8    4   37 1
     9    5    6 ar
    10    5   38 1
    11    6    7 ar
    12    6   39 1
    13    7    8 ar
    14    7    9 1
    15    8   40 1
    16    9   10 1
    17    9   41 1
    18    9   42 1
    19   10   11 1
    20   10   12 1
    21   10   22 1
    22   12   13 2
    23   12   14 am
    24   14   19 1
    25   14   15 1
    26   15   16 1
    27   15   43 1
    28   15   44 1
    29   16   17 1
    30   16   45 1
    31   16   46 1
    32   17   18 1
    33   17   20 1
    34   17   47 1
    35   18   19 1
    36   18   48 1
    37   18   49 1
    38   19   50 1
    39   19   51 1
    40   20   21 2
    41   20   64 1
    42   22   23 1
    43   22   52 1
    44   23   24 2
    45   23   25 2
    46   23   26 1
    47   26   35 ar
    48   26   27 ar
    49   27   28 ar
    50   27   53 1
    51   28   29 ar
    52   28   54 1
    53   29   34 ar
    54   29   30 ar
    55   30   31 ar
    56   30   55 1
    57   31   32 ar
    58   31   56 1
    59   32   33 ar
    60   32   57 1
    61   33   34 ar
    62   33   58 1
    63   34   35 ar
    64   35   59 1
    65   36   60 1
    66   36   61 1
    67   62   63 1
@<TRIPOS>MOLECULE
ZINC03834152
   60    62     0     0     0
SMALL
USER_CHARGES

@<TRIPOS>ATOM
      1 H1          0.8953   12.3650    2.2190 H         1 <0>         0.4435
      2 C1         -0.8038   11.2549    2.3773 C.cat     1 <0>         0.5981
      3 C2         -1.6851   10.3337    1.6237 C.ar      1 <0>        -0.1369
      4 C3         -2.8214    9.7989    2.2304 C.ar      1 <0>        -0.0434
      5 C4         -3.6389    8.9416    1.5231 C.ar      1 <0>        -0.1088
      6 C5         -3.3364    8.6166    0.2126 C.ar      1 <0>        -0.0398
      7 C6         -2.2080    9.1394   -0.3926 C.ar      1 <0>        -0.0768
      8 C7         -1.3825    9.9980    0.3047 C.ar      1 <0>        -0.0117
      9 C8         -1.8823    8.7755   -1.8184 C.3       1 <0>        -0.0987
     10 C9         -0.9955    7.5288   -1.8368 C.3       1 <0>         0.1723
     11 H2         -1.4849    6.7267   -1.2844 H         1 <0>         0.1244
     12 C10        -0.7710    7.0931   -3.2618 C.2       1 <0>         0.4567
     13 O1          0.3504    7.0449   -3.7092 O.2       1 <0>        -0.4850
     14 O2         -1.8166    6.7586   -4.0340 O.3       1 <0>        -0.3513
     15 C11        -1.5257    6.3485   -5.3962 C.3       1 <0>         0.0662
     16 C12        -2.8320    6.0086   -6.1165 C.3       1 <0>        -0.1203
     17 C13        -2.5254    5.5765   -7.5519 C.3       1 <0>        -0.1234
     18 C14        -3.8317    5.2365   -8.2722 C.3       1 <0>        -0.1534
     19 N1          0.2930    7.8369   -1.2115 N.pl3     1 <0>        -1.1034
     20 S1          0.5361    7.5028    0.3922 S.o2      1 <0>         2.6785
     21 O3         -0.5813    8.0335    1.0915 O.2       1 <0>        -0.9423
     22 O4          1.8721    7.8854    0.6887 O.2       1 <0>        -0.9479
     23 C15         0.4608    5.7522    0.5769 C.ar      1 <0>        -0.6775
     24 C16         1.6263    4.9980    0.4526 C.ar      1 <0>        -0.0511
     25 C17         1.6029    3.6442    0.5896 C.ar      1 <0>        -0.1072
     26 C18         0.3869    2.9936    0.8603 C.ar      1 <0>        -0.0097
     27 C19         0.3231    1.5974    1.0078 C.ar      1 <0>        -0.1182
     28 C20        -0.8724    1.0019    1.2692 C.ar      1 <0>        -0.0873
     29 C21        -2.0388    1.7556    1.3879 C.ar      1 <0>        -0.1141
     30 C22        -2.0142    3.1100    1.2571 C.ar      1 <0>        -0.0946
     31 C23        -0.7982    3.7604    0.9866 C.ar      1 <0>        -0.0797
     32 C24        -0.7346    5.1565    0.8382 C.ar      1 <0>         0.0143
     33 N2         -1.1054   11.5847    3.6806 N.pl3     1 <0>        -0.7826
     34 H3         -3.0611   10.0555    3.2518 H         1 <0>         0.1303
     35 H4         -4.5188    8.5264    1.9919 H         1 <0>         0.1422
     36 H5         -3.9817    7.9486   -0.3385 H         1 <0>         0.1410
     37 H6         -0.5038   10.4088   -0.1703 H         1 <0>         0.1199
     38 H7         -1.3556    9.6032   -2.2934 H         1 <0>         0.0973
     39 H8         -2.8054    8.5728   -2.3614 H         1 <0>         0.1156
     40 H9         -1.0224    7.1609   -5.9205 H         1 <0>         0.0759
     41 H10        -0.8799    5.4705   -5.3812 H         1 <0>         0.0748
     42 H11        -3.3353    5.1963   -5.5922 H         1 <0>         0.0763
     43 H12        -3.4778    6.8866   -6.1315 H         1 <0>         0.0768
     44 H13        -2.0221    6.3888   -8.0761 H         1 <0>         0.0668
     45 H14        -1.8797    4.6985   -7.5369 H         1 <0>         0.0666
     46 H15        -4.3350    4.4242   -7.7479 H         1 <0>         0.0569
     47 H16        -4.4775    6.1146   -8.2872 H         1 <0>         0.0570
     48 H17        -3.6133    4.9287   -9.2948 H         1 <0>         0.0604
     49 H18         1.0038    8.2366   -1.7368 H         1 <0>         0.4311
     50 H19         2.5621    5.4955    0.2450 H         1 <0>         0.1385
     51 H20         2.5139    3.0727    0.4904 H         1 <0>         0.1400
     52 H21         1.2180    1.0002    0.9140 H         1 <0>         0.1363
     53 H22        -0.9187   -0.0713    1.3817 H         1 <0>         0.1333
     54 H23        -2.9754    1.2577    1.5912 H         1 <0>         0.1328
     55 H24        -2.9253    3.6814    1.3555 H         1 <0>         0.1342
     56 H25        -1.6297    5.7536    0.9318 H         1 <0>         0.1450
     57 H26        -1.8950   11.2136    4.1046 H         1 <0>         0.4426
     58 H27        -0.5282   12.1881    4.1742 H         1 <0>         0.4296
     59 N3          0.2578   11.7270    1.7423 N.pl3     1 <0>        -0.7662
     60 H28         0.4393   11.4510    0.7701 H         1 <0>         0.4561
@<TRIPOS>BOND
     1    1   59 1
     2    2    3 1
     3    2   33 1
     4    2   59 2
     5    3    8 ar
     6    3    4 ar
     7    4    5 ar
     8    4   34 1
     9    5    6 ar
    10    5   35 1
    11    6    7 ar
    12    6   36 1
    13    7    8 ar
    14    7    9 1
    15    8   37 1
    16    9   10 1
    17    9   38 1
    18    9   39 1
    19   10   11 1
    20   10   12 1
    21   10   19 1
    22   12   13 2
    23   12   14 1
    24   14   15 1
    25   15   16 1
    26   15   40 1
    27   15   41 1
    28   16   17 1
    29   16   42 1
    30   16   43 1
    31   17   18 1
    32   17   44 1
    33   17   45 1
    34   18   46 1
    35   18   47 1
    36   18   48 1
    37   19   20 1
    38   19   49 1
    39   20   21 2
    40   20   22 2
    41   20   23 1
    42   23   32 ar
    43   23   24 ar
    44   24   25 ar
    45   24   50 1
    46   25   26 ar
    47   25   51 1
    48   26   31 ar
    49   26   27 ar
    50   27   28 ar
    51   27   52 1
    52   28   29 ar
    53   28   53 1
    54   29   30 ar
    55   29   54 1
    56   30   31 ar
    57   30   55 1
    58   31   32 ar
    59   32   56 1
    60   33   57 1
    61   33   58 1
    62   59   60 1
@<TRIPOS>MOLECULE
ZINC03834153
   68    71     0     0     0
SMALL
USER_CHARGES

@<TRIPOS>ATOM
      1 H1         -2.6537    3.3343   -0.7921 H         1 <0>         0.4434
      2 C1         -0.9201    2.3123   -0.4849 C.cat     1 <0>         0.5963
      3 C2         -0.3766    0.9538   -0.2566 C.ar      1 <0>        -0.1376
      4 C3          0.9969    0.7656   -0.1039 C.ar      1 <0>        -0.0420
      5 C4          1.4966   -0.5017    0.1151 C.ar      1 <0>        -0.0991
      6 C5          0.6393   -1.5863    0.1706 C.ar      1 <0>        -0.0361
      7 C6         -0.7231   -1.4068    0.0137 C.ar      1 <0>        -0.0622
      8 C7         -1.2355   -0.1432   -0.1992 C.ar      1 <0>        -0.0387
      9 C8         -1.6501   -2.5934    0.0761 C.3       1 <0>        -0.1075
     10 C9         -1.8244   -3.1786   -1.3268 C.3       1 <0>         0.1425
     11 H2         -0.8566   -3.5056   -1.7070 H         1 <0>         0.1118
     12 C10        -2.7642   -4.3552   -1.2670 C.2       1 <0>         0.5119
     13 O1         -3.8624   -4.2804   -1.7761 O.2       1 <0>        -0.5171
     14 N1         -2.3843   -5.4903   -0.6477 N.am      1 <0>        -0.5985
     15 C11        -3.2446   -6.6812   -0.6862 C.3       1 <0>         0.1156
     16 C12        -3.2709   -7.2251   -2.1142 C.3       1 <0>        -0.1395
     17 C13        -1.9188   -7.8866   -2.4300 C.3       1 <0>        -0.1263
     18 C14        -0.8857   -6.8075   -2.7335 C.3       1 <0>        -0.1198
     19 C15         0.2082   -6.7801   -1.6505 C.3       1 <0>        -0.1184
     20 C16        -0.4335   -6.8776   -0.2663 C.3       1 <0>        -0.1526
     21 C17        -1.1223   -5.5483    0.0705 C.3       1 <0>         0.0950
     22 N2         -2.3785   -2.1556   -2.2171 N.pl3     1 <0>        -1.1003
     23 S1         -1.3677   -1.2385   -3.1549 S.o2      1 <0>         2.6814
     24 O2         -2.1961   -0.3696   -3.9151 O.2       1 <0>        -0.9568
     25 O3         -0.3432   -0.7565   -2.2962 O.2       1 <0>        -0.9436
     26 C18        -0.5919   -2.3269   -4.3030 C.ar      1 <0>        -0.6819
     27 C19         0.6156   -2.9349   -3.9642 C.ar      1 <0>        -0.0549
     28 C20         1.2381   -3.7848   -4.8257 C.ar      1 <0>        -0.1082
     29 C21         0.6635   -4.0464   -6.0812 C.ar      1 <0>        -0.0087
     30 C22         1.2802   -4.9130   -6.9999 C.ar      1 <0>        -0.1211
     31 C23         0.6943   -5.1430   -8.2064 C.ar      1 <0>        -0.0857
     32 C24        -0.5104   -4.5308   -8.5475 C.ar      1 <0>        -0.1151
     33 C25        -1.1361   -3.6857   -7.6836 C.ar      1 <0>        -0.0920
     34 C26        -0.5617   -3.4240   -6.4280 C.ar      1 <0>        -0.0782
     35 C27        -1.1780   -2.5569   -5.5096 C.ar      1 <0>         0.0264
     36 N3         -0.0689    3.3943   -0.5412 N.pl3     1 <0>        -0.7824
     37 H3          1.6675    1.6108   -0.1520 H         1 <0>         0.1296
     38 H4          2.5595   -0.6480    0.2386 H         1 <0>         0.1413
     39 H5          1.0356   -2.5770    0.3374 H         1 <0>         0.1369
     40 H6         -2.2996   -0.0042   -0.3209 H         1 <0>         0.1220
     41 H7         -1.2266   -3.3509    0.7357 H         1 <0>         0.1075
     42 H8         -2.6196   -2.2773    0.4611 H         1 <0>         0.0972
     43 H9         -2.8447   -7.4415   -0.0152 H         1 <0>         0.0906
     44 H10        -4.2536   -6.4122   -0.3737 H         1 <0>         0.0779
     45 H11        -3.4479   -6.4067   -2.8122 H         1 <0>         0.0739
     46 H12        -4.0679   -7.9629   -2.2070 H         1 <0>         0.0755
     47 H13        -2.0271   -8.5400   -3.2957 H         1 <0>         0.0624
     48 H14        -1.5912   -8.4722   -1.5710 H         1 <0>         0.0726
     49 H15        -1.3803   -5.8368   -2.7687 H         1 <0>         0.0568
     50 H16        -0.4275   -7.0112   -3.7013 H         1 <0>         0.0571
     51 H17         0.7692   -5.8486   -1.7253 H         1 <0>         0.0599
     52 H18         0.8843   -7.6225   -1.7967 H         1 <0>         0.0671
     53 H19         0.3356   -7.0871    0.4771 H         1 <0>         0.0796
     54 H20        -1.1710   -7.6802   -0.2631 H         1 <0>         0.0887
     55 H21        -0.4867   -4.7177   -0.2364 H         1 <0>         0.0820
     56 H22        -1.3075   -5.4925    1.1432 H         1 <0>         0.0761
     57 H23        -3.3376   -2.0156   -2.2574 H         1 <0>         0.4292
     58 H24         1.0618   -2.7318   -3.0019 H         1 <0>         0.1361
     59 H25         2.1716   -4.2517   -4.5481 H         1 <0>         0.1370
     60 H26         2.2140   -5.3944   -6.7493 H         1 <0>         0.1350
     61 H27         1.1702   -5.8096   -8.9104 H         1 <0>         0.1327
     62 H28        -0.9539   -4.7299   -9.5119 H         1 <0>         0.1329
     63 H29        -2.0692   -3.2181   -7.9616 H         1 <0>         0.1349
     64 H30        -2.1115   -2.0753   -5.7602 H         1 <0>         0.1430
     65 H31         0.8863    3.2661   -0.4312 H         1 <0>         0.4427
     66 H32        -0.4248    4.2841   -0.6906 H         1 <0>         0.4296
     67 N4         -2.2314    2.4195   -0.6327 N.pl3     1 <0>        -0.7652
     68 H33        -2.8234    1.5818   -0.5868 H         1 <0>         0.4569
@<TRIPOS>BOND
     1    1   67 1
     2    2    3 1
     3    2   36 1
     4    2   67 2
     5    3    8 ar
     6    3    4 ar
     7    4    5 ar
     8    4   37 1
     9    5    6 ar
    10    5   38 1
    11    6    7 ar
    12    6   39 1
    13    7    8 ar
    14    7    9 1
    15    8   40 1
    16    9   10 1
    17    9   41 1
    18    9   42 1
    19   10   11 1
    20   10   12 1
    21   10   22 1
    22   12   13 2
    23   12   14 am
    24   14   21 1
    25   14   15 1
    26   15   16 1
    27   15   43 1
    28   15   44 1
    29   16   17 1
    30   16   45 1
    31   16   46 1
    32   17   18 1
    33   17   47 1
    34   17   48 1
    35   18   19 1
    36   18   49 1
    37   18   50 1
    38   19   20 1
    39   19   51 1
    40   19   52 1
    41   20   21 1
    42   20   53 1
    43   20   54 1
    44   21   55 1
    45   21   56 1
    46   22   23 1
    47   22   57 1
    48   23   24 2
    49   23   25 2
    50   23   26 1
    51   26   35 ar
    52   26   27 ar
    53   27   28 ar
    54   27   58 1
    55   28   29 ar
    56   28   59 1
    57   29   34 ar
    58   29   30 ar
    59   30   31 ar
    60   30   60 1
    61   31   32 ar
    62   31   61 1
    63   32   33 ar
    64   32   62 1
    65   33   34 ar
    66   33   63 1
    67   34   35 ar
    68   35   64 1
    69   36   65 1
    70   36   66 1
    71   67   68 1
@<TRIPOS>MOLECULE
ZINC03834155
   59    62     0     0     0
SMALL
USER_CHARGES

@<TRIPOS>ATOM
      1 H1          4.3200    4.1324    5.2056 H         1 <0>         0.4446
      2 C1          2.8510    2.7674    5.5565 C.cat     1 <0>         0.6016
      3 C2          2.0077    1.7462    4.8943 C.ar      1 <0>        -0.1523
      4 C3          1.0743    1.0213    5.6350 C.ar      1 <0>        -0.0557
      5 C4          0.2914    0.0710    5.0124 C.ar      1 <0>        -0.1069
      6 C5          0.4311   -0.1638    3.6560 C.ar      1 <0>        -0.0463
      7 C6          1.3547    0.5522    2.9160 C.ar      1 <0>        -0.0721
      8 C7          2.1471    1.5016    3.5285 C.ar      1 <0>        -0.0586
      9 C8          1.5002    0.2905    1.4391 C.3       1 <0>        -0.0855
     10 C9          0.5505    1.2053    0.6630 C.3       1 <0>         0.1438
     11 H2          0.7384    2.2427    0.9396 H         1 <0>         0.1144
     12 C10         0.7807    1.0300   -0.8159 C.2       1 <0>         0.5075
     13 O1          0.1110    0.2377   -1.4442 O.2       1 <0>        -0.5072
     14 N1          1.7308    1.7537   -1.4404 N.am      1 <0>        -0.6148
     15 C11         2.6751    2.6726   -0.7882 C.3       1 <0>         0.0915
     16 C12         3.5527    3.2908   -1.8967 C.3       1 <0>        -0.1329
     17 C13         2.6760    3.1220   -3.1656 C.3       1 <0>        -0.1351
     18 C14         1.9910    1.7599   -2.8915 C.3       1 <0>         0.1050
     19 N2         -0.8355    0.8572    0.9862 N.pl3     1 <0>        -1.0970
     20 S1         -1.9907    2.0413    1.0606 S.o2      1 <0>         2.6896
     21 O2         -3.2194    1.3919    1.3575 O.2       1 <0>        -0.9459
     22 O3         -1.4595    3.0762    1.8767 O.2       1 <0>        -0.9542
     23 C15        -2.1546    2.7121   -0.5604 C.ar      1 <0>        -0.6812
     24 C16        -1.3654    3.7973   -0.9372 C.ar      1 <0>        -0.0513
     25 C17        -1.4632    4.3357   -2.1833 C.ar      1 <0>        -0.1115
     26 C18        -2.3810    3.7991   -3.1025 C.ar      1 <0>        -0.0082
     27 C19        -2.5151    4.3326   -4.3958 C.ar      1 <0>        -0.1226
     28 C20        -3.4143    3.7868   -5.2594 C.ar      1 <0>        -0.0865
     29 C21        -4.2073    2.7051   -4.8807 C.ar      1 <0>        -0.1182
     30 C22        -4.1052    2.1627   -3.6367 C.ar      1 <0>        -0.0880
     31 C23        -3.1873    2.6992   -2.7175 C.ar      1 <0>        -0.0770
     32 C24        -3.0537    2.1662   -1.4239 C.ar      1 <0>         0.0375
     33 N3          2.7146    3.0032    6.9071 N.pl3     1 <0>        -0.7792
     34 H3          0.9648    1.2032    6.6939 H         1 <0>         0.1395
     35 H4         -0.4317   -0.4909    5.5850 H         1 <0>         0.1520
     36 H5         -0.1837   -0.9089    3.1731 H         1 <0>         0.1469
     37 H6          2.8709    2.0569    2.9505 H         1 <0>         0.1359
     38 H7          1.2549   -0.7504    1.2285 H         1 <0>         0.1062
     39 H8          2.5273    0.4906    1.1340 H         1 <0>         0.1026
     40 H9          2.1280    3.4569   -0.2652 H         1 <0>         0.0702
     41 H10         3.3015    2.1230   -0.0854 H         1 <0>         0.0690
     42 H11         4.4906    2.7452   -2.0005 H         1 <0>         0.0816
     43 H12         3.7393    4.3455   -1.6943 H         1 <0>         0.0862
     44 H13         3.2927    3.0756   -4.0632 H         1 <0>         0.0897
     45 H14         1.9393    3.9218   -3.2407 H         1 <0>         0.0784
     46 H15         2.6562    0.9397   -3.1612 H         1 <0>         0.0729
     47 H16         1.0548    1.6880   -3.4451 H         1 <0>         0.0804
     48 H17        -1.0772   -0.0674    1.1524 H         1 <0>         0.4265
     49 H18        -0.6627    4.2145   -0.2312 H         1 <0>         0.1304
     50 H19        -0.8426    5.1743   -2.4626 H         1 <0>         0.1342
     51 H20        -1.9072    5.1707   -4.7029 H         1 <0>         0.1331
     52 H21        -3.5151    4.1985   -6.2527 H         1 <0>         0.1313
     53 H22        -4.9137    2.2912   -5.5851 H         1 <0>         0.1320
     54 H23        -4.7265    1.3248   -3.3572 H         1 <0>         0.1351
     55 H24        -3.6617    1.3283   -1.1167 H         1 <0>         0.1452
     56 H25         2.0660    2.5002    7.4242 H         1 <0>         0.4435
     57 H26         3.2670    3.6722    7.3410 H         1 <0>         0.4317
     58 N4          3.7166    3.4194    4.7957 N.pl3     1 <0>        -0.7603
     59 H27         3.7806    3.2072    3.7931 H         1 <0>         0.4587
@<TRIPOS>BOND
     1    1   58 1
     2    2    3 1
     3    2   33 1
     4    2   58 2
     5    3    8 ar
     6    3    4 ar
     7    4    5 ar
     8    4   34 1
     9    5    6 ar
    10    5   35 1
    11    6    7 ar
    12    6   36 1
    13    7    8 ar
    14    7    9 1
    15    8   37 1
    16    9   10 1
    17    9   38 1
    18    9   39 1
    19   10   11 1
    20   10   12 1
    21   10   19 1
    22   12   13 2
    23   12   14 am
    24   14   18 1
    25   14   15 1
    26   15   16 1
    27   15   40 1
    28   15   41 1
    29   16   17 1
    30   16   42 1
    31   16   43 1
    32   17   18 1
    33   17   44 1
    34   17   45 1
    35   18   46 1
    36   18   47 1
    37   19   20 1
    38   19   48 1
    39   20   21 2
    40   20   22 2
    41   20   23 1
    42   23   32 ar
    43   23   24 ar
    44   24   25 ar
    45   24   49 1
    46   25   26 ar
    47   25   50 1
    48   26   31 ar
    49   26   27 ar
    50   27   28 ar
    51   27   51 1
    52   28   29 ar
    53   28   52 1
    54   29   30 ar
    55   29   53 1
    56   30   31 ar
    57   30   54 1
    58   31   32 ar
    59   32   55 1
    60   33   56 1
    61   33   57 1
    62   58   59 1
@<TRIPOS>MOLECULE
ZINC03834156
   57    59     0     0     0
SMALL
USER_CHARGES

@<TRIPOS>ATOM
      1 H1          4.8581    2.2067    0.7804 H         1 <0>         0.4451
      2 C1          2.8893    2.6028    0.4471 C.cat     1 <0>         0.6013
      3 C2          1.5819    1.9540    0.1966 C.ar      1 <0>        -0.1510
      4 C3          0.4371    2.7310    0.0198 C.ar      1 <0>        -0.0551
      5 C4         -0.7782    2.1206   -0.2133 C.ar      1 <0>        -0.1063
      6 C5         -0.8627    0.7409   -0.2718 C.ar      1 <0>        -0.0466
      7 C6          0.2692   -0.0349   -0.0977 C.ar      1 <0>        -0.0728
      8 C7          1.4904    0.5639    0.1360 C.ar      1 <0>        -0.0598
      9 C8          0.1686   -1.5371   -0.1640 C.3       1 <0>        -0.0957
     10 C9          0.3844   -1.9996   -1.6063 C.3       1 <0>         0.1398
     11 H2          1.3557   -1.6516   -1.9580 H         1 <0>         0.1179
     12 C10         0.3394   -3.5049   -1.6633 C.2       1 <0>         0.4946
     13 O1         -0.5817   -4.0633   -2.2207 O.2       1 <0>        -0.4995
     14 N1          1.3227   -4.2304   -1.0948 N.am      1 <0>        -0.6131
     15 C11         1.3639   -5.6943   -1.2388 C.3       1 <0>         0.0775
     16 C12         2.7727   -6.0899   -1.7098 C.3       1 <0>         0.0468
     17 O2          3.7406   -5.5113   -0.8311 O.3       1 <0>        -0.3720
     18 C13         3.7392   -4.0818   -0.8186 C.3       1 <0>         0.0434
     19 C14         2.3832   -3.5829   -0.3066 C.3       1 <0>         0.0613
     20 N2         -0.6704   -1.4468   -2.4594 N.pl3     1 <0>        -1.0953
     21 S1         -0.3279   -1.0038   -4.0178 S.o2      1 <0>         2.6915
     22 O3         -1.5448   -0.5373   -4.5843 O.2       1 <0>        -0.9460
     23 O4          0.8440   -0.2020   -3.9639 O.2       1 <0>        -0.9585
     24 C15         0.1052   -2.4704   -4.8932 C.ar      1 <0>        -0.6813
     25 C16         1.4241   -2.8815   -4.9431 C.ar      1 <0>        -0.0238
     26 C17         1.7632   -4.0345   -5.6261 C.ar      1 <0>        -0.1422
     27 C18         0.7849   -4.7712   -6.2672 C.ar      1 <0>        -0.0187
     28 C19        -0.5332   -4.3575   -6.2213 C.ar      1 <0>        -0.1359
     29 C20        -0.8731   -3.2069   -5.5346 C.ar      1 <0>         0.0027
     30 C21         1.1554   -6.0255   -7.0157 C.3       1 <0>        -0.1288
     31 N3          2.9765    3.9766    0.5063 N.pl3     1 <0>        -0.7786
     32 H3          0.5019    3.8080    0.0649 H         1 <0>         0.1400
     33 H4         -1.6645    2.7213   -0.3547 H         1 <0>         0.1524
     34 H5         -1.8161    0.2677   -0.4545 H         1 <0>         0.1468
     35 H6          2.3734   -0.0429    0.2721 H         1 <0>         0.1353
     36 H7          0.9300   -1.9808    0.4776 H         1 <0>         0.1074
     37 H8         -0.8191   -1.8504    0.1741 H         1 <0>         0.1064
     38 H9          1.1494   -6.1638   -0.2787 H         1 <0>         0.0824
     39 H10         0.6265   -6.0116   -1.9760 H         1 <0>         0.1048
     40 H11         2.9365   -5.7242   -2.7234 H         1 <0>         0.0589
     41 H12         2.8697   -7.1755   -1.6944 H         1 <0>         0.1123
     42 H13         3.9066   -3.7088   -1.8290 H         1 <0>         0.0582
     43 H14         4.5311   -3.7227   -0.1612 H         1 <0>         0.1088
     44 H15         2.3210   -2.5012   -0.4263 H         1 <0>         0.0894
     45 H16         2.2692   -3.8428    0.7458 H         1 <0>         0.0890
     46 H17        -1.5696   -1.3404   -2.1114 H         1 <0>         0.4255
     47 H18         2.1890   -2.3037   -4.4456 H         1 <0>         0.1302
     48 H19         2.7931   -4.3579   -5.6617 H         1 <0>         0.1308
     49 H20        -1.2976   -4.9331   -6.7222 H         1 <0>         0.1351
     50 H21        -1.9029   -2.8835   -5.4991 H         1 <0>         0.1394
     51 H22         1.3883   -5.7756   -8.0508 H         1 <0>         0.0829
     52 H23         2.0266   -6.4841   -6.5479 H         1 <0>         0.0735
     53 H24         0.3192   -6.7244   -6.9900 H         1 <0>         0.0758
     54 H25         2.1815    4.5187    0.3840 H         1 <0>         0.4435
     55 H26         3.8328    4.4016    0.6704 H         1 <0>         0.4320
     56 N4          3.9359    1.8074    0.6055 N.pl3     1 <0>        -0.7600
     57 H27         3.8192    0.7887    0.5523 H         1 <0>         0.4583
@<TRIPOS>BOND
     1    1   56 1
     2    2    3 1
     3    2   31 1
     4    2   56 2
     5    3    8 ar
     6    3    4 ar
     7    4    5 ar
     8    4   32 1
     9    5    6 ar
    10    5   33 1
    11    6    7 ar
    12    6   34 1
    13    7    8 ar
    14    7    9 1
    15    8   35 1
    16    9   10 1
    17    9   36 1
    18    9   37 1
    19   10   11 1
    20   10   12 1
    21   10   20 1
    22   12   13 2
    23   12   14 am
    24   14   19 1
    25   14   15 1
    26   15   16 1
    27   15   38 1
    28   15   39 1
    29   16   17 1
    30   16   40 1
    31   16   41 1
    32   17   18 1
    33   18   19 1
    34   18   42 1
    35   18   43 1
    36   19   44 1
    37   19   45 1
    38   20   21 1
    39   20   46 1
    40   21   22 2
    41   21   23 2
    42   21   24 1
    43   24   29 ar
    44   24   25 ar
    45   25   26 ar
    46   25   47 1
    47   26   27 ar
    48   26   48 1
    49   27   28 ar
    50   27   30 1
    51   28   29 ar
    52   28   49 1
    53   29   50 1
    54   30   51 1
    55   30   52 1
    56   30   53 1
    57   31   54 1
    58   31   55 1
    59   56   57 1
@<TRIPOS>MOLECULE
ZINC03834157
   88    90     0     0     0
SMALL
USER_CHARGES

@<TRIPOS>ATOM
      1 H1         -3.3944   -2.8628   -3.9965 H         1 <0>         0.4440
      2 C1         -1.8089   -2.6401   -5.2539 C.cat     1 <0>         0.6015
      3 C2         -0.4077   -2.1646   -5.3121 C.ar      1 <0>        -0.1461
      4 C3          0.3053   -2.2316   -6.5091 C.ar      1 <0>        -0.0477
      5 C4          1.6105   -1.7871   -6.5570 C.ar      1 <0>        -0.0986
      6 C5          2.2124   -1.2760   -5.4208 C.ar      1 <0>        -0.0413
      7 C6          1.5104   -1.2066   -4.2311 C.ar      1 <0>        -0.0695
      8 C7          0.2060   -1.6529   -4.1694 C.ar      1 <0>        -0.0574
      9 C8          2.1732   -0.6482   -2.9983 C.3       1 <0>        -0.0988
     10 C9          1.9354    0.8617   -2.9309 C.3       1 <0>         0.1384
     11 H2          0.8652    1.0633   -2.9769 H         1 <0>         0.1129
     12 C10         2.4931    1.4010   -1.6390 C.2       1 <0>         0.5079
     13 O1          3.5844    1.9300   -1.6235 O.2       1 <0>        -0.5055
     14 N1          1.7793    1.2953   -0.5006 N.am      1 <0>        -0.6060
     15 C11         0.4889    0.5919   -0.4895 C.3       1 <0>         0.0782
     16 C12         0.5450   -0.5081    0.5842 C.3       1 <0>         0.1031
     17 N2          1.0401    0.0833    1.8351 N.pl3     1 <0>        -0.9998
     18 C13         2.3278    0.7915    1.8227 C.3       1 <0>         0.1050
     19 C14         2.2745    1.8867    0.7503 C.3       1 <0>         0.0938
     20 S1          0.1630   -0.0464    3.2338 S.o2      1 <0>         2.6060
     21 O2         -0.6144   -1.2241    3.0662 O.2       1 <0>        -0.9512
     22 O3          1.1257    0.0440    4.2751 O.2       1 <0>        -0.9433
     23 C15        -0.9115    1.4150    3.2475 C.3       1 <0>        -0.6734
     24 N3          2.6037    1.5123   -4.0606 N.pl3     1 <0>        -1.1005
     25 S2          1.7072    2.2744   -5.2259 S.o2      1 <0>         2.6843
     26 O4          2.6323    2.8695   -6.1255 O.2       1 <0>        -0.9387
     27 O5          0.7207    1.3447   -5.6521 O.2       1 <0>        -0.9455
     28 C16         0.8473    3.5964   -4.4402 C.ar      1 <0>        -0.6903
     29 C17         1.4556    4.8297   -4.2998 C.ar      1 <0>         0.0475
     30 C18         0.7793    5.8682   -3.6872 C.ar      1 <0>        -0.1361
     31 C19        -0.5016    5.6705   -3.2065 C.ar      1 <0>        -0.0032
     32 C20        -1.1080    4.4358   -3.3425 C.ar      1 <0>        -0.1461
     33 C21        -0.4333    3.3986   -3.9590 C.ar      1 <0>         0.0223
     34 C22        -1.0943    2.0523   -4.1069 C.3       1 <0>        -0.0858
     35 C23        -2.0490    1.8213   -2.9339 C.3       1 <0>        -0.1569
     36 C24        -1.8796    2.0112   -5.4193 C.3       1 <0>        -0.1261
     37 C25        -1.2371    6.8012   -2.5344 C.3       1 <0>        -0.0662
     38 C26        -0.4493    7.2639   -1.3071 C.3       1 <0>        -0.1458
     39 C27        -1.3854    7.9669   -3.5144 C.3       1 <0>        -0.1479
     40 C28         2.8541    5.0437   -4.8187 C.3       1 <0>        -0.0975
     41 C29         2.7986    5.8537   -6.1156 C.3       1 <0>        -0.1325
     42 C30         3.6741    5.8061   -3.7760 C.3       1 <0>        -0.1486
     43 N4         -2.4109   -3.1500   -6.3836 N.pl3     1 <0>        -0.7799
     44 H3         -0.1632   -2.6310   -7.3964 H         1 <0>         0.1360
     45 H4          2.1636   -1.8384   -7.4832 H         1 <0>         0.1476
     46 H5          3.2345   -0.9296   -5.4632 H         1 <0>         0.1414
     47 H6         -0.3399   -1.6023   -3.2388 H         1 <0>         0.1304
     48 H7          3.2444   -0.8457   -3.0407 H         1 <0>         0.1071
     49 H8          1.7510   -1.1224   -2.1123 H         1 <0>         0.1008
     50 H9         -0.3094    1.2959   -0.2545 H         1 <0>         0.0844
     51 H10         0.3086    0.1431   -1.4663 H         1 <0>         0.0900
     52 H11         1.2192   -1.3021    0.2629 H         1 <0>         0.0843
     53 H12        -0.4527   -0.9173    0.7428 H         1 <0>         0.1073
     54 H13         3.1289    0.0902    1.5897 H         1 <0>         0.0853
     55 H14         2.5092    1.2431    2.7981 H         1 <0>         0.1100
     56 H15         3.2734    2.2933    0.5925 H         1 <0>         0.1120
     57 H16         1.6018    2.6828    1.0700 H         1 <0>         0.0776
     58 H17        -1.5532    1.4024    2.3665 H         1 <0>         0.1255
     59 H18        -1.5281    1.4042    4.1463 H         1 <0>         0.1329
     60 H19        -0.2989    2.3165    3.2380 H         1 <0>         0.1291
     61 H20         3.5714    1.4967   -4.1261 H         1 <0>         0.4301
     62 H21         1.2530    6.8330   -3.5812 H         1 <0>         0.1337
     63 H22        -2.1088    4.2813   -2.9669 H         1 <0>         0.1314
     64 H23        -0.3328    1.2726   -4.1145 H         1 <0>         0.1004
     65 H24        -2.8674    2.5396   -2.9846 H         1 <0>         0.0669
     66 H25        -2.4502    0.8091   -2.9858 H         1 <0>         0.0571
     67 H26        -1.5097    1.9506   -1.9955 H         1 <0>         0.0585
     68 H27        -1.1994    2.1758   -6.2551 H         1 <0>         0.0716
     69 H28        -2.3576    1.0375   -5.5264 H         1 <0>         0.0523
     70 H29        -2.6412    2.7910   -5.4117 H         1 <0>         0.0512
     71 H30        -2.2245    6.4591   -2.2246 H         1 <0>         0.0822
     72 H31        -0.3437    6.4335   -0.6089 H         1 <0>         0.0553
     73 H32         0.5382    7.6060   -1.6168 H         1 <0>         0.0599
     74 H33        -0.9813    8.0817   -0.8211 H         1 <0>         0.0655
     75 H34        -1.9466    7.6373   -4.3888 H         1 <0>         0.0579
     76 H35        -1.9173    8.7847   -3.0283 H         1 <0>         0.0658
     77 H36        -0.3979    8.3090   -3.8241 H         1 <0>         0.0601
     78 H37         3.3212    4.0781   -5.0132 H         1 <0>         0.1078
     79 H38         2.4146    6.8517   -5.9044 H         1 <0>         0.0537
     80 H39         3.8002    5.9316   -6.5385 H         1 <0>         0.0677
     81 H40         2.1413    5.3547   -6.8277 H         1 <0>         0.0586
     82 H41         4.6856    5.9608   -4.1514 H         1 <0>         0.0676
     83 H42         3.2070    6.7716   -3.5816 H         1 <0>         0.0580
     84 H43         3.7137    5.2290   -2.8522 H         1 <0>         0.0583
     85 H44        -1.9168   -3.1974   -7.2170 H         1 <0>         0.4434
     86 H45        -3.3287   -3.4615   -6.3455 H         1 <0>         0.4309
     87 N5         -2.4282   -2.5483   -4.0872 N.pl3     1 <0>        -0.7631
     88 H46        -1.9360   -2.1605   -3.2738 H         1 <0>         0.4572
@<TRIPOS>BOND
     1    1   87 1
     2    2    3 1
     3    2   43 1
     4    2   87 2
     5    3    8 ar
     6    3    4 ar
     7    4    5 ar
     8    4   44 1
     9    5    6 ar
    10    5   45 1
    11    6    7 ar
    12    6   46 1
    13    7    8 ar
    14    7    9 1
    15    8   47 1
    16    9   10 1
    17    9   48 1
    18    9   49 1
    19   10   11 1
    20   10   12 1
    21   10   24 1
    22   12   13 2
    23   12   14 am
    24   14   19 1
    25   14   15 1
    26   15   16 1
    27   15   50 1
    28   15   51 1
    29   16   17 1
    30   16   52 1
    31   16   53 1
    32   17   18 1
    33   17   20 1
    34   18   19 1
    35   18   54 1
    36   18   55 1
    37   19   56 1
    38   19   57 1
    39   20   21 2
    40   20   22 2
    41   20   23 1
    42   23   58 1
    43   23   59 1
    44   23   60 1
    45   24   25 1
    46   24   61 1
    47   25   26 2
    48   25   27 2
    49   25   28 1
    50   28   33 ar
    51   28   29 ar
    52   29   30 ar
    53   29   40 1
    54   30   31 ar
    55   30   62 1
    56   31   32 ar
    57   31   37 1
    58   32   33 ar
    59   32   63 1
    60   33   34 1
    61   34   35 1
    62   34   36 1
    63   34   64 1
    64   35   65 1
    65   35   66 1
    66   35   67 1
    67   36   68 1
    68   36   69 1
    69   36   70 1
    70   37   38 1
    71   37   39 1
    72   37   71 1
    73   38   72 1
    74   38   73 1
    75   38   74 1
    76   39   75 1
    77   39   76 1
    78   39   77 1
    79   40   41 1
    80   40   42 1
    81   40   78 1
    82   41   79 1
    83   41   80 1
    84   41   81 1
    85   42   82 1
    86   42   83 1
    87   42   84 1
    88   43   85 1
    89   43   86 1
    90   87   88 1
@<TRIPOS>MOLECULE
ZINC03834175
   84    87     0     0     0
SMALL
USER_CHARGES

@<TRIPOS>ATOM
      1 H1          3.9737   -2.4488    5.1177 H         1 <0>         0.4451
      2 C1          3.0836   -1.3630    6.5917 C.cat     1 <0>         0.5987
      3 C2          2.6454    0.0063    6.9471 C.ar      1 <0>        -0.1461
      4 C3          2.0365    0.2492    8.1782 C.ar      1 <0>        -0.0504
      5 C4          1.6308    1.5271    8.5038 C.ar      1 <0>        -0.0997
      6 C5          1.8320    2.5675    7.6141 C.ar      1 <0>        -0.0452
      7 C6          2.4302    2.3318    6.3895 C.ar      1 <0>        -0.0693
      8 C7          2.8403    1.0579    6.0524 C.ar      1 <0>        -0.0566
      9 C8          2.6400    3.4695    5.4237 C.3       1 <0>        -0.1036
     10 C9          1.4195    3.5941    4.5095 C.3       1 <0>         0.1421
     11 H2          0.5187    3.6859    5.1164 H         1 <0>         0.1174
     12 C10         1.5659    4.8162    3.6399 C.2       1 <0>         0.5064
     13 O1          1.7317    4.6937    2.4448 O.2       1 <0>        -0.5085
     14 N1          1.5125    6.0453    4.1904 N.am      1 <0>        -0.6062
     15 C11         1.5401    7.2461    3.3435 C.3       1 <0>         0.0957
     16 C12         0.3048    8.1012    3.6731 C.3       1 <0>         0.1048
     17 N2          0.2242    8.2647    5.1314 N.pl3     1 <0>        -0.9997
     18 C13         0.2022    7.0640    5.9787 C.3       1 <0>         0.1016
     19 C14         1.4319    6.2088    5.6487 C.3       1 <0>         0.0756
     20 S1          0.1587    9.7749    5.8078 S.o2      1 <0>         2.6053
     21 O2         -0.4072   10.5998    4.7987 O.2       1 <0>        -0.9459
     22 O3         -0.5078    9.5878    7.0487 O.2       1 <0>        -0.9493
     23 C15         1.8905   10.2339    6.0918 C.3       1 <0>        -0.6728
     24 N3          1.3191    2.4021    3.6637 N.pl3     1 <0>        -1.1004
     25 S2         -0.0053    1.4148    3.7782 S.o2      1 <0>         2.6900
     26 O4         -0.1562    1.0957    5.1548 O.2       1 <0>        -0.9511
     27 O5          0.1437    0.4175    2.7771 O.2       1 <0>        -0.9545
     28 C16        -1.4119    2.3752    3.3268 C.ar      1 <0>        -0.7209
     29 C17        -1.6928    2.6054    1.9925 C.ar      1 <0>         0.0581
     30 C18        -2.7908    3.3630    1.6403 C.ar      1 <0>        -0.1414
     31 C19        -3.6233    3.8887    2.6236 C.ar      1 <0>         0.2111
     32 C20        -3.3411    3.6545    3.9578 C.ar      1 <0>        -0.1861
     33 C21        -2.2342    2.8980    4.3055 C.ar      1 <0>         0.0485
     34 C22        -1.9262    2.6436    5.7585 C.3       1 <0>        -0.1613
     35 C23        -4.2177    4.2040    5.0545 C.3       1 <0>        -0.0775
     36 C24        -5.0875    5.3356    4.5009 C.3       1 <0>        -0.1500
     37 C25        -5.7309    4.8536    3.1945 C.3       1 <0>         0.1105
     38 O6         -4.6942    4.6302    2.2376 O.3       1 <0>        -0.2964
     39 C26        -6.4909    3.5496    3.4448 C.3       1 <0>        -0.1776
     40 C27        -6.6952    5.9198    2.6709 C.3       1 <0>        -0.1416
     41 C28        -3.0925    3.6175    0.1859 C.3       1 <0>        -0.1107
     42 C29        -0.7967    2.0343    0.9238 C.3       1 <0>        -0.1375
     43 N4          2.8897   -2.4000    7.4778 N.pl3     1 <0>        -0.7795
     44 H3          1.8832   -0.5613    8.8754 H         1 <0>         0.1366
     45 H4          1.1589    1.7164    9.4565 H         1 <0>         0.1490
     46 H5          1.5168    3.5669    7.8752 H         1 <0>         0.1437
     47 H6          3.3108    0.8758    5.0975 H         1 <0>         0.1296
     48 H7          3.5272    3.2754    4.8209 H         1 <0>         0.1012
     49 H8          2.7741    4.3977    5.9792 H         1 <0>         0.1091
     50 H9          2.4472    7.8156    3.5458 H         1 <0>         0.0795
     51 H10         1.5152    6.9538    2.2937 H         1 <0>         0.1099
     52 H11        -0.5947    7.6037    3.3105 H         1 <0>         0.0817
     53 H12         0.3983    9.0786    3.2000 H         1 <0>         0.1091
     54 H13        -0.7046    6.4928    5.7802 H         1 <0>         0.0817
     55 H14         0.2294    7.3539    7.0290 H         1 <0>         0.1099
     56 H15         1.3353    5.2316    6.1216 H         1 <0>         0.0974
     57 H16         2.3315    6.7063    6.0113 H         1 <0>         0.0877
     58 H17         2.4251   10.2404    5.1419 H         1 <0>         0.1285
     59 H18         1.9344   11.2265    6.5402 H         1 <0>         0.1324
     60 H19         2.3526    9.5108    6.7638 H         1 <0>         0.1269
     61 H20         2.0285    2.1914    3.0366 H         1 <0>         0.4242
     62 H21        -1.0720    3.2498    6.0603 H         1 <0>         0.0719
     63 H22        -2.7921    2.9084    6.3652 H         1 <0>         0.0770
     64 H23        -1.6915    1.5887    5.9009 H         1 <0>         0.1275
     65 H24        -4.8574    3.4101    5.4396 H         1 <0>         0.0830
     66 H25        -3.5924    4.5883    5.8604 H         1 <0>         0.0855
     67 H26        -5.8649    5.5878    5.2221 H         1 <0>         0.0909
     68 H27        -4.4695    6.2119    4.3054 H         1 <0>         0.0788
     69 H28        -7.2685    3.7195    4.1894 H         1 <0>         0.0783
     70 H29        -6.9466    3.2103    2.5144 H         1 <0>         0.0697
     71 H30        -5.7991    2.7899    3.8087 H         1 <0>         0.0637
     72 H31        -6.1486    6.8443    2.4851 H         1 <0>         0.0690
     73 H32        -7.1503    5.5739    1.7428 H         1 <0>         0.0709
     74 H33        -7.4739    6.1007    3.4120 H         1 <0>         0.0829
     75 H34        -3.7422    2.8290   -0.1938 H         1 <0>         0.0722
     76 H35        -3.5912    4.5811    0.0815 H         1 <0>         0.0740
     77 H36        -2.1621    3.6265   -0.3820 H         1 <0>         0.0726
     78 H37        -1.1547    1.0447    0.6401 H         1 <0>         0.0960
     79 H38         0.2210    1.9567    1.3064 H         1 <0>         0.0694
     80 H39        -0.8082    2.6886    0.0521 H         1 <0>         0.0861
     81 H40         2.4662   -2.2334    8.3344 H         1 <0>         0.4432
     82 H41         3.1767   -3.2969    7.2451 H         1 <0>         0.4313
     83 N5          3.6549   -1.5244    5.4083 N.pl3     1 <0>        -0.7615
     84 H42         3.7770   -0.7192    4.7830 H         1 <0>         0.4582
@<TRIPOS>BOND
     1    1   83 1
     2    2    3 1
     3    2   43 1
     4    2   83 2
     5    3    8 ar
     6    3    4 ar
     7    4    5 ar
     8    4   44 1
     9    5    6 ar
    10    5   45 1
    11    6    7 ar
    12    6   46 1
    13    7    8 ar
    14    7    9 1
    15    8   47 1
    16    9   10 1
    17    9   48 1
    18    9   49 1
    19   10   11 1
    20   10   12 1
    21   10   24 1
    22   12   13 2
    23   12   14 am
    24   14   19 1
    25   14   15 1
    26   15   16 1
    27   15   50 1
    28   15   51 1
    29   16   17 1
    30   16   52 1
    31   16   53 1
    32   17   18 1
    33   17   20 1
    34   18   19 1
    35   18   54 1
    36   18   55 1
    37   19   56 1
    38   19   57 1
    39   20   21 2
    40   20   22 2
    41   20   23 1
    42   23   58 1
    43   23   59 1
    44   23   60 1
    45   24   25 1
    46   24   61 1
    47   25   26 2
    48   25   27 2
    49   25   28 1
    50   28   33 ar
    51   28   29 ar
    52   29   30 ar
    53   29   42 1
    54   30   31 ar
    55   30   41 1
    56   31   38 1
    57   31   32 ar
    58   32   33 ar
    59   32   35 1
    60   33   34 1
    61   34   62 1
    62   34   63 1
    63   34   64 1
    64   35   36 1
    65   35   65 1
    66   35   66 1
    67   36   37 1
    68   36   67 1
    69   36   68 1
    70   37   38 1
    71   37   39 1
    72   37   40 1
    73   39   69 1
    74   39   70 1
    75   39   71 1
    76   40   72 1
    77   40   73 1
    78   40   74 1
    79   41   75 1
    80   41   76 1
    81   41   77 1
    82   42   78 1
    83   42   79 1
    84   42   80 1
    85   43   81 1
    86   43   82 1
    87   83   84 1
@<TRIPOS>MOLECULE
ZINC03834176
   82    85     0     0     0
SMALL
USER_CHARGES

@<TRIPOS>ATOM
      1 H1         -0.3060   -2.5848    3.7565 H         1 <0>         0.4439
      2 C1         -1.6930   -2.8086    2.2834 C.cat     1 <0>         0.6021
      3 C2         -2.0696   -2.3260    0.9350 C.ar      1 <0>        -0.1486
      4 C3         -3.2026   -2.8346    0.3002 C.ar      1 <0>        -0.0524
      5 C4         -3.5483   -2.3810   -0.9561 C.ar      1 <0>        -0.1048
      6 C5         -2.7731   -1.4238   -1.5865 C.ar      1 <0>        -0.0465
      7 C6         -1.6486   -0.9153   -0.9620 C.ar      1 <0>        -0.0685
      8 C7         -1.2898   -1.3649    0.2925 C.ar      1 <0>        -0.0557
      9 C8         -0.8102    0.1273   -1.6554 C.3       1 <0>        -0.0927
     10 C9         -1.3279    1.5211   -1.2943 C.3       1 <0>         0.1443
     11 H2         -1.3239    1.6406   -0.2109 H         1 <0>         0.1125
     12 C10        -0.4379    2.5648   -1.9183 C.2       1 <0>         0.5027
     13 O1         -0.8020    3.1565   -2.9125 O.2       1 <0>        -0.5114
     14 N1          0.7625    2.8410   -1.3715 N.am      1 <0>        -0.6068
     15 C11         1.1679    2.2205   -0.1028 C.3       1 <0>         0.1005
     16 C12         1.5822    3.3167    0.8771 C.3       1 <0>        -0.1345
     17 C13         2.6591    4.1931    0.2333 C.3       1 <0>        -0.0909
     18 C14         2.0945    4.8560   -1.0252 C.3       1 <0>        -0.1314
     19 C15         1.6883    3.7731   -2.0296 C.3       1 <0>         0.1101
     20 C16         3.0979    5.2724    1.2250 C.3       1 <0>        -0.1493
     21 N2         -2.6944    1.6800   -1.7981 N.pl3     1 <0>        -1.0999
     22 S1         -3.9192    2.0797   -0.7576 S.o2      1 <0>         2.6922
     23 O2         -5.0920    2.2233   -1.5470 O.2       1 <0>        -0.9478
     24 O3         -3.8403    1.1699    0.3311 O.2       1 <0>        -0.9542
     25 C17        -3.5509    3.6756   -0.1080 C.ar      1 <0>        -0.7201
     26 C18        -3.0466    3.8012    1.1735 C.ar      1 <0>         0.0424
     27 C19        -2.7558    5.0511    1.6800 C.ar      1 <0>        -0.1452
     28 C20        -2.9785    6.1882    0.9095 C.ar      1 <0>         0.2089
     29 C21        -3.4857    6.0595   -0.3714 C.ar      1 <0>        -0.1827
     30 C22        -3.7713    4.8018   -0.8764 C.ar      1 <0>         0.0672
     31 C23        -4.3247    4.6615   -2.2711 C.3       1 <0>        -0.1403
     32 C24        -3.7353    7.2647   -1.2424 C.3       1 <0>        -0.0806
     33 C25        -3.7796    8.5262   -0.3765 C.3       1 <0>        -0.1500
     34 C26        -2.5627    8.5123    0.5574 C.3       1 <0>         0.1105
     35 O4         -2.6902    7.4020    1.4468 O.3       1 <0>        -0.2973
     36 C27        -1.2819    8.3678   -0.2670 C.3       1 <0>        -0.1754
     37 C28        -2.5145    9.8138    1.3604 C.3       1 <0>        -0.1407
     38 C29        -2.1997    5.1858    3.0742 C.3       1 <0>        -0.1047
     39 C30        -2.8095    2.5731    2.0142 C.3       1 <0>        -0.1619
     40 N3         -2.4627   -3.7621    2.9135 N.pl3     1 <0>        -0.7799
     41 H3         -3.8081   -3.5822    0.7911 H         1 <0>         0.1376
     42 H4         -4.4254   -2.7741   -1.4485 H         1 <0>         0.1496
     43 H5         -3.0476   -1.0721   -2.5700 H         1 <0>         0.1440
     44 H6         -0.4091   -0.9703    0.7773 H         1 <0>         0.1328
     45 H7         -0.8723   -0.0150   -2.7343 H         1 <0>         0.1043
     46 H8          0.2274    0.0310   -1.3354 H         1 <0>         0.1009
     47 H9          0.3317    1.6580    0.3123 H         1 <0>         0.0761
     48 H10         2.0108    1.5515   -0.2763 H         1 <0>         0.0774
     49 H11         1.9776    2.8632    1.7861 H         1 <0>         0.0788
     50 H12         0.7143    3.9284    1.1230 H         1 <0>         0.0705
     51 H13         3.5167    3.5760   -0.0349 H         1 <0>         0.0743
     52 H14         2.8545    5.4983   -1.4701 H         1 <0>         0.0793
     53 H15         1.2218    5.4534   -0.7613 H         1 <0>         0.0667
     54 H16         2.5745    3.2332   -2.3633 H         1 <0>         0.0729
     55 H17         1.1954    4.2346   -2.8852 H         1 <0>         0.0956
     56 H18         2.2405    5.8898    1.4929 H         1 <0>         0.0548
     57 H19         3.5000    4.8003    2.1214 H         1 <0>         0.0568
     58 H20         3.8658    5.8959    0.7671 H         1 <0>         0.0588
     59 H21        -2.8817    1.5511   -2.7410 H         1 <0>         0.4268
     60 H22        -5.4136    4.6948   -2.2349 H         1 <0>         0.0984
     61 H23        -3.9567    5.4783   -2.8919 H         1 <0>         0.0828
     62 H24        -4.0042    3.7099   -2.6952 H         1 <0>         0.0706
     63 H25        -2.9330    7.3554   -1.9746 H         1 <0>         0.0835
     64 H26        -4.6869    7.1469   -1.7607 H         1 <0>         0.0876
     65 H27        -3.7441    9.4103   -1.0132 H         1 <0>         0.0910
     66 H28        -4.6961    8.5348    0.2134 H         1 <0>         0.0799
     67 H29        -1.1979    9.2068   -0.9578 H         1 <0>         0.0778
     68 H30        -0.4198    8.3583    0.3998 H         1 <0>         0.0672
     69 H31        -1.3158    7.4353   -0.8303 H         1 <0>         0.0637
     70 H32        -3.4241    9.9089    1.9534 H         1 <0>         0.0691
     71 H33        -1.6489    9.8004    2.0226 H         1 <0>         0.0695
     72 H34        -2.4361   10.6596    0.6771 H         1 <0>         0.0829
     73 H35        -3.0186    5.1843    3.7936 H         1 <0>         0.0700
     74 H36        -1.5324    4.3494    3.2816 H         1 <0>         0.0662
     75 H37        -1.6462    6.1212    3.1559 H         1 <0>         0.0732
     76 H38        -1.8903    2.0840    1.6917 H         1 <0>         0.0683
     77 H39        -2.7195    2.8616    3.0615 H         1 <0>         0.0757
     78 H40        -3.6472    1.8856    1.8973 H         1 <0>         0.1306
     79 H41        -3.2511   -4.1171    2.4738 H         1 <0>         0.4434
     80 H42        -2.2161   -4.0783    3.7967 H         1 <0>         0.4310
     81 N4         -0.6064   -2.2847    2.8290 N.pl3     1 <0>        -0.7616
     82 H43        -0.0660   -1.5765    2.3185 H         1 <0>         0.4581
@<TRIPOS>BOND
     1    1   81 1
     2    2    3 1
     3    2   40 1
     4    2   81 2
     5    3    8 ar
     6    3    4 ar
     7    4    5 ar
     8    4   41 1
     9    5    6 ar
    10    5   42 1
    11    6    7 ar
    12    6   43 1
    13    7    8 ar
    14    7    9 1
    15    8   44 1
    16    9   10 1
    17    9   45 1
    18    9   46 1
    19   10   11 1
    20   10   12 1
    21   10   21 1
    22   12   13 2
    23   12   14 am
    24   14   19 1
    25   14   15 1
    26   15   16 1
    27   15   47 1
    28   15   48 1
    29   16   17 1
    30   16   49 1
    31   16   50 1
    32   17   18 1
    33   17   20 1
    34   17   51 1
    35   18   19 1
    36   18   52 1
    37   18   53 1
    38   19   54 1
    39   19   55 1
    40   20   56 1
    41   20   57 1
    42   20   58 1
    43   21   22 1
    44   21   59 1
    45   22   23 2
    46   22   24 2
    47   22   25 1
    48   25   30 ar
    49   25   26 ar
    50   26   27 ar
    51   26   39 1
    52   27   28 ar
    53   27   38 1
    54   28   35 1
    55   28   29 ar
    56   29   30 ar
    57   29   32 1
    58   30   31 1
    59   31   60 1
    60   31   61 1
    61   31   62 1
    62   32   33 1
    63   32   63 1
    64   32   64 1
    65   33   34 1
    66   33   65 1
    67   33   66 1
    68   34   35 1
    69   34   36 1
    70   34   37 1
    71   36   67 1
    72   36   68 1
    73   36   69 1
    74   37   70 1
    75   37   71 1
    76   37   72 1
    77   38   73 1
    78   38   74 1
    79   38   75 1
    80   39   76 1
    81   39   77 1
    82   39   78 1
    83   40   79 1
    84   40   80 1
    85   81   82 1
@<TRIPOS>MOLECULE
ZINC03834177
   64    67     0     0     0
SMALL
USER_CHARGES

@<TRIPOS>ATOM
      1 H1          2.7153   -1.8426   -0.6632 H         1 <0>         0.4436
      2 C1          0.9665   -0.8404   -0.3778 C.cat     1 <0>         0.5962
      3 C2          0.4030    0.5140   -0.1753 C.ar      1 <0>        -0.1380
      4 C3         -0.9729    0.6844   -0.0230 C.ar      1 <0>        -0.0415
      5 C4         -1.4914    1.9482    0.1711 C.ar      1 <0>        -0.0984
      6 C5         -0.6506    3.0465    0.2030 C.ar      1 <0>        -0.0351
      7 C6          0.7142    2.8845    0.0468 C.ar      1 <0>        -0.0625
      8 C7          1.2453    1.6248   -0.1419 C.ar      1 <0>        -0.0411
      9 C8          1.6231    4.0860    0.0832 C.3       1 <0>        -0.0998
     10 C9          1.7860    4.6454   -1.3315 C.3       1 <0>         0.1426
     11 H2          0.8142    4.9599   -1.7120 H         1 <0>         0.1101
     12 C10         2.7197    5.8278   -1.2998 C.2       1 <0>         0.5155
     13 O1          3.9041    5.6710   -1.5081 O.2       1 <0>        -0.5190
     14 N1          2.2385    7.0597   -1.0399 N.am      1 <0>        -0.6066
     15 C11         0.8262    7.2518   -0.6834 C.3       1 <0>         0.0990
     16 C12         0.7577    8.0317    0.6384 C.3       1 <0>        -0.1269
     17 C13         1.5528    9.3318    0.4987 C.3       1 <0>        -0.1500
     18 C14         3.0195    9.0061    0.2074 C.3       1 <0>        -0.1260
     19 C15         3.1149    8.2366   -1.1138 C.3       1 <0>         0.1111
     20 C16         1.4581   10.1185    1.7806 C.2       1 <0>         0.3455
     21 O2          0.9789   11.2269    1.7749 O.2       1 <0>        -0.4481
     22 N2          2.3404    3.6087   -2.2056 N.pl3     1 <0>        -1.1024
     23 S1          1.3291    2.6685   -3.1198 S.o2      1 <0>         2.6817
     24 O3          2.1577    1.7897   -3.8682 O.2       1 <0>        -0.9556
     25 O4          0.3123    2.1975   -2.2460 O.2       1 <0>        -0.9425
     26 C17         0.5406    3.7307   -4.2837 C.ar      1 <0>        -0.6833
     27 C18        -0.6682    4.3386   -3.9492 C.ar      1 <0>        -0.0565
     28 C19        -1.3005    5.1686   -4.8229 C.ar      1 <0>        -0.1091
     29 C20        -0.7346    5.4094   -6.0866 C.ar      1 <0>        -0.0103
     30 C21        -1.3616    6.2550   -7.0178 C.ar      1 <0>        -0.1212
     31 C22        -0.7841    6.4652   -8.2320 C.ar      1 <0>        -0.0852
     32 C23         0.4220    5.8530   -8.5685 C.ar      1 <0>        -0.1145
     33 C24         1.0574    5.0278   -7.6925 C.ar      1 <0>        -0.0924
     34 C25         0.4917    4.7870   -6.4288 C.ar      1 <0>        -0.0791
     35 C26         1.1182    3.9408   -5.4979 C.ar      1 <0>         0.0257
     36 N3          0.1316   -1.9361   -0.4105 N.pl3     1 <0>        -0.7822
     37 H3         -1.6308   -0.1717   -0.0524 H         1 <0>         0.1297
     38 H4         -2.5561    2.0808    0.2940 H         1 <0>         0.1414
     39 H5         -1.0615    4.0343    0.3507 H         1 <0>         0.1372
     40 H6          2.3111    1.4995   -0.2629 H         1 <0>         0.1228
     41 H7          1.1894    4.8502    0.7283 H         1 <0>         0.1040
     42 H8          2.5980    3.7925    0.4724 H         1 <0>         0.0993
     43 H9          0.3242    7.8154   -1.4698 H         1 <0>         0.0819
     44 H10         0.3446    6.2815   -0.5622 H         1 <0>         0.0884
     45 H11         1.1831    7.4296    1.4413 H         1 <0>         0.0810
     46 H12        -0.2820    8.2640    0.8689 H         1 <0>         0.0873
     47 H13         1.1767    9.8734   -0.2532 H         1 <0>         0.0881
     48 H14         3.4235    8.3948    1.0144 H         1 <0>         0.0795
     49 H15         3.5901    9.9317    0.1314 H         1 <0>         0.0860
     50 H16         4.1440    7.9163   -1.2766 H         1 <0>         0.1025
     51 H17         2.7958    8.8789   -1.9345 H         1 <0>         0.0760
     52 H18         1.8190    9.6909    2.7044 H         1 <0>         0.0987
     53 H19         3.2999    3.4730   -2.2490 H         1 <0>         0.4298
     54 H20        -1.1076    4.1514   -2.9805 H         1 <0>         0.1375
     55 H21        -2.2348    5.6356   -4.5486 H         1 <0>         0.1384
     56 H22        -2.2965    6.7361   -6.7707 H         1 <0>         0.1359
     57 H23        -1.2677    7.1157   -8.9457 H         1 <0>         0.1334
     58 H24         0.8587    6.0361   -9.5392 H         1 <0>         0.1335
     59 H25         1.9913    4.5601   -7.9673 H         1 <0>         0.1355
     60 H26         2.0529    3.4595   -5.7449 H         1 <0>         0.1437
     61 H27        -0.8251   -1.8202   -0.3008 H         1 <0>         0.4427
     62 H28         0.5008   -2.8232   -0.5431 H         1 <0>         0.4297
     63 N4          2.2796   -0.9313   -0.5211 N.pl3     1 <0>        -0.7649
     64 H29         2.8593   -0.0844   -0.4893 H         1 <0>         0.4571
@<TRIPOS>BOND
     1    1   63 1
     2    2    3 1
     3    2   36 1
     4    2   63 2
     5    3    8 ar
     6    3    4 ar
     7    4    5 ar
     8    4   37 1
     9    5    6 ar
    10    5   38 1
    11    6    7 ar
    12    6   39 1
    13    7    8 ar
    14    7    9 1
    15    8   40 1
    16    9   10 1
    17    9   41 1
    18    9   42 1
    19   10   11 1
    20   10   12 1
    21   10   22 1
    22   12   13 2
    23   12   14 am
    24   14   19 1
    25   14   15 1
    26   15   16 1
    27   15   43 1
    28   15   44 1
    29   16   17 1
    30   16   45 1
    31   16   46 1
    32   17   18 1
    33   17   20 1
    34   17   47 1
    35   18   19 1
    36   18   48 1
    37   18   49 1
    38   19   50 1
    39   19   51 1
    40   20   21 2
    41   20   52 1
    42   22   23 1
    43   22   53 1
    44   23   24 2
    45   23   25 2
    46   23   26 1
    47   26   35 ar
    48   26   27 ar
    49   27   28 ar
    50   27   54 1
    51   28   29 ar
    52   28   55 1
    53   29   34 ar
    54   29   30 ar
    55   30   31 ar
    56   30   56 1
    57   31   32 ar
    58   31   57 1
    59   32   33 ar
    60   32   58 1
    61   33   34 ar
    62   33   59 1
    63   34   35 ar
    64   35   60 1
    65   36   61 1
    66   36   62 1
    67   63   64 1
@<TRIPOS>MOLECULE
ZINC03834178
   64    67     0     0     0
SMALL
USER_CHARGES

@<TRIPOS>ATOM
      1 H1          1.3528    2.7958   -6.1256 H         1 <0>         0.4440
      2 C1          2.5143    1.3450   -5.2948 C.cat     1 <0>         0.6004
      3 C2          2.8729    0.7176   -4.0022 C.ar      1 <0>        -0.1569
      4 C3          3.7961   -0.3271   -3.9632 C.ar      1 <0>        -0.0587
      5 C4          4.1265   -0.9074   -2.7558 C.ar      1 <0>        -0.1051
      6 C5          3.5482   -0.4510   -1.5846 C.ar      1 <0>        -0.0438
      7 C6          2.6279    0.5811   -1.6175 C.ar      1 <0>        -0.0655
      8 C7          2.2893    1.1694   -2.8191 C.ar      1 <0>        -0.0603
      9 C8          1.9981    1.0680   -0.3380 C.3       1 <0>        -0.0894
     10 C9          0.7141    0.2805   -0.0695 C.3       1 <0>         0.1356
     11 H2          0.9378   -0.7862   -0.0584 H         1 <0>         0.1187
     12 C10         0.1444    0.6882    1.2648 C.2       1 <0>         0.4898
     13 O1         -0.6913    1.5650    1.3249 O.2       1 <0>        -0.5197
     14 N1          0.5637    0.0785    2.3913 N.am      1 <0>        -0.5985
     15 C11         1.6482   -0.9118    2.3472 C.3       1 <0>         0.0970
     16 C12         2.7299   -0.4969    3.3561 C.3       1 <0>        -0.1323
     17 C13         2.0923   -0.3246    4.7367 C.3       1 <0>        -0.0999
     18 C14         1.0379    0.7831    4.6788 C.3       1 <0>        -0.1390
     19 H3          1.5040    1.7132    4.3540 H         1 <0>         0.0710
     20 C15        -0.0591    0.3868    3.6857 C.3       1 <0>         0.1358
     21 C16         0.4335    0.9740    6.0461 C.2       1 <0>         0.4673
     22 O2         -0.7523    0.8105    6.2106 O.co2     1 <0>        -0.6361
     23 N2         -0.2621    0.5638   -1.1244 N.pl3     1 <0>        -1.0967
     24 S1         -1.2890   -0.6270   -1.6439 S.o2      1 <0>         2.6910
     25 O3         -2.1191   -0.0422   -2.6379 O.2       1 <0>        -0.9597
     26 O4         -0.4873   -1.7722   -1.8980 O.2       1 <0>        -0.9527
     27 C17        -2.3384   -1.0373   -0.2892 C.ar      1 <0>        -0.6779
     28 C18        -1.9551   -2.0437    0.5956 C.ar      1 <0>        -0.0535
     29 C19        -2.7402   -2.3821    1.6546 C.ar      1 <0>        -0.1042
     30 C20        -3.9609   -1.7155    1.8561 C.ar      1 <0>        -0.0054
     31 C21        -4.8005   -2.0408    2.9351 C.ar      1 <0>        -0.1147
     32 C22        -5.9758   -1.3743    3.0986 C.ar      1 <0>        -0.0893
     33 C23        -6.3613   -0.3712    2.2110 C.ar      1 <0>        -0.1171
     34 C24        -5.5743   -0.0301    1.1544 C.ar      1 <0>        -0.0923
     35 C25        -4.3532   -0.6960    0.9533 C.ar      1 <0>        -0.0759
     36 C26        -3.5136   -0.3707   -0.1258 C.ar      1 <0>         0.0334
     37 N3          3.0926    0.8965   -6.4622 N.pl3     1 <0>        -0.7819
     38 H4          4.2516   -0.6810   -4.8762 H         1 <0>         0.1373
     39 H5          4.8415   -1.7162   -2.7243 H         1 <0>         0.1507
     40 H6          3.8133   -0.9053   -0.6413 H         1 <0>         0.1501
     41 H7          1.5736    1.9778   -2.8431 H         1 <0>         0.1339
     42 H8          1.7616    2.1281   -0.4298 H         1 <0>         0.1022
     43 H9          2.6938    0.9213    0.4883 H         1 <0>         0.1112
     44 H10         1.2568   -1.8944    2.6104 H         1 <0>         0.0760
     45 H11         2.0745   -0.9426    1.3445 H         1 <0>         0.0736
     46 H12         3.1805    0.4450    3.0435 H         1 <0>         0.0652
     47 H13         3.4975   -1.2693    3.4037 H         1 <0>         0.0747
     48 H14         2.8615   -0.0563    5.4610 H         1 <0>         0.0763
     49 H15         1.6204   -1.2599    5.0378 H         1 <0>         0.0591
     50 H16        -0.7599    1.2132    3.5664 H         1 <0>         0.0911
     51 H17        -0.5891   -0.4913    4.0546 H         1 <0>         0.0736
     52 H18        -0.3070    1.4490   -1.5187 H         1 <0>         0.4186
     53 H19        -1.0194   -2.5602    0.4406 H         1 <0>         0.1329
     54 H20        -2.4284   -3.1612    2.3343 H         1 <0>         0.1369
     55 H21        -4.5145   -2.8153    3.6313 H         1 <0>         0.1349
     56 H22        -6.6192   -1.6262    3.9286 H         1 <0>         0.1306
     57 H23        -7.2988    0.1428    2.3639 H         1 <0>         0.1294
     58 H24        -5.8861    0.7491    0.4746 H         1 <0>         0.1318
     59 H25        -3.7996    0.4038   -0.8220 H         1 <0>         0.1414
     60 H26         3.7347    0.1698   -6.4373 H         1 <0>         0.4426
     61 H27         2.8578    1.3073   -7.3088 H         1 <0>         0.4302
     62 N4          1.6321    2.3318   -5.2612 N.pl3     1 <0>        -0.7596
     63 H28         1.2292    2.6300   -4.3651 H         1 <0>         0.4604
     64 O5          1.2125    1.3260    7.0810 O.co2     1 <0>        -0.7626
@<TRIPOS>BOND
     1    1   62 1
     2    2    3 1
     3    2   37 1
     4    2   62 2
     5    3    8 ar
     6    3    4 ar
     7    4    5 ar
     8    4   38 1
     9    5    6 ar
    10    5   39 1
    11    6    7 ar
    12    6   40 1
    13    7    8 ar
    14    7    9 1
    15    8   41 1
    16    9   10 1
    17    9   42 1
    18    9   43 1
    19   10   11 1
    20   10   12 1
    21   10   23 1
    22   12   13 2
    23   12   14 am
    24   14   20 1
    25   14   15 1
    26   15   16 1
    27   15   44 1
    28   15   45 1
    29   16   17 1
    30   16   46 1
    31   16   47 1
    32   17   18 1
    33   17   48 1
    34   17   49 1
    35   18   19 1
    36   18   20 1
    37   18   21 1
    38   20   50 1
    39   20   51 1
    40   21   22 2
    41   21   64 1
    42   23   24 1
    43   23   52 1
    44   24   25 2
    45   24   26 2
    46   24   27 1
    47   27   36 ar
    48   27   28 ar
    49   28   29 ar
    50   28   53 1
    51   29   30 ar
    52   29   54 1
    53   30   35 ar
    54   30   31 ar
    55   31   32 ar
    56   31   55 1
    57   32   33 ar
    58   32   56 1
    59   33   34 ar
    60   33   57 1
    61   34   35 ar
    62   34   58 1
    63   35   36 ar
    64   36   59 1
    65   37   60 1
    66   37   61 1
    67   62   63 1
@<TRIPOS>MOLECULE
ZINC03834179
   81    85     0     0     0
SMALL
USER_CHARGES

@<TRIPOS>ATOM
      1 H1          2.6084   -1.7259   -0.0275 H         1 <0>         0.4435
      2 C1          0.8445   -0.7092   -0.0205 C.cat     1 <0>         0.5961
      3 C2          0.2701    0.6556   -0.0157 C.ar      1 <0>        -0.1381
      4 C3         -1.1134    0.8330   -0.0175 C.ar      1 <0>        -0.0415
      5 C4         -1.6426    2.1071   -0.0072 C.ar      1 <0>        -0.0982
      6 C5         -0.8040    3.2076   -0.0072 C.ar      1 <0>        -0.0349
      7 C6          0.5688    3.0381   -0.0111 C.ar      1 <0>        -0.0623
      8 C7          1.1101    1.7686   -0.0152 C.ar      1 <0>        -0.0415
      9 C8          1.4752    4.2420   -0.0107 C.3       1 <0>        -0.1021
     10 C9          1.7786    4.6526   -1.4529 C.3       1 <0>         0.1424
     11 H2          0.8505    4.9221   -1.9570 H         1 <0>         0.1114
     12 C10         2.7119    5.8358   -1.4526 C.2       1 <0>         0.5152
     13 O1          3.8942    5.6756   -1.6704 O.2       1 <0>        -0.5176
     14 N1          2.2328    7.0720   -1.2104 N.am      1 <0>        -0.6077
     15 C11         0.8269    7.2691   -0.8318 C.3       1 <0>         0.0997
     16 C12         0.1957    8.2903   -1.7764 C.3       1 <0>        -0.1310
     17 C13         1.0333    9.5710   -1.7730 C.3       1 <0>        -0.0796
     18 C14         2.4468    9.2596   -2.2702 C.3       1 <0>        -0.1219
     19 C15         3.1049    8.2488   -1.3257 C.3       1 <0>         0.1125
     20 C16         0.3951   10.5906   -2.6808 C.2       1 <0>         0.4626
     21 O2          1.0076   11.0236   -3.6280 O.2       1 <0>        -0.4996
     22 O3         -0.8539   11.0177   -2.4370 O.3       1 <0>        -0.3521
     23 C17        -1.4050   12.0004   -3.3529 C.3       1 <0>         0.0904
     24 C18        -1.0747   13.4074   -2.8505 C.3       1 <0>        -0.1351
     25 C19        -1.6554   14.4430   -3.8156 C.3       1 <0>        -0.1176
     26 C20        -3.1739   14.2726   -3.8931 C.3       1 <0>        -0.1254
     27 C21        -3.5042   12.8656   -4.3956 C.3       1 <0>        -0.1179
     28 C22        -2.9235   11.8301   -3.4305 C.3       1 <0>        -0.1139
     29 N2          2.4093    3.5333   -2.1570 N.pl3     1 <0>        -1.1016
     30 S1          1.4862    2.4995   -3.0632 S.o2      1 <0>         2.6817
     31 O4          2.3786    1.5512   -3.6325 O.2       1 <0>        -0.9558
     32 O5          0.3863    2.1171   -2.2488 O.2       1 <0>        -0.9428
     33 C23         0.8214    3.4323   -4.4021 C.ar      1 <0>        -0.6834
     34 C24        -0.4106    4.0665   -4.2518 C.ar      1 <0>        -0.0561
     35 C25        -0.9496    4.7991   -5.2641 C.ar      1 <0>        -0.1095
     36 C26        -0.2619    4.9101   -6.4846 C.ar      1 <0>        -0.0099
     37 C27        -0.7899    5.6523   -7.5549 C.ar      1 <0>        -0.1214
     38 C28        -0.0955    5.7380   -8.7223 C.ar      1 <0>        -0.0850
     39 C29         1.1339    5.0993   -8.8744 C.ar      1 <0>        -0.1145
     40 C30         1.6759    4.3718   -7.8600 C.ar      1 <0>        -0.0920
     41 C31         0.9882    4.2608   -6.6394 C.ar      1 <0>        -0.0788
     42 C32         1.5159    3.5180   -5.5693 C.ar      1 <0>         0.0265
     43 N3          0.0119   -1.8072   -0.0210 N.pl3     1 <0>        -0.7823
     44 H3         -1.7690   -0.0252   -0.0223 H         1 <0>         0.1297
     45 H4         -2.7136    2.2458   -0.0038 H         1 <0>         0.1415
     46 H5         -1.2229    4.2030   -0.0037 H         1 <0>         0.1376
     47 H6          2.1821    1.6374   -0.0176 H         1 <0>         0.1228
     48 H7          0.9838    5.0665    0.5061 H         1 <0>         0.1053
     49 H8          2.4059    3.9959    0.5005 H         1 <0>         0.0990
     50 H9          0.2916    6.3226   -0.9087 H         1 <0>         0.0894
     51 H10         0.7725    7.6398    0.1917 H         1 <0>         0.0882
     52 H11        -0.8175    8.5172   -1.4445 H         1 <0>         0.0983
     53 H12         0.1647    7.8786   -2.7853 H         1 <0>         0.0757
     54 H13         1.0844    9.9687   -0.7593 H         1 <0>         0.1150
     55 H14         3.0360   10.1764   -2.2896 H         1 <0>         0.0921
     56 H15         2.3947    8.8387   -3.2743 H         1 <0>         0.0782
     57 H16         3.2402    8.7011   -0.3432 H         1 <0>         0.0797
     58 H17         4.0723    7.9486   -1.7284 H         1 <0>         0.1030
     59 H18        -0.9723   11.8573   -4.3429 H         1 <0>         0.0846
     60 H19        -1.5074   13.5506   -1.8604 H         1 <0>         0.0740
     61 H20         0.0071   13.5287   -2.7952 H         1 <0>         0.0670
     62 H21        -1.2226   14.2997   -4.8057 H         1 <0>         0.0656
     63 H22        -1.4200   15.4453   -3.4576 H         1 <0>         0.0718
     64 H23        -3.5876   15.0103   -4.5807 H         1 <0>         0.0690
     65 H24        -3.6067   14.4157   -2.9030 H         1 <0>         0.0665
     66 H25        -3.0714   12.7225   -5.3857 H         1 <0>         0.0654
     67 H26        -4.5861   12.7443   -4.4509 H         1 <0>         0.0741
     68 H27        -3.1588   10.8278   -3.7884 H         1 <0>         0.0697
     69 H28        -3.3563   11.9733   -2.4404 H         1 <0>         0.0760
     70 H29         3.3676    3.3977   -2.0921 H         1 <0>         0.4299
     71 H30        -0.9434    3.9788   -3.3165 H         1 <0>         0.1374
     72 H31        -1.9034    5.2882   -5.1320 H         1 <0>         0.1377
     73 H32        -1.7414    6.1525   -7.4514 H         1 <0>         0.1352
     74 H33        -0.5034    6.3092   -9.5431 H         1 <0>         0.1331
     75 H34         1.6642    5.1827   -9.8116 H         1 <0>         0.1335
     76 H35         2.6292    3.8820   -7.9925 H         1 <0>         0.1356
     77 H36         2.4673    3.0175   -5.6728 H         1 <0>         0.1437
     78 H37        -0.9504   -1.6860   -0.0181 H         1 <0>         0.4426
     79 H38         0.3882   -2.7011   -0.0241 H         1 <0>         0.4297
     80 N4          2.1650   -0.8071   -0.0242 N.pl3     1 <0>        -0.7650
     81 H39         2.7427    0.0417   -0.0236 H         1 <0>         0.4571
@<TRIPOS>BOND
     1    1   80 1
     2    2    3 1
     3    2   43 1
     4    2   80 2
     5    3    8 ar
     6    3    4 ar
     7    4    5 ar
     8    4   44 1
     9    5    6 ar
    10    5   45 1
    11    6    7 ar
    12    6   46 1
    13    7    8 ar
    14    7    9 1
    15    8   47 1
    16    9   10 1
    17    9   48 1
    18    9   49 1
    19   10   11 1
    20   10   12 1
    21   10   29 1
    22   12   13 2
    23   12   14 am
    24   14   19 1
    25   14   15 1
    26   15   16 1
    27   15   50 1
    28   15   51 1
    29   16   17 1
    30   16   52 1
    31   16   53 1
    32   17   18 1
    33   17   20 1
    34   17   54 1
    35   18   19 1
    36   18   55 1
    37   18   56 1
    38   19   57 1
    39   19   58 1
    40   20   21 2
    41   20   22 1
    42   22   23 1
    43   23   28 1
    44   23   24 1
    45   23   59 1
    46   24   25 1
    47   24   60 1
    48   24   61 1
    49   25   26 1
    50   25   62 1
    51   25   63 1
    52   26   27 1
    53   26   64 1
    54   26   65 1
    55   27   28 1
    56   27   66 1
    57   27   67 1
    58   28   68 1
    59   28   69 1
    60   29   30 1
    61   29   70 1
    62   30   31 2
    63   30   32 2
    64   30   33 1
    65   33   42 ar
    66   33   34 ar
    67   34   35 ar
    68   34   71 1
    69   35   36 ar
    70   35   72 1
    71   36   41 ar
    72   36   37 ar
    73   37   38 ar
    74   37   73 1
    75   38   39 ar
    76   38   74 1
    77   39   40 ar
    78   39   75 1
    79   40   41 ar
    80   40   76 1
    81   41   42 ar
    82   42   77 1
    83   43   78 1
    84   43   79 1
    85   80   81 1
@<TRIPOS>MOLECULE
ZINC03834180
   78    82     0     0     0
SMALL
USER_CHARGES

@<TRIPOS>ATOM
      1 H1          2.7153   -1.8426   -0.6632 H         1 <0>         0.4458
      2 C1          0.9665   -0.8404   -0.3778 C.cat     1 <0>         0.5944
      3 C2          0.4030    0.5140   -0.1753 C.ar      1 <0>        -0.1332
      4 C3         -0.9729    0.6844   -0.0230 C.ar      1 <0>        -0.0384
      5 C4         -1.4914    1.9482    0.1711 C.ar      1 <0>        -0.0972
      6 C5         -0.6506    3.0465    0.2030 C.ar      1 <0>        -0.0384
      7 C6          0.7142    2.8845    0.0468 C.ar      1 <0>        -0.0688
      8 C7          1.2453    1.6248   -0.1419 C.ar      1 <0>        -0.0411
      9 C8          1.6231    4.0860    0.0832 C.3       1 <0>        -0.0960
     10 C9          1.7860    4.6454   -1.3315 C.3       1 <0>         0.1429
     11 H2          0.8142    4.9599   -1.7120 H         1 <0>         0.1109
     12 C10         2.7197    5.8278   -1.2998 C.2       1 <0>         0.5188
     13 O1          3.9041    5.6710   -1.5081 O.2       1 <0>        -0.5023
     14 N1          2.2385    7.0597   -1.0399 N.am      1 <0>        -0.6178
     15 C11         0.8262    7.2518   -0.6834 C.3       1 <0>         0.1025
     16 C12         0.7577    8.0317    0.6384 C.3       1 <0>        -0.1563
     17 C13         1.5528    9.3318    0.4987 C.3       1 <0>         0.0286
     18 C14         3.0195    9.0061    0.2074 C.3       1 <0>        -0.1585
     19 C15         3.1149    8.2366   -1.1138 C.3       1 <0>         0.1144
     20 C16         1.9889    9.3261    2.8799 C.3       1 <0>        -0.0086
     21 C17         2.0118   10.2049    4.1327 C.3       1 <0>        -0.1472
     22 C18         0.5908   10.6864    4.4384 C.3       1 <0>        -0.1388
     23 C19         0.0459   11.4462    3.2258 C.3       1 <0>        -0.1480
     24 C20         0.0800   10.5315    1.9993 C.3       1 <0>        -0.0037
     25 N2          2.3404    3.6087   -2.2056 N.pl3     1 <0>        -1.1042
     26 S1          1.3291    2.6685   -3.1198 S.o2      1 <0>         2.6800
     27 O2          2.1577    1.7897   -3.8682 O.2       1 <0>        -0.9500
     28 O3          0.3123    2.1975   -2.2460 O.2       1 <0>        -0.9409
     29 C21         0.5406    3.7307   -4.2837 C.ar      1 <0>        -0.6860
     30 C22        -0.6682    4.3386   -3.9492 C.ar      1 <0>        -0.0595
     31 C23        -1.3005    5.1686   -4.8229 C.ar      1 <0>        -0.1092
     32 C24        -0.7346    5.4094   -6.0866 C.ar      1 <0>        -0.0106
     33 C25        -1.3616    6.2550   -7.0178 C.ar      1 <0>        -0.1236
     34 C26        -0.7841    6.4652   -8.2320 C.ar      1 <0>        -0.0816
     35 C27         0.4220    5.8530   -8.5685 C.ar      1 <0>        -0.1121
     36 C28         1.0574    5.0278   -7.6925 C.ar      1 <0>        -0.0923
     37 C29         0.4917    4.7870   -6.4288 C.ar      1 <0>        -0.0792
     38 C30         1.1182    3.9408   -5.4979 C.ar      1 <0>         0.0284
     39 N3          0.1316   -1.9361   -0.4105 N.pl3     1 <0>        -0.7789
     40 H3         -1.6308   -0.1717   -0.0524 H         1 <0>         0.1323
     41 H4         -2.5561    2.0808    0.2940 H         1 <0>         0.1424
     42 H5         -1.0615    4.0343    0.3507 H         1 <0>         0.1333
     43 H6          2.3111    1.4995   -0.2629 H         1 <0>         0.1232
     44 H7          1.1894    4.8502    0.7283 H         1 <0>         0.0970
     45 H8          2.5980    3.7925    0.4724 H         1 <0>         0.0993
     46 H9          0.3242    7.8154   -1.4698 H         1 <0>         0.0918
     47 H10         0.3446    6.2815   -0.5622 H         1 <0>         0.1037
     48 H11         1.1831    7.4296    1.4413 H         1 <0>         0.0950
     49 H12        -0.2820    8.2640    0.8689 H         1 <0>         0.1048
     50 H13         1.1423    9.9222   -0.3206 H         1 <0>         0.1403
     51 H14         3.4235    8.3948    1.0144 H         1 <0>         0.0945
     52 H15         3.5897    9.9319    0.1312 H         1 <0>         0.1045
     53 H16         4.1440    7.9163   -1.2766 H         1 <0>         0.1162
     54 H17         2.7958    8.8789   -1.9345 H         1 <0>         0.0862
     55 H18         1.3527    8.4588    3.0562 H         1 <0>         0.1287
     56 H19         3.0013    8.9933    2.6512 H         1 <0>         0.1279
     57 H20         2.6588   11.0653    3.9619 H         1 <0>         0.0886
     58 H21         2.3896    9.6271    4.9762 H         1 <0>         0.1119
     59 H22         0.6088   11.3477    5.3046 H         1 <0>         0.0958
     60 H23        -0.0477    9.8281    4.6474 H         1 <0>         0.0808
     61 H24         0.6619   12.3261    3.0408 H         1 <0>         0.0887
     62 H25        -0.9811   11.7553    3.4207 H         1 <0>         0.1134
     63 H26        -0.2941   11.0741    1.1312 H         1 <0>         0.1287
     64 H27        -0.5473    9.6586    2.1799 H         1 <0>         0.1292
     65 H28         3.2999    3.4730   -2.2490 H         1 <0>         0.4308
     66 H29        -1.1076    4.1514   -2.9805 H         1 <0>         0.1359
     67 H30        -2.2348    5.6356   -4.5486 H         1 <0>         0.1375
     68 H31        -2.2965    6.7361   -6.7707 H         1 <0>         0.1361
     69 H32        -1.2677    7.1157   -8.9457 H         1 <0>         0.1351
     70 H33         0.8587    6.0361   -9.5392 H         1 <0>         0.1356
     71 H34         1.9913    4.5601   -7.9673 H         1 <0>         0.1368
     72 H35         2.0529    3.4595   -5.7449 H         1 <0>         0.1443
     73 H36        -0.8251   -1.8202   -0.3008 H         1 <0>         0.4433
     74 H37         0.5008   -2.8232   -0.5431 H         1 <0>         0.4319
     75 N4          2.2796   -0.9313   -0.5211 N.pl3     1 <0>        -0.7639
     76 H38         2.8593   -0.0844   -0.4893 H         1 <0>         0.4560
     77 N5          1.4778   10.1228    1.7443 N.4       1 <0>        -0.3917
     78 H39         2.0571   10.9642    1.6404 H         1 <0>         0.4296
@<TRIPOS>BOND
     1    1   75 1
     2    2    3 1
     3    2   39 1
     4    2   75 2
     5    3    8 ar
     6    3    4 ar
     7    4    5 ar
     8    4   40 1
     9    5    6 ar
    10    5   41 1
    11    6    7 ar
    12    6   42 1
    13    7    8 ar
    14    7    9 1
    15    8   43 1
    16    9   10 1
    17    9   44 1
    18    9   45 1
    19   10   11 1
    20   10   12 1
    21   10   25 1
    22   12   13 2
    23   12   14 am
    24   14   19 1
    25   14   15 1
    26   15   16 1
    27   15   46 1
    28   15   47 1
    29   16   17 1
    30   16   48 1
    31   16   49 1
    32   17   18 1
    33   17   50 1
    34   17   77 1
    35   18   19 1
    36   18   51 1
    37   18   52 1
    38   19   53 1
    39   19   54 1
    40   20   21 1
    41   20   55 1
    42   20   56 1
    43   20   77 1
    44   21   22 1
    45   21   57 1
    46   21   58 1
    47   22   23 1
    48   22   59 1
    49   22   60 1
    50   23   24 1
    51   23   61 1
    52   23   62 1
    53   24   63 1
    54   24   64 1
    55   24   77 1
    56   25   26 1
    57   25   65 1
    58   26   27 2
    59   26   28 2
    60   26   29 1
    61   29   38 ar
    62   29   30 ar
    63   30   31 ar
    64   30   66 1
    65   31   32 ar
    66   31   67 1
    67   32   37 ar
    68   32   33 ar
    69   33   34 ar
    70   33   68 1
    71   34   35 ar
    72   34   69 1
    73   35   36 ar
    74   35   70 1
    75   36   37 ar
    76   36   71 1
    77   37   38 ar
    78   38   72 1
    79   39   73 1
    80   39   74 1
    81   75   76 1
    82   77   78 1
@<TRIPOS>MOLECULE
ZINC03834181
   73    74     0     0     0
SMALL
USER_CHARGES

@<TRIPOS>ATOM
      1 H1         -6.7760   -0.5241   -0.7952 H         1 <0>         0.4447
      2 C1         -5.1740   -0.3798    0.4526 C.cat     1 <0>         0.6012
      3 C2         -3.7086   -0.1671    0.4703 C.ar      1 <0>        -0.1516
      4 C3         -3.0176   -0.1537    1.6819 C.ar      1 <0>        -0.0557
      5 C4         -1.6524    0.0449    1.6921 C.ar      1 <0>        -0.1070
      6 C5         -0.9687    0.2305    0.5036 C.ar      1 <0>        -0.0466
      7 C6         -1.6482    0.2176   -0.7011 C.ar      1 <0>        -0.0728
      8 C7         -3.0139    0.0199   -0.7241 C.ar      1 <0>        -0.0588
      9 C8         -0.8957    0.4195   -1.9910 C.3       1 <0>        -0.0879
     10 C9         -0.4337   -0.9361   -2.5294 C.3       1 <0>         0.1382
     11 H2         -1.2925   -1.6003   -2.6266 H         1 <0>         0.1184
     12 C10         0.2107   -0.7475   -3.8786 C.2       1 <0>         0.4862
     13 O1          1.3665   -1.0727   -4.0494 O.2       1 <0>        -0.4945
     14 N1         -0.4975   -0.2175   -4.8955 N.am      1 <0>        -0.7311
     15 C11         0.1289   -0.0342   -6.2070 C.3       1 <0>         0.0861
     16 N2          0.5365   -1.5246   -1.6028 N.pl3     1 <0>        -1.0972
     17 S1          0.5738   -3.1643   -1.3743 S.o2      1 <0>         2.6859
     18 O2          1.6242   -3.4221   -0.4526 O.2       1 <0>        -0.9440
     19 O3         -0.7665   -3.5716   -1.1354 O.2       1 <0>        -0.9522
     20 C12         1.0563   -3.8928   -2.9044 C.ar      1 <0>        -0.6772
     21 C13         2.3922   -3.9404   -3.2563 C.ar      1 <0>         0.0635
     22 C14         2.7711   -4.5159   -4.4547 C.ar      1 <0>        -0.1354
     23 C15         1.8133   -5.0351   -5.3056 C.ar      1 <0>        -0.0037
     24 C16         0.4769   -4.9830   -4.9557 C.ar      1 <0>        -0.1484
     25 C17         0.0984   -4.4115   -3.7554 C.ar      1 <0>         0.0266
     26 C18        -1.3585   -4.3544   -3.3743 C.3       1 <0>        -0.0868
     27 C19        -2.2130   -4.2519   -4.6393 C.3       1 <0>        -0.1506
     28 C20        -1.7348   -5.6229   -2.6061 C.3       1 <0>        -0.1292
     29 C21         2.2260   -5.6582   -6.6141 C.3       1 <0>        -0.0658
     30 C22         2.9529   -4.6172   -7.4679 C.3       1 <0>        -0.1435
     31 C23         3.1605   -6.8392   -6.3445 C.3       1 <0>        -0.1468
     32 C24         3.4360   -3.3694   -2.3314 C.3       1 <0>        -0.0928
     33 C25         4.2877   -4.5049   -1.7604 C.3       1 <0>        -0.1375
     34 C26         4.3310   -2.4014   -3.1080 C.3       1 <0>        -0.1466
     35 N3         -5.8578   -0.5644    1.6344 N.pl3     1 <0>        -0.7792
     36 H3         -3.5503   -0.2987    2.6102 H         1 <0>         0.1392
     37 H4         -1.1157    0.0511    2.6292 H         1 <0>         0.1515
     38 H5          0.1001    0.3856    0.5166 H         1 <0>         0.1458
     39 H6         -3.5434    0.0105   -1.6653 H         1 <0>         0.1364
     40 H7         -1.5485    0.8972   -2.7215 H         1 <0>         0.1023
     41 H8         -0.0277    1.0536   -1.8100 H         1 <0>         0.1045
     42 H9         -1.4219    0.0426   -4.7589 H         1 <0>         0.3979
     43 H10         0.4581   -1.0000   -6.5907 H         1 <0>         0.0626
     44 H11        -0.5929    0.4037   -6.8965 H         1 <0>         0.0779
     45 H12         0.9877    0.6300   -6.1099 H         1 <0>         0.0638
     46 H13         1.1570   -0.9538   -1.1232 H         1 <0>         0.4230
     47 H14         3.8153   -4.5569   -4.7279 H         1 <0>         0.1284
     48 H15        -0.2714   -5.3887   -5.6205 H         1 <0>         0.1290
     49 H16        -1.5354   -3.4824   -2.7447 H         1 <0>         0.1058
     50 H17        -2.0360   -5.1239   -5.2690 H         1 <0>         0.0617
     51 H18        -3.2667   -4.2105   -4.3637 H         1 <0>         0.0599
     52 H19        -1.9449   -3.3481   -5.1866 H         1 <0>         0.0540
     53 H20        -1.1262   -5.6959   -1.7049 H         1 <0>         0.0620
     54 H21        -2.7886   -5.5816   -2.3305 H         1 <0>         0.0597
     55 H22        -1.5579   -6.4949   -3.2358 H         1 <0>         0.0510
     56 H23         1.3407   -6.0090   -7.1447 H         1 <0>         0.0808
     57 H24         3.8381   -4.2662   -6.9374 H         1 <0>         0.0588
     58 H25         3.2514   -5.0679   -8.4144 H         1 <0>         0.0631
     59 H26         2.2871   -3.7758   -7.6601 H         1 <0>         0.0554
     60 H27         2.6426   -7.5808   -5.7363 H         1 <0>         0.0574
     61 H28         3.4589   -7.2899   -7.2910 H         1 <0>         0.0641
     62 H29         4.0456   -6.4882   -5.8139 H         1 <0>         0.0592
     63 H30         2.9465   -2.8369   -1.5159 H         1 <0>         0.1008
     64 H31         4.7771   -5.0374   -2.5759 H         1 <0>         0.0540
     65 H32         5.0426   -4.0919   -1.0914 H         1 <0>         0.0644
     66 H33         3.6501   -5.1945   -1.2072 H         1 <0>         0.0594
     67 H34         4.8204   -2.9340   -3.9234 H         1 <0>         0.0544
     68 H35         3.7242   -1.5924   -3.5147 H         1 <0>         0.0702
     69 H36         5.0858   -1.9884   -2.4389 H         1 <0>         0.0595
     70 H37        -5.3792   -0.5551    2.4781 H         1 <0>         0.4434
     71 H38        -6.8176   -0.7036    1.6227 H         1 <0>         0.4317
     72 N4         -5.7680   -0.3816   -0.7308 N.pl3     1 <0>        -0.7601
     73 H39        -5.2141   -0.2395   -1.5835 H         1 <0>         0.4588
@<TRIPOS>BOND
     1    1   72 1
     2    2    3 1
     3    2   35 1
     4    2   72 2
     5    3    8 ar
     6    3    4 ar
     7    4    5 ar
     8    4   36 1
     9    5    6 ar
    10    5   37 1
    11    6    7 ar
    12    6   38 1
    13    7    8 ar
    14    7    9 1
    15    8   39 1
    16    9   10 1
    17    9   40 1
    18    9   41 1
    19   10   11 1
    20   10   12 1
    21   10   16 1
    22   12   13 2
    23   12   14 am
    24   14   15 1
    25   14   42 1
    26   15   43 1
    27   15   44 1
    28   15   45 1
    29   16   17 1
    30   16   46 1
    31   17   18 2
    32   17   19 2
    33   17   20 1
    34   20   25 ar
    35   20   21 ar
    36   21   22 ar
    37   21   32 1
    38   22   23 ar
    39   22   47 1
    40   23   24 ar
    41   23   29 1
    42   24   25 ar
    43   24   48 1
    44   25   26 1
    45   26   27 1
    46   26   28 1
    47   26   49 1
    48   27   50 1
    49   27   51 1
    50   27   52 1
    51   28   53 1
    52   28   54 1
    53   28   55 1
    54   29   30 1
    55   29   31 1
    56   29   56 1
    57   30   57 1
    58   30   58 1
    59   30   59 1
    60   31   60 1
    61   31   61 1
    62   31   62 1
    63   32   33 1
    64   32   34 1
    65   32   63 1
    66   33   64 1
    67   33   65 1
    68   33   66 1
    69   34   67 1
    70   34   68 1
    71   34   69 1
    72   35   70 1
    73   35   71 1
    74   72   73 1
@<TRIPOS>MOLECULE
ZINC03834185
   21    21     0     0     0
SMALL
USER_CHARGES

@<TRIPOS>ATOM
      1 C1         -0.0126    1.0758    0.0080 C.ar      1 <0>        -0.0554
      2 C2         -1.2190    1.7506    0.0173 C.ar      1 <0>        -0.0876
      3 C3         -1.2377    3.1328    0.0299 C.ar      1 <0>        -0.0984
      4 C4         -0.0501    3.8402    0.0228 C.ar      1 <0>        -0.2165
      5 C5          1.1563    3.1654    0.0076 C.ar      1 <0>        -0.0985
      6 C6          1.1750    1.7832    0.0004 C.ar      1 <0>        -0.0875
      7 C7         -0.0705    5.3471    0.0311 C.3       1 <0>         0.2468
      8 H1          0.0021   -0.0041    0.0020 H         1 <0>         0.1537
      9 H2         -2.1469    1.1980    0.0187 H         1 <0>         0.1537
     10 H3         -2.1802    3.6600    0.0414 H         1 <0>         0.1321
     11 H4          2.0842    3.7181    0.0017 H         1 <0>         0.1319
     12 H5          2.1175    1.2560   -0.0115 H         1 <0>         0.1537
     13 H6         -0.0853    5.7159   -0.9945 H         1 <0>         0.2167
     14 H7         -1.3122    5.4353    1.6709 H         1 <0>         0.4539
     15 H8         -1.3066    6.8247    0.7569 H         1 <0>         0.4559
     16 H9          1.1711    6.8567    0.6775 H         1 <0>         0.4567
     17 H10         1.1656    5.5209    1.6683 H         1 <0>         0.4532
     18 N1         -1.2877    5.8068    0.7227 N.4       1 <0>        -0.6582
     19 H11        -2.1130    5.4735    0.2109 H         1 <0>         0.4764
     20 N2          1.1467    5.8386    0.7006 N.4       1 <0>        -0.6584
     21 H12         1.9721    5.4725    0.2117 H         1 <0>         0.4756
@<TRIPOS>BOND
     1    1    6 ar
     2    1    2 ar
     3    1    8 1
     4    2    3 ar
     5    2    9 1
     6    3    4 ar
     7    3   10 1
     8    4    5 ar
     9    4    7 1
    10    5    6 ar
    11    5   11 1
    12    6   12 1
    13    7   13 1
    14    7   18 1
    15    7   20 1
    16   14   18 1
    17   15   18 1
    18   16   20 1
    19   17   20 1
    20   18   19 1
    21   20   21 1
@<TRIPOS>MOLECULE
ZINC03834186
   62    64     0     0     0
SMALL
USER_CHARGES

@<TRIPOS>ATOM
      1 C1          1.7981   -3.7688    6.3788 C.3       1 <0>        -0.1330
      2 C2          2.8910   -3.2315    5.4912 C.ar      1 <0>        -0.0090
      3 C3          3.5511   -4.0766    4.6188 C.ar      1 <0>        -0.1357
      4 C4          4.5536   -3.5837    3.8046 C.ar      1 <0>         0.0008
      5 C5          4.8955   -2.2455    3.8622 C.ar      1 <0>        -0.6853
      6 C6          4.2387   -1.4014    4.7379 C.ar      1 <0>        -0.0210
      7 C7          3.2332   -1.8934    5.5490 C.ar      1 <0>        -0.1375
      8 S1          6.1733   -1.6173    2.8243 S.o2      1 <0>         2.6900
      9 O1          7.0057   -2.7200    2.4922 O.2       1 <0>        -0.9630
     10 O2          6.6741   -0.4487    3.4589 O.2       1 <0>        -0.9565
     11 N1          5.4597   -1.1215    1.4146 N.pl3     1 <0>        -1.0997
     12 C8          4.5124   -0.0041    1.4266 C.3       1 <0>         0.1368
     13 H1          4.7201    0.6391    2.2818 H         1 <0>         0.1231
     14 C9          4.6585    0.8024    0.1346 C.3       1 <0>        -0.0980
     15 C10         6.0216    1.4438    0.0943 C.ar      1 <0>        -0.0424
     16 C11         6.2070    2.7072    0.6245 C.ar      1 <0>        -0.0535
     17 C12         7.4582    3.2935    0.5919 C.ar      1 <0>        -0.0792
     18 C13         8.5220    2.6210    0.0196 C.ar      1 <0>        -0.0938
     19 C14         8.3355    1.3603   -0.5152 C.ar      1 <0>        -0.2083
     20 C15         7.0851    0.7716   -0.4778 C.ar      1 <0>        -0.0986
     21 C16         9.4950    0.6275   -1.1394 C.3       1 <0>         0.2457
     22 C17         3.1069   -0.5380    1.5292 C.2       1 <0>         0.4906
     23 O3          2.9022   -1.7294    1.4312 O.2       1 <0>        -0.5081
     24 N2          2.0774    0.3083    1.7300 N.am      1 <0>        -0.6028
     25 C18         2.3159    1.7459    1.9180 C.3       1 <0>         0.0972
     26 C19         1.6376    2.1925    3.2169 C.3       1 <0>        -0.1387
     27 C20         0.1587    1.8007    3.1762 C.3       1 <0>        -0.1241
     28 C21         0.0351    0.2794    3.0650 C.3       1 <0>        -0.1367
     29 C22         0.6953   -0.1889    1.7644 C.3       1 <0>         0.1098
     30 H2          2.2289   -4.1077    7.3210 H         1 <0>         0.0862
     31 H3          1.0694   -2.9822    6.5746 H         1 <0>         0.0766
     32 H4          1.3055   -4.6051    5.8829 H         1 <0>         0.0779
     33 H5          3.2837   -5.1220    4.5736 H         1 <0>         0.1367
     34 H6          5.0695   -4.2441    3.1233 H         1 <0>         0.1362
     35 H7          4.5088   -0.3568    4.7860 H         1 <0>         0.1316
     36 H8          2.7173   -1.2331    6.2304 H         1 <0>         0.1345
     37 H9          5.6689   -1.5710    0.5809 H         1 <0>         0.4151
     38 H10         4.5436    0.1390   -0.7226 H         1 <0>         0.1038
     39 H11         3.8916    1.5762    0.1006 H         1 <0>         0.1151
     40 H12         5.3750    3.2343    1.0676 H         1 <0>         0.1530
     41 H13         7.6038    4.2788    1.0094 H         1 <0>         0.1558
     42 H14         9.4987    3.0811   -0.0099 H         1 <0>         0.1344
     43 H15         6.9392   -0.2134   -0.8960 H         1 <0>         0.1301
     44 H16         9.5496    0.8707   -2.2005 H         1 <0>         0.2202
     45 H17        10.9305    2.0127   -0.6307 H         1 <0>         0.4750
     46 H18        10.7172    0.8178    0.5063 H         1 <0>         0.4554
     47 H19        10.0684   -1.3340   -1.3888 H         1 <0>         0.4574
     48 H20         9.1852   -1.0630   -0.0059 H         1 <0>         0.4550
     49 H21         1.8962    2.2989    1.0777 H         1 <0>         0.0808
     50 H22         3.3878    1.9331    1.9825 H         1 <0>         0.0765
     51 H23         1.7247    3.2741    3.3196 H         1 <0>         0.0826
     52 H24         2.1196    1.7060    4.0650 H         1 <0>         0.0692
     53 H25        -0.3319    2.1392    4.0888 H         1 <0>         0.0733
     54 H26        -0.3170    2.2677    2.3138 H         1 <0>         0.0689
     55 H27         0.5322   -0.1890    3.9145 H         1 <0>         0.0675
     56 H28        -1.0183   -0.0006    3.0596 H         1 <0>         0.0821
     57 H29         0.1434    0.2064    0.9116 H         1 <0>         0.0747
     58 H30         0.6979   -1.2783    1.7275 H         1 <0>         0.0956
     59 N3         10.7595    1.0182   -0.4916 N.4       1 <0>        -0.6594
     60 H31        11.5312    0.4841   -0.9081 H         1 <0>         0.4586
     61 N4          9.2820   -0.8230   -0.9911 N.4       1 <0>        -0.6656
     62 H32         8.4235   -1.0905   -1.4870 H         1 <0>         0.4758
@<TRIPOS>BOND
     1    1    2 1
     2    1   30 1
     3    1   31 1
     4    1   32 1
     5    2    7 ar
     6    2    3 ar
     7    3    4 ar
     8    3   33 1
     9    4    5 ar
    10    4   34 1
    11    5    6 ar
    12    5    8 1
    13    6    7 ar
    14    6   35 1
    15    7   36 1
    16    8    9 2
    17    8   10 2
    18    8   11 1
    19   11   12 1
    20   11   37 1
    21   12   13 1
    22   12   14 1
    23   12   22 1
    24   14   15 1
    25   14   38 1
    26   14   39 1
    27   15   20 ar
    28   15   16 ar
    29   16   17 ar
    30   16   40 1
    31   17   18 ar
    32   17   41 1
    33   18   19 ar
    34   18   42 1
    35   19   20 ar
    36   19   21 1
    37   20   43 1
    38   21   44 1
    39   21   59 1
    40   21   61 1
    41   22   23 2
    42   22   24 am
    43   24   29 1
    44   24   25 1
    45   25   26 1
    46   25   49 1
    47   25   50 1
    48   26   27 1
    49   26   51 1
    50   26   52 1
    51   27   28 1
    52   27   53 1
    53   27   54 1
    54   28   29 1
    55   28   55 1
    56   28   56 1
    57   29   57 1
    58   29   58 1
    59   45   59 1
    60   46   59 1
    61   47   61 1
    62   48   61 1
    63   59   60 1
    64   61   62 1
@<TRIPOS>MOLECULE
ZINC03834187
   54    56     0     0     0
SMALL
USER_CHARGES

@<TRIPOS>ATOM
      1 C1          3.0034   -0.9537    1.4555 C.3       1 <0>        -0.1358
      2 C2          1.7176   -0.1998    1.2325 C.ar      1 <0>        -0.0284
      3 C3          0.8352   -0.5827    0.2329 C.ar      1 <0>         0.0929
      4 C4         -0.3408    0.1353    0.0550 C.ar      1 <0>         0.2901
      5 N1         -0.6227    1.1727    0.8265 N.ar      1 <0>        -0.5370
      6 C5          0.1966    1.5645    1.7888 C.ar      1 <0>         0.2888
      7 C6          1.3901    0.8928    2.0221 C.ar      1 <0>         0.0916
      8 F1          2.2219    1.2988    3.0062 F         1 <0>        -0.0864
      9 O1         -0.1328    2.6346    2.5566 O.3       1 <0>        -0.2042
     10 C7         -1.4452    2.9751    2.6472 C.ar      1 <0>         0.1456
     11 C8         -2.4183    2.1388    2.1187 C.ar      1 <0>        -0.1309
     12 C9         -3.7516    2.4872    2.2120 C.ar      1 <0>        -0.0675
     13 C10        -4.1171    3.6681    2.8320 C.ar      1 <0>        -0.1190
     14 C11        -3.1497    4.5028    3.3597 C.ar      1 <0>        -0.1726
     15 C12        -1.8149    4.1567    3.2732 C.ar      1 <0>        -0.1168
     16 C13        -3.5517    5.7887    4.0350 C.3       1 <0>         0.2482
     17 O2         -1.2105   -0.2319   -0.9207 O.3       1 <0>        -0.2073
     18 C14        -2.2654    0.5859   -1.1757 C.ar      1 <0>         0.1368
     19 C15        -2.1621    1.9489   -0.9364 C.ar      1 <0>        -0.0949
     20 C16        -3.2358    2.7778   -1.1965 C.ar      1 <0>        -0.0693
     21 C17        -4.4130    2.2507   -1.6953 C.ar      1 <0>        -0.1136
     22 C18        -4.5184    0.8932   -1.9350 C.ar      1 <0>        -0.1840
     23 C19        -3.4457    0.0603   -1.6812 C.ar      1 <0>        -0.1104
     24 C20        -5.8026    0.3223   -2.4791 C.3       1 <0>         0.2497
     25 F2          1.1164   -1.6408   -0.5586 F         1 <0>        -0.0857
     26 H1          3.7931   -0.5128    0.8472 H         1 <0>         0.1136
     27 H2          3.2804   -0.8961    2.5081 H         1 <0>         0.1034
     28 H3          2.8664   -1.9973    1.1723 H         1 <0>         0.1037
     29 H4         -2.1334    1.2164    1.6345 H         1 <0>         0.1839
     30 H5         -4.5093    1.8366    1.8009 H         1 <0>         0.1463
     31 H6         -5.1602    3.9385    2.9042 H         1 <0>         0.1368
     32 H7         -1.0598    4.8070    3.6896 H         1 <0>         0.1484
     33 H8         -3.5832    6.5915    3.2984 H         1 <0>         0.2211
     34 H9         -5.5822    5.4637    3.9365 H         1 <0>         0.4724
     35 H10        -4.8768    4.8896    5.3289 H         1 <0>         0.4563
     36 H11        -2.8205    6.9792    5.5471 H         1 <0>         0.4617
     37 H12        -2.4781    5.3631    5.7393 H         1 <0>         0.4572
     38 H13        -1.2430    2.3611   -0.5468 H         1 <0>         0.1674
     39 H14        -3.1559    3.8387   -1.0104 H         1 <0>         0.1520
     40 H15        -5.2513    2.9006   -1.8983 H         1 <0>         0.1377
     41 H16        -3.5271   -0.9994   -1.8728 H         1 <0>         0.1487
     42 H17        -6.4548    0.0420   -1.6520 H         1 <0>         0.2230
     43 H18        -5.8879    1.6069   -4.0857 H         1 <0>         0.4565
     44 H19        -7.3674    0.9948   -3.6357 H         1 <0>         0.4630
     45 H20        -4.9867   -1.5470   -2.7594 H         1 <0>         0.4751
     46 H21        -6.3507   -1.2662   -3.6686 H         1 <0>         0.4627
     47 N2         -4.8825    5.6514    4.6526 N.4       1 <0>        -0.6589
     48 H22        -5.1227    6.5255    5.1347 H         1 <0>         0.4644
     49 N3         -2.5522    6.1230    5.0649 N.4       1 <0>        -0.6630
     50 H23        -1.6393    6.2631    4.6164 H         1 <0>         0.4783
     51 N4         -6.4753    1.3490   -3.2944 N.4       1 <0>        -0.6615
     52 H24        -6.6441    2.1812   -2.7172 H         1 <0>         0.4726
     53 N5         -5.4909   -0.8540   -3.3101 N.4       1 <0>        -0.6611
     54 H25        -4.9040   -0.5628   -4.1006 H         1 <0>         0.4587
@<TRIPOS>BOND
     1    1    2 1
     2    1   26 1
     3    1   27 1
     4    1   28 1
     5    2    7 ar
     6    2    3 ar
     7    3    4 ar
     8    3   25 1
     9    4    5 ar
    10    4   17 1
    11    5    6 ar
    12    6    7 ar
    13    6    9 1
    14    7    8 1
    15    9   10 1
    16   10   15 ar
    17   10   11 ar
    18   11   12 ar
    19   11   29 1
    20   12   13 ar
    21   12   30 1
    22   13   14 ar
    23   13   31 1
    24   14   15 ar
    25   14   16 1
    26   15   32 1
    27   16   33 1
    28   16   47 1
    29   16   49 1
    30   17   18 1
    31   18   23 ar
    32   18   19 ar
    33   19   20 ar
    34   19   38 1
    35   20   21 ar
    36   20   39 1
    37   21   22 ar
    38   21   40 1
    39   22   23 ar
    40   22   24 1
    41   23   41 1
    42   24   42 1
    43   24   51 1
    44   24   53 1
    45   34   47 1
    46   35   47 1
    47   36   49 1
    48   37   49 1
    49   43   51 1
    50   44   51 1
    51   45   53 1
    52   46   53 1
    53   47   48 1
    54   49   50 1
    55   51   52 1
    56   53   54 1
@<TRIPOS>MOLECULE
ZINC04617941
   48    50     0     0     0
SMALL
USER_CHARGES

@<TRIPOS>ATOM
      1 C1         -1.2745    4.2868   -1.5072 C.3       1 <0>        -0.1497
      2 C2         -1.3854    2.7640   -1.6058 C.3       1 <0>        -0.0924
      3 C3         -0.8199    2.2973   -2.9487 C.3       1 <0>        -0.1505
      4 C4         -0.5922    2.1201   -0.4669 C.3       1 <0>         0.0570
      5 O1         -1.1917    2.4625    0.7842 O.3       1 <0>        -0.2963
      6 C5         -0.6046    1.9669    1.9064 C.ar      1 <0>         0.1126
      7 C6          0.5235    1.1688    1.8035 C.ar      1 <0>        -0.1595
      8 C7          1.1262    0.6615    2.9416 C.ar      1 <0>        -0.0785
      9 C8          0.6100    0.9459    4.1883 C.ar      1 <0>        -0.1157
     10 C9         -0.5259    1.7492    4.3071 C.ar      1 <0>        -0.0666
     11 C10        -1.1328    2.2657    3.1573 C.ar      1 <0>         0.1381
     12 O2         -2.2357    3.0521    3.2623 O.3       1 <0>        -0.4619
     13 C11        -1.0814    2.0564    5.6414 C.2       1 <0>         0.4015
     14 N1         -0.5683    1.6104    6.8300 N.pl3     1 <0>        -0.5834
     15 H1          0.2361    1.0281    6.9479 H         1 <0>         0.4496
     16 C12        -1.3697    2.1152    7.8359 C.ar      1 <0>         0.0981
     17 C13        -1.3566    2.0136    9.2200 C.ar      1 <0>        -0.0509
     18 C14        -2.3265    2.6565    9.9621 C.ar      1 <0>        -0.0239
     19 C15        -3.3139    3.4032    9.3329 C.ar      1 <0>        -0.2135
     20 C16        -3.3421    3.5146    7.9719 C.ar      1 <0>        -0.0301
     21 C17        -2.3694    2.8717    7.1993 C.ar      1 <0>         0.0728
     22 N2         -2.1363    2.8017    5.8656 N.2       1 <0>        -0.4587
     23 C18        -4.3646    4.0981   10.1601 C.3       1 <0>         0.2446
     24 Cl1        -2.3124    2.5303   11.6935 Cl        1 <0>        -0.0263
     25 H2         -0.2275    4.5804   -1.5823 H         1 <0>         0.0557
     26 H3         -1.8397    4.7455   -2.3186 H         1 <0>         0.0616
     27 H4         -1.6774    4.6192   -0.5505 H         1 <0>         0.0605
     28 H5         -2.4324    2.4703   -1.5307 H         1 <0>         0.0826
     29 H6         -0.8989    1.2125   -3.0189 H         1 <0>         0.0601
     30 H7         -1.3850    2.7561   -3.7601 H         1 <0>         0.0703
     31 H8          0.2271    2.5910   -3.0238 H         1 <0>         0.0606
     32 H9         -0.5972    1.0368   -0.5878 H         1 <0>         0.0684
     33 H10         0.4353    2.4834   -0.4891 H         1 <0>         0.0690
     34 H11         0.9341    0.9412    0.8309 H         1 <0>         0.1467
     35 H12         2.0052    0.0402    2.8528 H         1 <0>         0.1457
     36 H13         1.0846    0.5477    5.0729 H         1 <0>         0.1294
     37 H14        -3.0701    2.5636    3.2462 H         1 <0>         0.3907
     38 H15        -0.5913    1.4334    9.7141 H         1 <0>         0.1624
     39 H16        -4.1142    4.0985    7.4929 H         1 <0>         0.1452
     40 H17        -4.6004    3.4900   11.0334 H         1 <0>         0.2170
     41 H18        -3.0747    5.2999   11.2231 H         1 <0>         0.4743
     42 H19        -3.6127    5.9814    9.8047 H         1 <0>         0.4534
     43 H20        -5.9089    3.4070    8.9871 H         1 <0>         0.4809
     44 H21        -6.2976    4.7513    9.8857 H         1 <0>         0.4577
     45 N3         -3.8788    5.4150   10.6085 N.4       1 <0>        -0.6604
     46 H22        -4.6276    5.8938   11.1226 H         1 <0>         0.4560
     47 N4         -5.5682    4.3018    9.3347 N.4       1 <0>        -0.6566
     48 H23        -5.3324    4.9034    8.5367 H         1 <0>         0.4524
@<TRIPOS>BOND
     1    1    2 1
     2    1   25 1
     3    1   26 1
     4    1   27 1
     5    2    3 1
     6    2    4 1
     7    2   28 1
     8    3   29 1
     9    3   30 1
    10    3   31 1
    11    4    5 1
    12    4   32 1
    13    4   33 1
    14    5    6 1
    15    6   11 ar
    16    6    7 ar
    17    7    8 ar
    18    7   34 1
    19    8    9 ar
    20    8   35 1
    21    9   10 ar
    22    9   36 1
    23   10   11 ar
    24   10   13 1
    25   11   12 1
    26   12   37 1
    27   13   22 2
    28   13   14 1
    29   14   15 1
    30   14   16 1
    31   16   21 ar
    32   16   17 ar
    33   17   18 ar
    34   17   38 1
    35   18   19 ar
    36   18   24 1
    37   19   20 ar
    38   19   23 1
    39   20   21 ar
    40   20   39 1
    41   21   22 1
    42   23   40 1
    43   23   45 1
    44   23   47 1
    45   41   45 1
    46   42   45 1
    47   43   47 1
    48   44   47 1
    49   45   46 1
    50   47   48 1
@<TRIPOS>MOLECULE
ZINC04617941
   48    50     0     0     0
SMALL
USER_CHARGES

@<TRIPOS>ATOM
      1 C1         -1.2745    4.2868   -1.5072 C.3       1 <0>        -0.1497
      2 C2         -1.3854    2.7640   -1.6058 C.3       1 <0>        -0.0924
      3 C3         -0.8199    2.2973   -2.9487 C.3       1 <0>        -0.1505
      4 C4         -0.5922    2.1201   -0.4669 C.3       1 <0>         0.0570
      5 O1         -1.1917    2.4625    0.7842 O.3       1 <0>        -0.2963
      6 C5         -0.6046    1.9669    1.9064 C.ar      1 <0>         0.1126
      7 C6          0.5235    1.1688    1.8035 C.ar      1 <0>        -0.1595
      8 C7          1.1262    0.6615    2.9416 C.ar      1 <0>        -0.0785
      9 C8          0.6100    0.9459    4.1883 C.ar      1 <0>        -0.1157
     10 C9         -0.5259    1.7492    4.3071 C.ar      1 <0>        -0.0666
     11 C10        -1.1328    2.2657    3.1573 C.ar      1 <0>         0.1381
     12 O2         -2.2357    3.0521    3.2623 O.3       1 <0>        -0.4619
     13 C11        -1.0814    2.0564    5.6414 C.2       1 <0>         0.4015
     14 N1         -0.5683    1.6104    6.8300 N.pl3     1 <0>        -0.5834
     15 H1          0.2361    1.0281    6.9479 H         1 <0>         0.4496
     16 C12        -1.3697    2.1152    7.8359 C.ar      1 <0>         0.0981
     17 C13        -1.3566    2.0136    9.2200 C.ar      1 <0>        -0.0509
     18 C14        -2.3265    2.6565    9.9621 C.ar      1 <0>        -0.0239
     19 C15        -3.3139    3.4032    9.3329 C.ar      1 <0>        -0.2135
     20 C16        -3.3421    3.5146    7.9719 C.ar      1 <0>        -0.0301
     21 C17        -2.3694    2.8717    7.1993 C.ar      1 <0>         0.0728
     22 N2         -2.1363    2.8017    5.8656 N.2       1 <0>        -0.4587
     23 C18        -4.3646    4.0981   10.1601 C.3       1 <0>         0.2446
     24 Cl1        -2.3124    2.5303   11.6935 Cl        1 <0>        -0.0263
     25 H2         -0.2275    4.5804   -1.5823 H         1 <0>         0.0557
     26 H3         -1.8397    4.7455   -2.3186 H         1 <0>         0.0616
     27 H4         -1.6774    4.6192   -0.5505 H         1 <0>         0.0605
     28 H5         -2.4324    2.4703   -1.5307 H         1 <0>         0.0826
     29 H6         -0.8989    1.2125   -3.0189 H         1 <0>         0.0601
     30 H7         -1.3850    2.7561   -3.7601 H         1 <0>         0.0703
     31 H8          0.2271    2.5910   -3.0238 H         1 <0>         0.0606
     32 H9         -0.5972    1.0368   -0.5878 H         1 <0>         0.0684
     33 H10         0.4353    2.4834   -0.4891 H         1 <0>         0.0690
     34 H11         0.9341    0.9412    0.8309 H         1 <0>         0.1467
     35 H12         2.0052    0.0402    2.8528 H         1 <0>         0.1457
     36 H13         1.0846    0.5477    5.0729 H         1 <0>         0.1294
     37 H14        -3.0701    2.5636    3.2462 H         1 <0>         0.3907
     38 H15        -0.5913    1.4334    9.7141 H         1 <0>         0.1624
     39 H16        -4.1142    4.0985    7.4929 H         1 <0>         0.1452
     40 H17        -4.6004    3.4900   11.0334 H         1 <0>         0.2170
     41 H18        -3.0747    5.2999   11.2231 H         1 <0>         0.4743
     42 H19        -3.6127    5.9814    9.8047 H         1 <0>         0.4534
     43 H20        -5.9089    3.4070    8.9871 H         1 <0>         0.4809
     44 H21        -6.2976    4.7513    9.8857 H         1 <0>         0.4577
     45 N3         -3.8788    5.4150   10.6085 N.4       1 <0>        -0.6604
     46 H22        -4.6276    5.8938   11.1226 H         1 <0>         0.4560
     47 N4         -5.5682    4.3018    9.3347 N.4       1 <0>        -0.6566
     48 H23        -5.3324    4.9034    8.5367 H         1 <0>         0.4524
@<TRIPOS>BOND
     1    1    2 1
     2    1   25 1
     3    1   26 1
     4    1   27 1
     5    2    3 1
     6    2    4 1
     7    2   28 1
     8    3   29 1
     9    3   30 1
    10    3   31 1
    11    4    5 1
    12    4   32 1
    13    4   33 1
    14    5    6 1
    15    6   11 ar
    16    6    7 ar
    17    7    8 ar
    18    7   34 1
    19    8    9 ar
    20    8   35 1
    21    9   10 ar
    22    9   36 1
    23   10   11 ar
    24   10   13 1
    25   11   12 1
    26   12   37 1
    27   13   22 2
    28   13   14 1
    29   14   15 1
    30   14   16 1
    31   16   21 ar
    32   16   17 ar
    33   17   18 ar
    34   17   38 1
    35   18   19 ar
    36   18   24 1
    37   19   20 ar
    38   19   23 1
    39   20   21 ar
    40   20   39 1
    41   21   22 1
    42   23   40 1
    43   23   45 1
    44   23   47 1
    45   41   45 1
    46   42   45 1
    47   43   47 1
    48   44   47 1
    49   45   46 1
    50   47   48 1
@<TRIPOS>MOLECULE
ZINC04617942
   55    58     0     0     0
SMALL
USER_CHARGES

@<TRIPOS>ATOM
      1 C1         -0.3188    1.6289    0.5736 C.3       1 <0>        -0.1504
      2 C2         -0.9362    1.9941    1.9250 C.3       1 <0>        -0.0825
      3 H1         -0.9318    3.0774    2.0457 H         1 <0>         0.0829
      4 C3         -2.3762    1.4803    1.9834 C.3       1 <0>        -0.1151
      5 C4         -2.9936    1.8455    3.3349 C.3       1 <0>        -0.1266
      6 C5         -2.1772    1.2039    4.4586 C.3       1 <0>        -0.1185
      7 C6         -0.7372    1.7176    4.4002 C.3       1 <0>        -0.1443
      8 C7         -0.1198    1.3525    3.0487 C.3       1 <0>         0.0865
      9 H2         -0.1243    0.2692    2.9281 H         1 <0>         0.0773
     10 O1          1.2251    1.8323    2.9942 O.3       1 <0>        -0.2902
     11 C8          2.1825    1.0523    3.5637 C.ar      1 <0>         0.1168
     12 C9          1.8458   -0.1842    4.0911 C.ar      1 <0>        -0.1625
     13 C10         2.8163   -0.9854    4.6674 C.ar      1 <0>        -0.0782
     14 C11         4.1252   -0.5562    4.7315 C.ar      1 <0>        -0.1169
     15 C12         4.4779    0.6898    4.2093 C.ar      1 <0>        -0.0657
     16 C13         3.4983    1.4976    3.6220 C.ar      1 <0>         0.1356
     17 O2          3.8312    2.7115    3.1107 O.3       1 <0>        -0.4614
     18 C14         5.8795    1.1529    4.2763 C.2       1 <0>         0.4009
     19 N1          6.9158    0.4500    4.8312 N.pl3     1 <0>        -0.5853
     20 H3          6.8594   -0.4524    5.2583 H         1 <0>         0.4496
     21 C15         8.0537    1.2208    4.6905 C.ar      1 <0>         0.1146
     22 C16         9.3839    1.0478    5.0468 C.ar      1 <0>        -0.1017
     23 C17        10.3026    2.0391    4.7635 C.ar      1 <0>         0.1331
     24 C18         9.9030    3.2065    4.1239 C.ar      1 <0>        -0.2529
     25 C19         8.5981    3.3928    3.7664 C.ar      1 <0>        -0.0203
     26 C20         7.6504    2.4023    4.0439 C.ar      1 <0>         0.0627
     27 N2          6.3171    2.3005    3.8186 N.2       1 <0>        -0.4579
     28 C21        10.9195    4.2774    3.8222 C.3       1 <0>         0.2531
     29 F1         11.5979    1.8730    5.1098 F         1 <0>        -0.1192
     30 H4         -0.3233    0.5456    0.4529 H         1 <0>         0.0540
     31 H5          0.7070    1.9950    0.5320 H         1 <0>         0.0609
     32 H6         -0.9005    2.0860   -0.2270 H         1 <0>         0.0625
     33 H7         -2.9578    1.9374    1.1829 H         1 <0>         0.0767
     34 H8         -2.3806    0.3970    1.8628 H         1 <0>         0.0669
     35 H9         -4.0194    1.4795    3.3765 H         1 <0>         0.0716
     36 H10        -2.9892    2.9288    3.4555 H         1 <0>         0.0666
     37 H11        -2.1816    0.1206    4.3379 H         1 <0>         0.0655
     38 H12        -2.6170    1.4640    5.4214 H         1 <0>         0.0727
     39 H13        -0.1556    1.2605    5.2007 H         1 <0>         0.0663
     40 H14        -0.7328    2.8009    4.5208 H         1 <0>         0.0764
     41 H15         0.8221   -0.5258    4.0489 H         1 <0>         0.1478
     42 H16         2.5463   -1.9495    5.0724 H         1 <0>         0.1449
     43 H17         4.8776   -1.1838    5.1859 H         1 <0>         0.1289
     44 H18         3.7661    3.4373    3.7463 H         1 <0>         0.3897
     45 H19         9.6990    0.1423    5.5440 H         1 <0>         0.1646
     46 H20         8.2983    4.3041    3.2704 H         1 <0>         0.1454
     47 H21        11.8765    3.8132    3.5839 H         1 <0>         0.2204
     48 H22        11.0864    5.8518    2.5063 H         1 <0>         0.4561
     49 H23        10.3665    4.5028    1.8520 H         1 <0>         0.4812
     50 H24        10.2020    5.5905    5.2361 H         1 <0>         0.4513
     51 H25        11.4501    4.6349    5.7790 H         1 <0>         0.4769
     52 N3         10.4415    5.0838    2.6854 N.4       1 <0>        -0.6581
     53 H26         9.5164    5.4686    2.9098 H         1 <0>         0.4522
     54 N4         11.0929    5.1648    4.9857 N.4       1 <0>        -0.6605
     55 H27        11.7632    5.9054    4.7484 H         1 <0>         0.4555
@<TRIPOS>BOND
     1    1    2 1
     2    1   30 1
     3    1   31 1
     4    1   32 1
     5    2    3 1
     6    2    8 1
     7    2    4 1
     8    4    5 1
     9    4   33 1
    10    4   34 1
    11    5    6 1
    12    5   35 1
    13    5   36 1
    14    6    7 1
    15    6   37 1
    16    6   38 1
    17    7    8 1
    18    7   39 1
    19    7   40 1
    20    8    9 1
    21    8   10 1
    22   10   11 1
    23   11   16 ar
    24   11   12 ar
    25   12   13 ar
    26   12   41 1
    27   13   14 ar
    28   13   42 1
    29   14   15 ar
    30   14   43 1
    31   15   16 ar
    32   15   18 1
    33   16   17 1
    34   17   44 1
    35   18   27 2
    36   18   19 1
    37   19   20 1
    38   19   21 1
    39   21   26 ar
    40   21   22 ar
    41   22   23 ar
    42   22   45 1
    43   23   24 ar
    44   23   29 1
    45   24   25 ar
    46   24   28 1
    47   25   26 ar
    48   25   46 1
    49   26   27 1
    50   28   47 1
    51   28   52 1
    52   28   54 1
    53   48   52 1
    54   49   52 1
    55   50   54 1
    56   51   54 1
    57   52   53 1
    58   54   55 1
@<TRIPOS>MOLECULE
ZINC04617942
   55    58     0     0     0
SMALL
USER_CHARGES

@<TRIPOS>ATOM
      1 C1         -0.3188    1.6289    0.5736 C.3       1 <0>        -0.1504
      2 C2         -0.9362    1.9941    1.9250 C.3       1 <0>        -0.0825
      3 H1         -0.9318    3.0774    2.0457 H         1 <0>         0.0829
      4 C3         -2.3762    1.4803    1.9834 C.3       1 <0>        -0.1151
      5 C4         -2.9936    1.8455    3.3349 C.3       1 <0>        -0.1266
      6 C5         -2.1772    1.2039    4.4586 C.3       1 <0>        -0.1185
      7 C6         -0.7372    1.7176    4.4002 C.3       1 <0>        -0.1443
      8 C7         -0.1198    1.3525    3.0487 C.3       1 <0>         0.0865
      9 H2         -0.1243    0.2692    2.9281 H         1 <0>         0.0773
     10 O1          1.2251    1.8323    2.9942 O.3       1 <0>        -0.2902
     11 C8          2.1825    1.0523    3.5637 C.ar      1 <0>         0.1168
     12 C9          1.8458   -0.1842    4.0911 C.ar      1 <0>        -0.1625
     13 C10         2.8163   -0.9854    4.6674 C.ar      1 <0>        -0.0782
     14 C11         4.1252   -0.5562    4.7315 C.ar      1 <0>        -0.1169
     15 C12         4.4779    0.6898    4.2093 C.ar      1 <0>        -0.0657
     16 C13         3.4983    1.4976    3.6220 C.ar      1 <0>         0.1356
     17 O2          3.8312    2.7115    3.1107 O.3       1 <0>        -0.4614
     18 C14         5.8795    1.1529    4.2763 C.2       1 <0>         0.4009
     19 N1          6.9158    0.4500    4.8312 N.pl3     1 <0>        -0.5853
     20 H3          6.8594   -0.4524    5.2583 H         1 <0>         0.4496
     21 C15         8.0537    1.2208    4.6905 C.ar      1 <0>         0.1146
     22 C16         9.3839    1.0478    5.0468 C.ar      1 <0>        -0.1017
     23 C17        10.3026    2.0391    4.7635 C.ar      1 <0>         0.1331
     24 C18         9.9030    3.2065    4.1239 C.ar      1 <0>        -0.2529
     25 C19         8.5981    3.3928    3.7664 C.ar      1 <0>        -0.0203
     26 C20         7.6504    2.4023    4.0439 C.ar      1 <0>         0.0627
     27 N2          6.3171    2.3005    3.8186 N.2       1 <0>        -0.4579
     28 C21        10.9195    4.2774    3.8222 C.3       1 <0>         0.2531
     29 F1         11.5979    1.8730    5.1098 F         1 <0>        -0.1192
     30 H4         -0.3233    0.5456    0.4529 H         1 <0>         0.0540
     31 H5          0.7070    1.9950    0.5320 H         1 <0>         0.0609
     32 H6         -0.9005    2.0860   -0.2270 H         1 <0>         0.0625
     33 H7         -2.9578    1.9374    1.1829 H         1 <0>         0.0767
     34 H8         -2.3806    0.3970    1.8628 H         1 <0>         0.0669
     35 H9         -4.0194    1.4795    3.3765 H         1 <0>         0.0716
     36 H10        -2.9892    2.9288    3.4555 H         1 <0>         0.0666
     37 H11        -2.1816    0.1206    4.3379 H         1 <0>         0.0655
     38 H12        -2.6170    1.4640    5.4214 H         1 <0>         0.0727
     39 H13        -0.1556    1.2605    5.2007 H         1 <0>         0.0663
     40 H14        -0.7328    2.8009    4.5208 H         1 <0>         0.0764
     41 H15         0.8221   -0.5258    4.0489 H         1 <0>         0.1478
     42 H16         2.5463   -1.9495    5.0724 H         1 <0>         0.1449
     43 H17         4.8776   -1.1838    5.1859 H         1 <0>         0.1289
     44 H18         3.7661    3.4373    3.7463 H         1 <0>         0.3897
     45 H19         9.6990    0.1423    5.5440 H         1 <0>         0.1646
     46 H20         8.2983    4.3041    3.2704 H         1 <0>         0.1454
     47 H21        11.8765    3.8132    3.5839 H         1 <0>         0.2204
     48 H22        11.0864    5.8518    2.5063 H         1 <0>         0.4561
     49 H23        10.3665    4.5028    1.8520 H         1 <0>         0.4812
     50 H24        10.2020    5.5905    5.2361 H         1 <0>         0.4513
     51 H25        11.4501    4.6349    5.7790 H         1 <0>         0.4769
     52 N3         10.4415    5.0838    2.6854 N.4       1 <0>        -0.6581
     53 H26         9.5164    5.4686    2.9098 H         1 <0>         0.4522
     54 N4         11.0929    5.1648    4.9857 N.4       1 <0>        -0.6605
     55 H27        11.7632    5.9054    4.7484 H         1 <0>         0.4555
@<TRIPOS>BOND
     1    1    2 1
     2    1   30 1
     3    1   31 1
     4    1   32 1
     5    2    3 1
     6    2    8 1
     7    2    4 1
     8    4    5 1
     9    4   33 1
    10    4   34 1
    11    5    6 1
    12    5   35 1
    13    5   36 1
    14    6    7 1
    15    6   37 1
    16    6   38 1
    17    7    8 1
    18    7   39 1
    19    7   40 1
    20    8    9 1
    21    8   10 1
    22   10   11 1
    23   11   16 ar
    24   11   12 ar
    25   12   13 ar
    26   12   41 1
    27   13   14 ar
    28   13   42 1
    29   14   15 ar
    30   14   43 1
    31   15   16 ar
    32   15   18 1
    33   16   17 1
    34   17   44 1
    35   18   27 2
    36   18   19 1
    37   19   20 1
    38   19   21 1
    39   21   26 ar
    40   21   22 ar
    41   22   23 ar
    42   22   45 1
    43   23   24 ar
    44   23   29 1
    45   24   25 ar
    46   24   28 1
    47   25   26 ar
    48   25   46 1
    49   26   27 1
    50   28   47 1
    51   28   52 1
    52   28   54 1
    53   48   52 1
    54   49   52 1
    55   50   54 1
    56   51   54 1
    57   52   53 1
    58   54   55 1
