@<TRIPOS>MOLECULE
ZINC01535869
   37    37     0     0     0
SMALL
USER_CHARGES

@<TRIPOS>ATOM
      1 C1         -0.0127    1.0858    0.0080 C.3       1 <0>        -0.1548
      2 C2         -0.7288    1.5792    1.2668 C.3       1 <0>        -0.0311
      3 H1         -1.7514    1.2020    1.2746 H         1 <0>         0.0857
      4 C3          0.0000    1.0800    2.4877 C.ar      1 <0>        -0.0514
      5 C4          1.3225    1.4261    2.6929 C.ar      1 <0>        -0.0995
      6 C5          1.9898    0.9718    3.8150 C.ar      1 <0>        -0.1148
      7 C6          1.3373    0.1639    4.7273 C.ar      1 <0>        -0.1247
      8 C7          0.0163   -0.1865    4.5195 C.ar      1 <0>        -0.1212
      9 C8         -0.6522    0.2713    3.3996 C.ar      1 <0>        -0.0893
     10 C9         -0.7496    3.1091    1.2752 C.3       1 <0>        -0.0846
     11 H2          0.2730    3.4864    1.2675 H         1 <0>         0.1084
     12 C10        -1.4657    3.6025    2.5340 C.3       1 <0>        -0.0693
     13 S1         -0.5084    3.1275    3.9998 S.3       1 <0>        -0.1965
     14 C11        -1.4785    3.6083    0.0543 C.2       1 <0>         0.5171
     15 O1         -1.9362    2.8183   -0.7439 O.2       1 <0>        -0.5424
     16 N1         -1.6216    4.9327   -0.1505 N.am      1 <0>        -0.6971
     17 C12        -2.3301    5.4180   -1.3373 C.3       1 <0>         0.0942
     18 H3         -2.1301    4.7527   -2.1773 H         1 <0>         0.0903
     19 C13        -3.8340    5.4475   -1.0570 C.3       1 <0>        -0.1370
     20 C14        -1.8544    6.8079   -1.6731 C.2       1 <0>         0.4626
     21 O2         -1.0100    7.3387   -0.9910 O.co2     1 <0>        -0.6353
     22 H4          0.0021   -0.0041    0.0020 H         1 <0>         0.0528
     23 H5          1.0099    1.4631    0.0003 H         1 <0>         0.0496
     24 H6         -0.5399    1.4469   -0.8751 H         1 <0>         0.0896
     25 H7          1.8334    2.0543    1.9781 H         1 <0>         0.1173
     26 H8          3.0217    1.2459    3.9775 H         1 <0>         0.1145
     27 H9          1.8594   -0.1933    5.6027 H         1 <0>         0.1111
     28 H10        -0.4935   -0.8178    5.2323 H         1 <0>         0.1123
     29 H11        -1.6842   -0.0024    3.2372 H         1 <0>         0.1144
     30 H12        -1.5591    4.6879    2.4971 H         1 <0>         0.0890
     31 H13        -2.4578    3.1541    2.5870 H         1 <0>         0.0881
     32 H14        -1.2281    3.6095    5.0287 H         1 <0>         0.0361
     33 H15        -1.2555    5.5645    0.4880 H         1 <0>         0.4040
     34 H16        -4.1781    4.4422   -0.8142 H         1 <0>         0.0480
     35 H17        -4.0340    6.1128   -0.2171 H         1 <0>         0.0466
     36 H18        -4.3611    5.8086   -1.9401 H         1 <0>         0.0716
     37 O3         -2.3685    7.4563   -2.7300 O.co2     1 <0>        -0.7547
@<TRIPOS>BOND
     1    1    2 1
     2    1   22 1
     3    1   23 1
     4    1   24 1
     5    2    3 1
     6    2    4 1
     7    2   10 1
     8    4    9 ar
     9    4    5 ar
    10    5    6 ar
    11    5   25 1
    12    6    7 ar
    13    6   26 1
    14    7    8 ar
    15    7   27 1
    16    8    9 ar
    17    8   28 1
    18    9   29 1
    19   10   11 1
    20   10   12 1
    21   10   14 1
    22   12   13 1
    23   12   30 1
    24   12   31 1
    25   13   32 1
    26   14   15 2
    27   14   16 am
    28   16   17 1
    29   16   33 1
    30   17   18 1
    31   17   19 1
    32   17   20 1
    33   19   34 1
    34   19   35 1
    35   19   36 1
    36   20   21 2
    37   20   37 1
@<TRIPOS>MOLECULE
ZINC03775164
   45    46     0     0     0
SMALL
USER_CHARGES

@<TRIPOS>ATOM
      1 C1         -0.7339    1.9542    1.2689 C.3       1 <0>        -0.1621
      2 C2         -0.0178    1.4608    0.0101 C.3       1 <0>         0.1323
      3 H1         -0.5450    1.8219   -0.8730 H         1 <0>         0.1078
      4 C3          1.3960    1.9824   -0.0006 C.2       1 <0>         0.5302
      5 O1          2.3284    1.2069   -0.0137 O.2       1 <0>        -0.5225
      6 N1          1.6243    3.3107    0.0043 N.am      1 <0>        -0.5901
      7 C4          0.5891    4.3603    0.0134 C.3       1 <0>         0.0957
      8 C5          1.2781    5.6052   -0.5936 C.3       1 <0>        -0.1351
      9 C6          2.7152    5.4785   -0.0226 C.3       1 <0>        -0.1041
     10 C7          2.9468    3.9529   -0.0048 C.3       1 <0>         0.0914
     11 H2          3.4991    3.6513   -0.8949 H         1 <0>         0.0743
     12 C8          3.7148    3.5622    1.2315 C.2       1 <0>         0.4629
     13 O2          3.2147    2.8215    2.0446 O.co2     1 <0>        -0.6183
     14 N2          0.0021   -0.0041    0.0020 N.am      1 <0>        -0.6930
     15 C9         -1.0512   -0.6896   -0.4849 C.2       1 <0>         0.5229
     16 O3         -2.0154   -0.0939   -0.9164 O.2       1 <0>        -0.5440
     17 C10        -1.0308   -2.1965   -0.4932 C.3       1 <0>        -0.0592
     18 H3          0.0017   -2.5458   -0.5049 H         1 <0>         0.1393
     19 C11        -1.7569   -2.7095   -1.7383 C.3       1 <0>        -0.0635
     20 C12        -1.6308   -4.2095   -1.8111 C.ar      1 <0>        -0.0842
     21 C13        -0.5681   -4.7819   -2.4847 C.ar      1 <0>        -0.1114
     22 C14        -0.4501   -6.1578   -2.5477 C.ar      1 <0>        -0.1220
     23 C15        -1.4000   -6.9612   -1.9452 C.ar      1 <0>        -0.1200
     24 C16        -2.4653   -6.3888   -1.2757 C.ar      1 <0>        -0.1219
     25 C17        -2.5810   -5.0130   -1.2090 C.ar      1 <0>        -0.0899
     26 S1         -1.8634   -2.8207    0.9926 S.3       1 <0>        -0.1875
     27 H4         -0.7487    3.0441    1.2749 H         1 <0>         0.0772
     28 H5         -1.7565    1.5769    1.2766 H         1 <0>         0.0652
     29 H6         -0.2067    1.5931    2.1519 H         1 <0>         0.0707
     30 H7         -0.2609    4.0601   -0.5992 H         1 <0>         0.0720
     31 H8          0.2678    4.5674    1.0342 H         1 <0>         0.0700
     32 H9          0.8013    6.5237   -0.2514 H         1 <0>         0.0808
     33 H10         1.2842    5.5523   -1.6823 H         1 <0>         0.0726
     34 H11         2.7669    5.8882    0.9861 H         1 <0>         0.0755
     35 H12         3.4350    5.9702   -0.6771 H         1 <0>         0.0796
     36 H13         0.7733   -0.4806    0.3471 H         1 <0>         0.4156
     37 H14        -2.8105   -2.4357   -1.6832 H         1 <0>         0.0829
     38 H15        -1.3118   -2.2639   -2.6280 H         1 <0>         0.0894
     39 H16         0.1718   -4.1542   -2.9589 H         1 <0>         0.1221
     40 H17         0.3825   -6.6050   -3.0705 H         1 <0>         0.1208
     41 H18        -1.3096   -8.0362   -1.9973 H         1 <0>         0.1189
     42 H19        -3.2074   -7.0166   -0.8050 H         1 <0>         0.1201
     43 H20        -3.4135   -4.5658   -0.6862 H         1 <0>         0.1184
     44 H21        -3.1121   -2.3303    0.8961 H         1 <0>         0.0893
     45 O4          4.9546    4.0371    1.4295 O.co2     1 <0>        -0.7696
@<TRIPOS>BOND
     1    1    2 1
     2    1   27 1
     3    1   28 1
     4    1   29 1
     5    2    3 1
     6    2    4 1
     7    2   14 1
     8    4    5 2
     9    4    6 am
    10    6   10 1
    11    6    7 1
    12    7    8 1
    13    7   30 1
    14    7   31 1
    15    8    9 1
    16    8   32 1
    17    8   33 1
    18    9   10 1
    19    9   34 1
    20    9   35 1
    21   10   11 1
    22   10   12 1
    23   12   13 2
    24   12   45 1
    25   14   15 am
    26   14   36 1
    27   15   16 2
    28   15   17 1
    29   17   18 1
    30   17   19 1
    31   17   26 1
    32   19   20 1
    33   19   37 1
    34   19   38 1
    35   20   25 ar
    36   20   21 ar
    37   21   22 ar
    38   21   39 1
    39   22   23 ar
    40   22   40 1
    41   23   24 ar
    42   23   41 1
    43   24   25 ar
    44   24   42 1
    45   25   43 1
    46   26   44 1
@<TRIPOS>MOLECULE
ZINC03809801
   50    52     0     0     0
SMALL
USER_CHARGES

@<TRIPOS>ATOM
      1 C1          6.8759   -5.1369    7.0450 C.ar      1 <0>        -0.1216
      2 C2          6.9527   -5.6352    5.7579 C.ar      1 <0>        -0.1238
      3 C3          6.5645   -4.8501    4.6884 C.ar      1 <0>        -0.0911
      4 C4          6.0995   -3.5666    4.9061 C.ar      1 <0>        -0.0814
      5 C5          6.0276   -3.0665    6.1928 C.ar      1 <0>        -0.1097
      6 C6          6.4104   -3.8536    7.2627 C.ar      1 <0>        -0.1215
      7 C7          5.6767   -2.7105    3.7402 C.3       1 <0>        -0.0653
      8 C8          4.1882   -2.9279    3.4611 C.3       1 <0>        -0.0517
      9 H1          3.6166   -2.7380    4.3696 H         1 <0>         0.1377
     10 C9          3.7371   -1.9832    2.3771 C.2       1 <0>         0.5380
     11 O1          4.4908   -1.6950    1.4716 O.2       1 <0>        -0.5347
     12 N1          2.4962   -1.4586    2.4138 N.am      1 <0>        -0.6870
     13 C10         2.0577   -0.5402    1.3600 C.3       1 <0>         0.1686
     14 H2          2.4714   -0.8816    0.4111 H         1 <0>         0.0984
     15 C11         0.5601   -0.5944    1.2737 C.3       1 <0>        -0.1353
     16 C12         0.0021   -0.0041    0.0020 C.3       1 <0>        -0.0855
     17 S1         -0.0222    1.7835    0.0118 S.3       1 <0>        -0.2575
     18 C13         1.7050    2.3161   -0.0018 C.3       1 <0>         0.1907
     19 H3          2.2019    1.7347   -0.7784 H         1 <0>         0.0688
     20 C14         1.7550    3.7667   -0.4660 C.3       1 <0>        -0.1033
     21 C15         3.0427    4.4370    0.0152 C.3       1 <0>        -0.1173
     22 C16         2.9590    4.4679    1.5467 C.3       1 <0>        -0.1019
     23 C17         3.0314    3.0544    2.0793 C.3       1 <0>         0.1045
     24 H4          4.0807    2.7885    2.2070 H         1 <0>         0.0827
     25 N2          2.3963    2.0383    1.2302 N.am      1 <0>        -0.5491
     26 C18         2.6006    0.7940    1.6525 C.2       1 <0>         0.4878
     27 O2          3.4626    0.7479    2.5045 O.2       1 <0>        -0.5301
     28 C19         2.3680    3.0254    3.4321 C.2       1 <0>         0.4715
     29 O3          1.4721    2.2441    3.6490 O.co2     1 <0>        -0.6235
     30 S2          3.9174   -4.6391    2.9232 S.3       1 <0>        -0.1984
     31 H5          7.1791   -5.7503    7.8806 H         1 <0>         0.1180
     32 H6          7.3164   -6.6378    5.5878 H         1 <0>         0.1188
     33 H7          6.6249   -5.2393    3.6828 H         1 <0>         0.1171
     34 H8          5.6684   -2.0622    6.3625 H         1 <0>         0.1246
     35 H9          6.3500   -3.4644    8.2683 H         1 <0>         0.1209
     36 H10         6.2556   -2.9857    2.8586 H         1 <0>         0.0807
     37 H11         5.8525   -1.6613    3.9773 H         1 <0>         0.0947
     38 H12         1.8934   -1.6891    3.1380 H         1 <0>         0.4079
     39 H13         0.1427   -0.0517    2.1218 H         1 <0>         0.0990
     40 H14         0.2450   -1.6357    1.3416 H         1 <0>         0.0899
     41 H15        -1.0161   -0.3678   -0.1362 H         1 <0>         0.1164
     42 H16         0.6096   -0.3419   -0.8375 H         1 <0>         0.0790
     43 H17         0.8965    4.3040   -0.0628 H         1 <0>         0.0803
     44 H18         1.7190    3.7952   -1.5550 H         1 <0>         0.0833
     45 H19         3.1067    5.4518   -0.3774 H         1 <0>         0.0752
     46 H20         3.9089    3.8558   -0.3013 H         1 <0>         0.0666
     47 H21         2.0165    4.9234    1.8505 H         1 <0>         0.0674
     48 H22         3.7901    5.0499    1.9450 H         1 <0>         0.0805
     49 H23         4.6635   -4.7520    1.8098 H         1 <0>         0.0899
     50 O4          2.7723    3.8673    4.3961 O.co2     1 <0>        -0.7695
@<TRIPOS>BOND
     1    1    6 ar
     2    1    2 ar
     3    1   31 1
     4    2    3 ar
     5    2   32 1
     6    3    4 ar
     7    3   33 1
     8    4    5 ar
     9    4    7 1
    10    5    6 ar
    11    5   34 1
    12    6   35 1
    13    7    8 1
    14    7   36 1
    15    7   37 1
    16    8    9 1
    17    8   10 1
    18    8   30 1
    19   10   11 2
    20   10   12 am
    21   12   13 1
    22   12   38 1
    23   13   14 1
    24   13   26 1
    25   13   15 1
    26   15   16 1
    27   15   39 1
    28   15   40 1
    29   16   17 1
    30   16   41 1
    31   16   42 1
    32   17   18 1
    33   18   19 1
    34   18   25 1
    35   18   20 1
    36   20   21 1
    37   20   43 1
    38   20   44 1
    39   21   22 1
    40   21   45 1
    41   21   46 1
    42   22   23 1
    43   22   47 1
    44   22   48 1
    45   23   24 1
    46   23   25 1
    47   23   28 1
    48   25   26 am
    49   26   27 2
    50   28   29 2
    51   28   50 1
    52   30   49 1
@<TRIPOS>MOLECULE
ZINC03812851
   48    49     0     0     0
SMALL
USER_CHARGES

@<TRIPOS>ATOM
      1 C1         -2.4510    3.4208   -2.7790 C.3       1 <0>        -0.1791
      2 C2         -2.4966    1.8932   -2.8517 C.3       1 <0>         0.0238
      3 H1         -1.8974    1.5517   -3.6958 H         1 <0>         0.1432
      4 C3         -1.9435    1.3128   -1.5757 C.2       1 <0>         0.5235
      5 O1         -2.6391    0.6021   -0.8814 O.2       1 <0>        -0.5246
      6 N1         -0.6761    1.5836   -1.2060 N.am      1 <0>        -0.5736
      7 C4          0.2750    2.4274   -1.9522 C.3       1 <0>         0.0883
      8 C5          1.6750    1.9390   -1.5038 C.3       1 <0>        -0.1344
      9 C6          1.4312    1.6304   -0.0029 C.3       1 <0>        -0.1054
     10 C7         -0.0127    1.0858    0.0080 C.3       1 <0>         0.0900
     11 H2          0.0021   -0.0041    0.0020 H         1 <0>         0.0802
     12 C8         -0.7382    1.5816    1.2323 C.2       1 <0>         0.4620
     13 O2         -1.7192    2.2768    1.1130 O.co2     1 <0>        -0.6185
     14 C9         -4.2684    1.4687   -4.4464 C.3       1 <0>        -0.0188
     15 H3         -3.4096    1.1893   -5.0569 H         1 <0>         0.1348
     16 C10        -5.4058    0.4723   -4.6799 C.3       1 <0>        -0.1184
     17 C11        -4.9029   -0.9476   -4.4121 C.3       1 <0>        -0.0956
     18 C12        -6.0232   -1.9290   -4.6421 C.ar      1 <0>        -0.0822
     19 C13        -6.8581   -2.2818   -3.5984 C.ar      1 <0>        -0.1159
     20 C14        -7.8885   -3.1787   -3.8104 C.ar      1 <0>        -0.1173
     21 C15        -8.0783   -3.7297   -5.0639 C.ar      1 <0>        -0.1228
     22 C16        -7.2401   -3.3808   -6.1063 C.ar      1 <0>        -0.1185
     23 C17        -6.2125   -2.4807   -5.8954 C.ar      1 <0>        -0.1125
     24 C18        -4.7268    2.8527   -4.8277 C.2       1 <0>         0.4601
     25 O3         -4.7348    3.7352   -4.0024 O.co2     1 <0>        -0.6022
     26 H4         -1.4195    3.7478   -2.6482 H         1 <0>         0.0892
     27 H5         -2.8510    3.8406   -3.7019 H         1 <0>         0.1174
     28 H6         -3.0502    3.7624   -1.9349 H         1 <0>         0.0862
     29 H7          0.1374    3.4766   -1.6904 H         1 <0>         0.0789
     30 H8          0.1494    2.2854   -3.0256 H         1 <0>         0.0757
     31 H9          2.4203    2.7250   -1.6250 H         1 <0>         0.0852
     32 H10         1.9667    1.0391   -2.0453 H         1 <0>         0.0752
     33 H11         1.5052    2.5390    0.5947 H         1 <0>         0.0786
     34 H12         2.1310    0.8747    0.3541 H         1 <0>         0.0834
     35 H13        -6.2313    0.6987   -4.0052 H         1 <0>         0.0829
     36 H14        -5.7487    0.5477   -5.7118 H         1 <0>         0.1172
     37 H15        -4.0773   -1.1740   -5.0868 H         1 <0>         0.0850
     38 H16        -4.5599   -1.0231   -3.3802 H         1 <0>         0.0685
     39 H17        -6.7075   -1.8542   -2.6181 H         1 <0>         0.1230
     40 H18        -8.5435   -3.4510   -2.9960 H         1 <0>         0.1225
     41 H19        -8.8816   -4.4324   -5.2289 H         1 <0>         0.1207
     42 H20        -7.3884   -3.8113   -7.0857 H         1 <0>         0.1221
     43 H21        -5.5576   -2.2081   -6.7098 H         1 <0>         0.1238
     44 O4         -0.2947    1.2509    2.4552 O.co2     1 <0>        -0.7615
     45 N2         -3.8933    1.4497   -3.0199 N.4       1 <0>        -0.4881
     46 H22        -4.5139    2.0796   -2.4981 H         1 <0>         0.4373
     47 H23        -3.9913    0.4943   -2.6566 H         1 <0>         0.4189
     48 O5         -5.1261    3.1051   -6.0841 O.co2     1 <0>        -0.7081
@<TRIPOS>BOND
     1    1    2 1
     2    1   26 1
     3    1   27 1
     4    1   28 1
     5    2    3 1
     6    2    4 1
     7    2   45 1
     8    4    5 2
     9    4    6 am
    10    6   10 1
    11    6    7 1
    12    7    8 1
    13    7   29 1
    14    7   30 1
    15    8    9 1
    16    8   31 1
    17    8   32 1
    18    9   10 1
    19    9   33 1
    20    9   34 1
    21   10   11 1
    22   10   12 1
    23   12   13 2
    24   12   44 1
    25   14   15 1
    26   14   16 1
    27   14   24 1
    28   14   45 1
    29   16   17 1
    30   16   35 1
    31   16   36 1
    32   17   18 1
    33   17   37 1
    34   17   38 1
    35   18   23 ar
    36   18   19 ar
    37   19   20 ar
    38   19   39 1
    39   20   21 ar
    40   20   40 1
    41   21   22 ar
    42   21   41 1
    43   22   23 ar
    44   22   42 1
    45   23   43 1
    46   24   25 2
    47   24   48 1
    48   45   46 1
    49   45   47 1
@<TRIPOS>MOLECULE
ZINC03812885
   28    28     0     0     0
SMALL
USER_CHARGES

@<TRIPOS>ATOM
      1 C1         -0.0619    4.5606   -0.0365 C.3       1 <0>        -0.1506
      2 C2          0.9624    4.1501    1.0233 C.3       1 <0>        -0.0860
      3 H1          0.4444    3.7338    1.8872 H         1 <0>         0.1001
      4 C3          1.7694    5.3763    1.4545 C.3       1 <0>        -0.0419
      5 S1          0.6728    6.5618    2.2808 S.3       1 <0>        -0.2556
      6 C4          1.8926    3.1135    0.4478 C.2       1 <0>         0.5407
      7 O1          3.0838    3.3338    0.3885 O.2       1 <0>        -0.5283
      8 N1          1.4009    1.9416   -0.0009 N.am      1 <0>        -0.5937
      9 C5         -0.0189    1.5449    0.0105 C.3       1 <0>         0.0994
     10 C6          0.0021   -0.0041    0.0020 C.3       1 <0>        -0.1357
     11 C7          1.2112   -0.2941   -0.9261 C.3       1 <0>        -0.1042
     12 C8          2.1914    0.8475   -0.5836 C.3       1 <0>         0.0911
     13 H2          2.9296    0.4982    0.1383 H         1 <0>         0.0728
     14 C9          2.8837    1.3215   -1.8355 C.2       1 <0>         0.4621
     15 O2          2.7470    2.4634   -2.2060 O.co2     1 <0>        -0.6185
     16 H3          0.4561    4.9769   -0.9005 H         1 <0>         0.0660
     17 H4         -0.6369    3.6870   -0.3438 H         1 <0>         0.0678
     18 H5         -0.7348    5.3104    0.3797 H         1 <0>         0.0725
     19 H6          2.5570    5.0693    2.1426 H         1 <0>         0.0912
     20 H7          2.2156    5.8446    0.5772 H         1 <0>         0.0929
     21 H8          1.4852    7.5823    2.6090 H         1 <0>         0.0869
     22 H9         -0.5254    1.9223   -0.8778 H         1 <0>         0.0678
     23 H10        -0.5083    1.9127    0.9124 H         1 <0>         0.0717
     24 H11         0.1750   -0.3980    1.0035 H         1 <0>         0.0721
     25 H12        -0.9197   -0.4050   -0.4194 H         1 <0>         0.0791
     26 H13         1.6519   -1.2636   -0.6937 H         1 <0>         0.0781
     27 H14         0.9136   -0.2457   -1.9736 H         1 <0>         0.0745
     28 O3          3.6521    0.4751   -2.5390 O.co2     1 <0>        -0.7719
@<TRIPOS>BOND
     1    1    2 1
     2    1   16 1
     3    1   17 1
     4    1   18 1
     5    2    3 1
     6    2    4 1
     7    2    6 1
     8    4    5 1
     9    4   19 1
    10    4   20 1
    11    5   21 1
    12    6    7 2
    13    6    8 am
    14    8   12 1
    15    8    9 1
    16    9   10 1
    17    9   22 1
    18    9   23 1
    19   10   11 1
    20   10   24 1
    21   10   25 1
    22   11   12 1
    23   11   26 1
    24   11   27 1
    25   12   13 1
    26   12   14 1
    27   14   15 2
    28   14   28 1
@<TRIPOS>MOLECULE
ZINC03814157
   21    20     0     0     0
SMALL
USER_CHARGES

@<TRIPOS>ATOM
      1 C1         -2.0649    0.7569    4.0206 C.3       1 <0>        -0.1372
      2 C2         -0.9273    1.7184    3.6711 C.3       1 <0>         0.0939
      3 H1         -1.3348    2.7132    3.4910 H         1 <0>         0.0889
      4 C3          0.0512    1.7761    4.8157 C.2       1 <0>         0.4630
      5 O1          1.2032    1.4554    4.6425 O.co2     1 <0>        -0.6350
      6 N1         -0.2416    1.2460    2.4658 N.am      1 <0>        -0.6971
      7 C4         -0.7181    1.5718    1.2479 C.2       1 <0>         0.5126
      8 O2         -1.7145    2.2562    1.1498 O.2       1 <0>        -0.5597
      9 C5         -0.0127    1.0858    0.0080 C.3       1 <0>        -0.1260
     10 C6         -0.7527    1.5927   -1.2315 C.3       1 <0>        -0.0444
     11 S1          0.0964    1.0076   -2.7240 S.3       1 <0>        -0.2583
     12 H2         -2.7727    0.7152    3.1927 H         1 <0>         0.0476
     13 H3         -1.6575   -0.2379    4.2008 H         1 <0>         0.0484
     14 H4         -2.5751    1.1084    4.9174 H         1 <0>         0.0713
     15 H5          0.5554    0.6986    2.5442 H         1 <0>         0.4064
     16 H6          0.0021   -0.0041    0.0020 H         1 <0>         0.1032
     17 H7          1.0099    1.4631    0.0003 H         1 <0>         0.1048
     18 H8         -1.7753    1.2154   -1.2238 H         1 <0>         0.0910
     19 H9         -0.7675    2.6825   -1.2255 H         1 <0>         0.0914
     20 H10        -0.6368    1.5101   -3.7335 H         1 <0>         0.0902
     21 O3         -0.3569    2.1837    6.0278 O.co2     1 <0>        -0.7551
@<TRIPOS>BOND
     1    1    2 1
     2    1   12 1
     3    1   13 1
     4    1   14 1
     5    2    3 1
     6    2    4 1
     7    2    6 1
     8    4    5 2
     9    4   21 1
    10    6    7 am
    11    6   15 1
    12    7    8 2
    13    7    9 1
    14    9   10 1
    15    9   16 1
    16    9   17 1
    17   10   11 1
    18   10   18 1
    19   10   19 1
    20   11   20 1
@<TRIPOS>MOLECULE
ZINC03814158
   29    29     0     0     0
SMALL
USER_CHARGES

@<TRIPOS>ATOM
      1 C1          0.8422    2.7607    3.0988 C.3       1 <0>        -0.1364
      2 C2         -0.1234    1.6800    2.6082 C.3       1 <0>         0.1033
      3 H1          0.4333    0.7704    2.3829 H         1 <0>         0.0649
      4 C3         -1.1425    1.3926    3.6806 C.2       1 <0>         0.5387
      5 O1         -2.3225    1.5614    3.4567 O.2       1 <0>        -0.5308
      6 N1         -0.7427    0.9480    4.8884 N.am      1 <0>        -0.6044
      7 C4          0.6529    0.7007    5.2941 C.3       1 <0>         0.1014
      8 C5          0.5545   -0.3331    6.4436 C.3       1 <0>        -0.1340
      9 C6         -0.7303    0.1366    7.1757 C.3       1 <0>        -0.0993
     10 C7         -1.6255    0.6354    6.0217 C.3       1 <0>         0.0908
     11 H2         -2.3307   -0.1458    5.7378 H         1 <0>         0.0649
     12 C8         -2.3718    1.8737    6.4468 C.2       1 <0>         0.4634
     13 O2         -2.1902    2.9176    5.8663 O.co2     1 <0>        -0.6075
     14 N2         -0.8075    2.1485    1.3956 N.pl3     1 <0>        -1.0466
     15 P1         -0.0198    1.6058    0.0109 P.3       1 <0>         2.1814
     16 O3         -0.7356    2.0960   -1.1881 O.2       1 <0>        -1.1705
     17 H3          1.3498    2.4131    3.9986 H         1 <0>         0.0394
     18 H4          1.5793    2.9686    2.3232 H         1 <0>         0.0856
     19 H5          0.2855    3.6703    3.3241 H         1 <0>         0.0479
     20 H6          1.2228    0.2888    4.4612 H         1 <0>         0.0764
     21 H7          1.1132    1.6221    5.6509 H         1 <0>         0.0615
     22 H8          0.4337   -1.3429    6.0515 H         1 <0>         0.0699
     23 H9          1.4227   -0.2716    7.0997 H         1 <0>         0.0715
     24 H10        -1.2010   -0.6949    7.7003 H         1 <0>         0.0691
     25 H11        -0.5058    0.9510    7.8645 H         1 <0>         0.0681
     26 H12        -1.7761    1.8659    1.3948 H         1 <0>         0.3412
     27 O4         -3.2383    1.8168    7.4704 O.co2     1 <0>        -0.7940
     28 O5          0.0021   -0.0041    0.0020 O.3       1 <0>        -1.2188
     29 O6          1.4907    2.1630   -0.0006 O.3       1 <0>        -1.1972
@<TRIPOS>BOND
     1    1    2 1
     2    1   17 1
     3    1   18 1
     4    1   19 1
     5    2    3 1
     6    2    4 1
     7    2   14 1
     8    4    5 2
     9    4    6 am
    10    6   10 1
    11    6    7 1
    12    7    8 1
    13    7   20 1
    14    7   21 1
    15    8    9 1
    16    8   22 1
    17    8   23 1
    18    9   10 1
    19    9   24 1
    20    9   25 1
    21   10   11 1
    22   10   12 1
    23   12   13 2
    24   12   27 1
    25   14   15 1
    26   14   26 1
    27   15   16 2
    28   15   28 1
    29   15   29 1
@<TRIPOS>MOLECULE
ZINC03814159
   32    33     0     0     0
SMALL
USER_CHARGES

@<TRIPOS>ATOM
      1 C1          2.9922    2.8098    3.8385 C.ar      1 <0>        -0.1516
      2 C2          3.2318    1.9400    4.8938 C.ar      1 <0>        -0.1047
      3 C3          2.4140    0.8523    5.1073 C.ar      1 <0>        -0.1316
      4 C4          1.3432    0.6144    4.2516 C.ar      1 <0>         0.0943
      5 C5          1.1063    1.4971    3.1822 C.ar      1 <0>        -0.0941
      6 C6          1.9437    2.5976    2.9887 C.ar      1 <0>        -0.0708
      7 C7         -0.0738    0.9805    2.4848 C.2       1 <0>        -0.1520
      8 C8         -0.4574   -0.1308    3.1328 C.2       1 <0>         0.0478
      9 N1          0.3775   -0.3651    4.1913 N.pl3     1 <0>        -0.5970
     10 H1          0.3003   -1.1102    4.8075 H         1 <0>         0.4128
     11 C9         -0.7288    1.5792    1.2668 C.3       1 <0>        -0.0394
     12 C10        -0.0127    1.0858    0.0080 C.3       1 <0>         0.1125
     13 H2          0.0021   -0.0041    0.0020 H         1 <0>         0.0895
     14 C11        -0.7416    1.5850   -1.2129 C.2       1 <0>         0.4583
     15 O1         -0.1715    2.2919   -2.0099 O.co2     1 <0>        -0.6274
     16 N2          1.3617    1.5929   -0.0024 N.am      1 <0>        -0.6895
     17 C12         2.3184    0.9327   -0.6846 C.2       1 <0>         0.5331
     18 O2          2.0415   -0.0811   -1.2899 O.2       1 <0>        -0.5232
     19 C13         3.7322    1.4544   -0.6953 C.3       1 <0>        -0.1034
     20 S1          4.7749    0.3546   -1.6922 S.3       1 <0>        -0.1707
     21 H3          3.6396    3.6611    3.6884 H         1 <0>         0.1190
     22 H4          4.0645    2.1212    5.5573 H         1 <0>         0.1201
     23 H5          2.6099    0.1804    5.9299 H         1 <0>         0.1151
     24 H6          1.7633    3.2784    2.1699 H         1 <0>         0.1181
     25 H7         -1.3005   -0.7480    2.8596 H         1 <0>         0.1720
     26 H8         -0.6662    2.6662    1.3180 H         1 <0>         0.0690
     27 H9         -1.7755    1.2768    1.2315 H         1 <0>         0.0966
     28 H10         1.5832    2.4038    0.4817 H         1 <0>         0.3891
     29 H11         3.7466    2.4563   -1.1244 H         1 <0>         0.1096
     30 H12         4.1138    1.4906    0.3251 H         1 <0>         0.1059
     31 H13         5.9954    0.9162   -1.6272 H         1 <0>         0.0589
     32 O3         -2.0241    1.2444   -1.4149 O.co2     1 <0>        -0.7660
@<TRIPOS>BOND
     1    1    6 ar
     2    1    2 ar
     3    1   21 1
     4    2    3 ar
     5    2   22 1
     6    3    4 ar
     7    3   23 1
     8    4    9 1
     9    4    5 ar
    10    5    6 ar
    11    5    7 1
    12    6   24 1
    13    7    8 2
    14    7   11 1
    15    8    9 1
    16    8   25 1
    17    9   10 1
    18   11   12 1
    19   11   26 1
    20   11   27 1
    21   12   13 1
    22   12   14 1
    23   12   16 1
    24   14   15 2
    25   14   32 1
    26   16   17 am
    27   16   28 1
    28   17   18 2
    29   17   19 1
    30   19   20 1
    31   19   29 1
    32   19   30 1
    33   20   31 1
@<TRIPOS>MOLECULE
ZINC03814160
   24    25     0     0     0
SMALL
USER_CHARGES

@<TRIPOS>ATOM
      1 C1         -0.8518   -2.2380    2.5020 C.3       1 <0>         0.1830
      2 C2         -1.8665   -1.1232    2.3876 C.2       1 <0>        -0.1910
      3 C3         -2.0640   -0.4699    1.2741 C.2       1 <0>        -0.1051
      4 C4         -1.2926   -0.7753    0.0102 C.3       1 <0>         0.1496
      5 H1         -1.8885   -0.5071   -0.8622 H         1 <0>         0.1248
      6 N1         -1.0148   -2.2144   -0.0001 N.am      1 <0>        -0.3921
      7 N2         -0.8015   -2.9233    1.2073 N.am      1 <0>        -0.4146
      8 C5         -0.5761   -4.1953    0.8829 C.2       1 <0>         0.7074
      9 O1         -0.3521   -5.1011    1.6619 O.2       1 <0>        -0.5414
     10 N3         -0.6398   -4.3041   -0.4626 N.am      1 <0>        -0.5628
     11 C6         -0.9077   -3.0919   -0.9965 C.2       1 <0>         0.7072
     12 O2         -1.0299   -2.8451   -2.1804 O.2       1 <0>        -0.5323
     13 C7         -0.4484   -5.5416   -1.2230 C.3       1 <0>         0.2009
     14 S1          1.3066   -5.7284   -1.6423 S.3       1 <0>        -0.2453
     15 C8          0.0021   -0.0041    0.0020 C.2       1 <0>         0.4636
     16 O3          1.0565   -0.5939   -0.0112 O.co2     1 <0>        -0.6080
     17 H2         -1.1573   -2.9381    3.2797 H         1 <0>         0.1104
     18 H3          0.1279   -1.8238    2.7399 H         1 <0>         0.0946
     19 H4         -2.4495   -0.8581    3.2572 H         1 <0>         0.1336
     20 H5         -2.8037    0.3168    1.2557 H         1 <0>         0.1344
     21 H6         -0.7706   -6.3914   -0.6211 H         1 <0>         0.1153
     22 H7         -1.0383   -5.5004   -2.1386 H         1 <0>         0.1157
     23 H8          1.3558   -6.8837   -2.3292 H         1 <0>         0.0965
     24 O4         -0.0161    1.3381    0.0094 O.co2     1 <0>        -0.7444
@<TRIPOS>BOND
     1    1    7 1
     2    1    2 1
     3    1   17 1
     4    1   18 1
     5    2    3 2
     6    2   19 1
     7    3    4 1
     8    3   20 1
     9    4    5 1
    10    4    6 1
    11    4   15 1
    12    6   11 am
    13    6    7 1
    14    7    8 am
    15    8    9 2
    16    8   10 am
    17   10   11 am
    18   10   13 1
    19   11   12 2
    20   13   14 1
    21   13   21 1
    22   13   22 1
    23   14   23 1
    24   15   16 2
    25   15   24 1
@<TRIPOS>MOLECULE
ZINC03814161
   30    30     0     0     0
SMALL
USER_CHARGES

@<TRIPOS>ATOM
      1 C1         -2.4544    2.2670    4.8635 C.ar      1 <0>        -0.1327
      2 C2         -2.0903    3.2325    3.9436 C.ar      1 <0>        -0.1236
      3 C3         -2.4310    3.0823    2.6124 C.ar      1 <0>        -0.1073
      4 C4         -3.1358    1.9665    2.2010 C.ar      1 <0>        -0.0728
      5 C5         -3.5045    1.0036    3.1217 C.ar      1 <0>        -0.1174
      6 C6         -3.1592    1.1513    4.4521 C.ar      1 <0>        -0.1225
      7 C7         -3.5077    1.8029    0.7498 C.3       1 <0>        -0.0649
      8 C8         -2.3926    1.0520    0.0191 C.3       1 <0>         0.0581
      9 H1         -2.1974    0.1075    0.5269 H         1 <0>         0.0861
     10 C9         -2.8169    0.7805   -1.4012 C.2       1 <0>         0.4582
     11 O1         -2.1687    1.2220   -2.3203 O.co2     1 <0>        -0.6212
     12 O2         -1.1858    1.8593    0.0178 O.3       1 <0>        -0.3321
     13 C10        -0.0143    1.2041    0.0087 C.2       1 <0>         0.4700
     14 O3          0.0021   -0.0041    0.0020 O.2       1 <0>        -0.5171
     15 C11         1.2804    1.9752    0.0004 C.3       1 <0>        -0.0962
     16 C12         2.4566    0.9969   -0.0160 C.3       1 <0>        -0.0534
     17 S1          4.0151    1.9252   -0.0259 S.3       1 <0>        -0.2485
     18 H2         -2.1885    2.3846    5.9036 H         1 <0>         0.1157
     19 H3         -1.5400    4.1044    4.2651 H         1 <0>         0.1182
     20 H4         -2.1469    3.8368    1.8937 H         1 <0>         0.1244
     21 H5         -4.0589    0.1340    2.8010 H         1 <0>         0.1230
     22 H6         -3.4440    0.3972    5.1708 H         1 <0>         0.1176
     23 H7         -3.6421    2.7849    0.2962 H         1 <0>         0.0802
     24 H8         -4.4365    1.2375    0.6742 H         1 <0>         0.1029
     25 H9          1.3211    2.6074   -0.8866 H         1 <0>         0.1171
     26 H10         1.3381    2.5978    0.8933 H         1 <0>         0.1119
     27 H11         2.4159    0.3648    0.8710 H         1 <0>         0.0925
     28 H12         2.3989    0.3743   -0.9089 H         1 <0>         0.0955
     29 H13         4.9624    0.9705   -0.0401 H         1 <0>         0.0921
     30 O4         -3.9150    0.0481   -1.6453 O.co2     1 <0>        -0.7537
@<TRIPOS>BOND
     1    1    6 ar
     2    1    2 ar
     3    1   18 1
     4    2    3 ar
     5    2   19 1
     6    3    4 ar
     7    3   20 1
     8    4    5 ar
     9    4    7 1
    10    5    6 ar
    11    5   21 1
    12    6   22 1
    13    7    8 1
    14    7   23 1
    15    7   24 1
    16    8    9 1
    17    8   10 1
    18    8   12 1
    19   10   11 2
    20   10   30 1
    21   12   13 1
    22   13   14 2
    23   13   15 1
    24   15   16 1
    25   15   25 1
    26   15   26 1
    27   16   17 1
    28   16   27 1
    29   16   28 1
    30   17   29 1
@<TRIPOS>MOLECULE
ZINC03814162
   23    23     0     0     0
SMALL
USER_CHARGES

@<TRIPOS>ATOM
      1 C1         -3.5073    2.4301    0.0589 C.3       1 <0>        -0.0948
      2 C2         -2.5244    1.2477    0.1500 C.3       1 <0>         0.0932
      3 N1         -1.1971    1.8731    0.0626 N.am      1 <0>        -0.5605
      4 C3         -1.3478    3.2519   -0.0740 C.2       1 <0>         0.0851
      5 C4         -2.6168    3.6434   -0.0847 C.2       1 <0>        -0.2276
      6 C5         -0.2115    4.1832   -0.1941 C.2       1 <0>         0.4819
      7 O1          0.9185    3.7513   -0.3085 O.co2     1 <0>        -0.5739
      8 C6         -0.0207    1.2166    0.1023 C.2       1 <0>         0.4924
      9 O2          1.0203    1.8385    0.1299 O.2       1 <0>        -0.4337
     10 C7          0.0011   -0.2902    0.1187 C.3       1 <0>        -0.1172
     11 C8          1.4486   -0.7801    0.0448 C.3       1 <0>        -0.0464
     12 S1          1.4749   -2.5938    0.0646 S.3       1 <0>        -0.2616
     13 H1         -4.1075    2.5026    0.9658 H         1 <0>         0.0759
     14 H2         -4.1483    2.3217   -0.8161 H         1 <0>         0.0748
     15 H3         -2.6764    0.5580   -0.6803 H         1 <0>         0.0720
     16 H4         -2.6403    0.7307    1.1025 H         1 <0>         0.0714
     17 H5         -2.9576    4.6638   -0.1805 H         1 <0>         0.1487
     18 H6         -0.4578   -0.6502    1.0395 H         1 <0>         0.0997
     19 H7         -0.5555   -0.6710   -0.7376 H         1 <0>         0.0976
     20 H8          1.9075   -0.4201   -0.8760 H         1 <0>         0.0929
     21 H9          2.0052   -0.3994    0.9011 H         1 <0>         0.0942
     22 H10         2.7825   -2.9011   -0.0038 H         1 <0>         0.0926
     23 O3         -0.4259    5.5136   -0.1769 O.co2     1 <0>        -0.7567
@<TRIPOS>BOND
     1    1    5 1
     2    1    2 1
     3    1   13 1
     4    1   14 1
     5    2    3 1
     6    2   15 1
     7    2   16 1
     8    3    4 1
     9    3    8 am
    10    4    5 2
    11    4    6 1
    12    5   17 1
    13    6    7 2
    14    6   23 1
    15    8    9 2
    16    8   10 1
    17   10   11 1
    18   10   18 1
    19   10   19 1
    20   11   12 1
    21   11   20 1
    22   11   21 1
    23   12   22 1
@<TRIPOS>MOLECULE
ZINC03814163
   30    31     0     0     0
SMALL
USER_CHARGES

@<TRIPOS>ATOM
      1 C1         -0.3458    2.7357   -1.8289 C.2       1 <0>        -0.1041
      2 C2         -0.7416    1.5850   -1.2129 C.2       1 <0>        -0.1475
      3 C3         -1.8373    0.8742   -1.7237 C.2       1 <0>         0.5156
      4 O1         -2.1991   -0.1553   -1.1758 O.2       1 <0>        -0.4966
      5 N1         -2.4969    1.3188   -2.8171 N.am      1 <0>        -0.4712
      6 C4         -2.0992    2.4610   -3.4395 C.2       1 <0>         0.0961
      7 C5         -1.0396    3.1725   -2.9677 C.2       1 <0>         0.0070
      8 O2         -0.6547    4.3148   -3.5995 O.3       1 <0>        -0.4850
      9 C6         -2.9913    2.7338   -4.6347 C.3       1 <0>        -0.0728
     10 C7         -3.7019    1.3875   -4.8958 C.3       1 <0>        -0.1051
     11 C8         -3.6630    0.7322   -3.4997 C.3       1 <0>         0.0776
     12 H1         -4.5759    0.9620   -2.9503 H         1 <0>         0.0893
     13 C9         -3.4941   -0.7597   -3.6295 C.2       1 <0>         0.4625
     14 O3         -2.5006   -1.2950   -3.1979 O.co2     1 <0>        -0.5895
     15 C10        -0.0127    1.0858    0.0080 C.3       1 <0>        -0.0388
     16 C11        -0.7288    1.5792    1.2668 C.3       1 <0>        -0.1465
     17 C12         0.0000    1.0800    2.4877 C.2       1 <0>         0.4650
     18 O4          0.9906    0.3994    2.3637 O.co2     1 <0>        -0.6419
     19 H2          0.4921    3.3006   -1.4478 H         1 <0>         0.1342
     20 H3          0.1063    4.7517   -3.1932 H         1 <0>         0.3886
     21 H4         -2.3930    3.0228   -5.4988 H         1 <0>         0.0877
     22 H5         -3.7197    3.5099   -4.3998 H         1 <0>         0.0871
     23 H6         -3.1506    0.7903   -5.6222 H         1 <0>         0.0792
     24 H7         -4.7293    1.5456   -5.2237 H         1 <0>         0.0904
     25 H8          0.0021   -0.0041    0.0020 H         1 <0>         0.0814
     26 H9          1.0099    1.4631    0.0003 H         1 <0>         0.0681
     27 H10        -0.7436    2.6691    1.2728 H         1 <0>         0.0583
     28 H11        -1.7514    1.2020    1.2746 H         1 <0>         0.0676
     29 O5         -4.4474   -1.4938   -4.2245 O.co2     1 <0>        -0.7718
     30 O6         -0.4513    1.3915    3.7129 O.co2     1 <0>        -0.7848
@<TRIPOS>BOND
     1    1    7 1
     2    1    2 2
     3    1   19 1
     4    2    3 1
     5    2   15 1
     6    3    4 2
     7    3    5 am
     8    5   11 1
     9    5    6 1
    10    6    7 2
    11    6    9 1
    12    7    8 1
    13    8   20 1
    14    9   10 1
    15    9   21 1
    16    9   22 1
    17   10   11 1
    18   10   23 1
    19   10   24 1
    20   11   12 1
    21   11   13 1
    22   13   14 2
    23   13   29 1
    24   15   16 1
    25   15   25 1
    26   15   26 1
    27   16   17 1
    28   16   27 1
    29   16   28 1
    30   17   18 2
    31   17   30 1
@<TRIPOS>MOLECULE
ZINC03814164
   31    31     0     0     0
SMALL
USER_CHARGES

@<TRIPOS>ATOM
      1 C1         -2.6601    2.6939    4.7543 C.ar      1 <0>        -0.1342
      2 C2         -2.2042    3.5680    3.7853 C.ar      1 <0>        -0.1203
      3 C3         -2.4931    3.3355    2.4536 C.ar      1 <0>        -0.1178
      4 C4         -3.2381    2.2290    2.0910 C.ar      1 <0>        -0.0657
      5 C5         -3.6985    1.3578    3.0605 C.ar      1 <0>        -0.1160
      6 C6         -3.4051    1.5874    4.3917 C.ar      1 <0>        -0.1191
      7 C7         -3.5535    1.9758    0.6393 C.3       1 <0>        -0.0764
      8 C8         -2.4492    1.1169    0.0197 C.3       1 <0>         0.1109
      9 H1         -2.3279    0.2045    0.6037 H         1 <0>         0.0897
     10 C9         -2.8242    0.7611   -1.3959 C.2       1 <0>         0.4585
     11 O1         -2.1130    1.0991   -2.3123 O.co2     1 <0>        -0.6268
     12 N1         -1.1906    1.8666    0.0178 N.am      1 <0>        -0.6960
     13 C10        -0.0144    1.2086    0.0087 C.2       1 <0>         0.5226
     14 O2          0.0021   -0.0041    0.0020 O.2       1 <0>        -0.5481
     15 C11         1.2803    1.9798    0.0005 C.3       1 <0>        -0.1229
     16 C12         2.4566    1.0015   -0.0160 C.3       1 <0>        -0.0439
     17 S1          4.0150    1.9298   -0.0259 S.3       1 <0>        -0.2607
     18 H2         -2.4346    2.8757    5.7948 H         1 <0>         0.1154
     19 H3         -1.6224    4.4327    4.0687 H         1 <0>         0.1175
     20 H4         -2.1372    4.0186    1.6966 H         1 <0>         0.1181
     21 H5         -4.2842    0.4956    2.7775 H         1 <0>         0.1235
     22 H6         -3.7616    0.9047    5.1488 H         1 <0>         0.1176
     23 H7         -3.6146    2.9265    0.1096 H         1 <0>         0.0725
     24 H8         -4.5072    1.4539    0.5603 H         1 <0>         0.0978
     25 H9         -1.2037    2.8365    0.0232 H         1 <0>         0.3916
     26 H10         1.3211    2.6120   -0.8866 H         1 <0>         0.1040
     27 H11         1.3381    2.6024    0.8933 H         1 <0>         0.0991
     28 H12         2.4158    0.3693    0.8710 H         1 <0>         0.0902
     29 H13         2.3988    0.3789   -0.9088 H         1 <0>         0.0932
     30 H14         4.9623    0.9751   -0.0401 H         1 <0>         0.0906
     31 O3         -3.9482    0.0688   -1.6386 O.co2     1 <0>        -0.7651
@<TRIPOS>BOND
     1    1    6 ar
     2    1    2 ar
     3    1   18 1
     4    2    3 ar
     5    2   19 1
     6    3    4 ar
     7    3   20 1
     8    4    5 ar
     9    4    7 1
    10    5    6 ar
    11    5   21 1
    12    6   22 1
    13    7    8 1
    14    7   23 1
    15    7   24 1
    16    8    9 1
    17    8   10 1
    18    8   12 1
    19   10   11 2
    20   10   31 1
    21   12   13 am
    22   12   25 1
    23   13   14 2
    24   13   15 1
    25   15   16 1
    26   15   26 1
    27   15   27 1
    28   16   17 1
    29   16   28 1
    30   16   29 1
    31   17   30 1
@<TRIPOS>MOLECULE
ZINC03814165
   35    36     0     0     0
SMALL
USER_CHARGES

@<TRIPOS>ATOM
      1 C1         -0.0187    1.5258    0.0104 C.3       1 <0>        -0.1355
      2 C2          0.0021   -0.0041    0.0020 C.3       1 <0>        -0.0601
      3 H1         -1.0205   -0.3814    0.0098 H         1 <0>         0.1309
      4 C3          0.7074   -0.4901   -1.2379 C.2       1 <0>         0.5212
      5 O1          1.6458    0.1342   -1.6858 O.2       1 <0>        -0.5477
      6 N1          0.2955   -1.6185   -1.8490 N.am      1 <0>        -0.6796
      7 C4          0.9812   -2.0909   -3.0543 C.3       1 <0>         0.1103
      8 H2          2.0452   -1.8666   -2.9785 H         1 <0>         0.0866
      9 C5          0.7872   -3.6023   -3.1921 C.3       1 <0>        -0.0391
     10 C6          1.4688   -4.3029   -2.0452 C.2       1 <0>        -0.1536
     11 C7          2.7074   -4.8204   -2.0482 C.2       1 <0>         0.0446
     12 N2          2.9836   -5.3769   -0.8291 N.pl3     1 <0>        -0.5990
     13 H3          3.8173   -5.8120   -0.5911 H         1 <0>         0.4113
     14 C8          1.9019   -5.2273    0.0097 C.ar      1 <0>         0.0950
     15 C9          0.9077   -4.5428   -0.7134 C.ar      1 <0>        -0.0905
     16 C10        -0.3174   -4.2534   -0.1101 C.ar      1 <0>        -0.0652
     17 C11        -0.5410   -4.6278    1.1851 C.ar      1 <0>        -0.1427
     18 C12         0.4386   -5.2981    1.9044 C.ar      1 <0>        -0.1000
     19 C13         1.6529   -5.5985    1.3267 C.ar      1 <0>        -0.1333
     20 C14         0.4067   -1.3984   -4.2632 C.2       1 <0>         0.4588
     21 O2         -0.4842   -0.5928   -4.1314 O.co2     1 <0>        -0.6283
     22 S1          0.8794   -0.6050    1.4716 S.3       1 <0>        -0.2095
     23 H4          1.0039    1.9031    0.0027 H         1 <0>         0.0633
     24 H5         -0.5459    1.8868   -0.8726 H         1 <0>         0.0747
     25 H6         -0.5289    1.8773    0.9072 H         1 <0>         0.0739
     26 H7         -0.4550   -2.1178   -1.4907 H         1 <0>         0.3914
     27 H8         -0.2777   -3.8346   -3.1786 H         1 <0>         0.0693
     28 H9          1.2208   -3.9399   -4.1335 H         1 <0>         0.0953
     29 H10         3.3854   -4.8008   -2.8887 H         1 <0>         0.1692
     30 H11        -1.0842   -3.7318   -0.6635 H         1 <0>         0.1148
     31 H12        -1.4875   -4.4000    1.6527 H         1 <0>         0.1186
     32 H13         0.2472   -5.5869    2.9273 H         1 <0>         0.1189
     33 H14         2.4089   -6.1201    1.8948 H         1 <0>         0.1125
     34 H15         2.1123   -0.0808    1.3516 H         1 <0>         0.0891
     35 O3          0.8846   -1.6765   -5.4863 O.co2     1 <0>        -0.7655
@<TRIPOS>BOND
     1    1    2 1
     2    1   23 1
     3    1   24 1
     4    1   25 1
     5    2    3 1
     6    2    4 1
     7    2   22 1
     8    4    5 2
     9    4    6 am
    10    6    7 1
    11    6   26 1
    12    7    8 1
    13    7    9 1
    14    7   20 1
    15    9   10 1
    16    9   27 1
    17    9   28 1
    18   10   15 1
    19   10   11 2
    20   11   12 1
    21   11   29 1
    22   12   13 1
    23   12   14 1
    24   14   19 ar
    25   14   15 ar
    26   15   16 ar
    27   16   17 ar
    28   16   30 1
    29   17   18 ar
    30   17   31 1
    31   18   19 ar
    32   18   32 1
    33   19   33 1
    34   20   21 2
    35   20   35 1
    36   22   34 1
@<TRIPOS>MOLECULE
ZINC03814166
   62    64     0     0     0
SMALL
USER_CHARGES

@<TRIPOS>ATOM
      1 C1         -0.5434   -4.7716   -1.3839 C.ar      1 <0>        -0.1116
      2 C2         -1.6767   -4.0007   -1.2048 C.ar      1 <0>        -0.1062
      3 C3         -1.5834   -2.6215   -1.2159 C.ar      1 <0>        -0.0989
      4 C4         -0.3567   -2.0133   -1.4063 C.ar      1 <0>        -0.1138
      5 C5          0.7758   -2.7842   -1.5907 C.ar      1 <0>        -0.1415
      6 C6          0.6833   -4.1634   -1.5743 C.ar      1 <0>        -0.1127
      7 C7         -0.2550   -0.5098   -1.4189 C.3       1 <0>        -0.0940
      8 C8          0.0021   -0.0041    0.0020 C.3       1 <0>         0.0178
      9 H1         -0.7738   -0.3816    0.6680 H         1 <0>         0.1634
     10 C9         -0.0184    1.5028    0.0103 C.2       1 <0>         0.5053
     11 O1          1.0236    2.1234    0.0037 O.2       1 <0>        -0.5419
     12 N1         -1.1946    2.1607    0.0195 N.am      1 <0>        -0.6565
     13 C10        -1.2145    3.6256    0.0275 C.3       1 <0>         0.1009
     14 H2         -0.3749    3.9971    0.6150 H         1 <0>         0.0943
     15 C11        -2.5257    4.1144    0.6460 C.3       1 <0>        -0.0897
     16 C12        -2.5806    3.7008    2.1180 C.3       1 <0>        -0.1519
     17 C13        -3.8722    4.1823    2.7273 C.2       1 <0>         0.5533
     18 O2         -4.6701    4.7959    2.0507 O.2       1 <0>        -0.5535
     19 N2         -4.1405    3.9311    4.0239 N.am      1 <0>        -0.5891
     20 C14        -5.3486    4.3352    4.7479 C.3       1 <0>         0.1483
     21 H3         -5.1746    5.3162    5.1900 H         1 <0>         0.0533
     22 C15        -6.5698    4.4165    3.8604 C.3       1 <0>        -0.1309
     23 C16        -6.9692    3.0358    3.3399 C.3       1 <0>        -0.1094
     24 C17        -7.2614    2.1311    4.5418 C.3       1 <0>        -0.1114
     25 C18        -5.9790    1.9681    5.3542 C.3       1 <0>        -0.1297
     26 C19        -5.5055    3.3192    5.8942 C.3       1 <0>        -0.0974
     27 H4         -6.1396    3.6905    6.6993 H         1 <0>         0.0879
     28 C20        -4.0154    3.1328    6.3152 C.3       1 <0>        -0.1104
     29 C21        -3.2732    3.1958    4.9619 C.3       1 <0>         0.0805
     30 H5         -2.3273    3.7234    5.0840 H         1 <0>         0.0732
     31 C22        -3.0241    1.8022    4.4453 C.2       1 <0>         0.4679
     32 O3         -3.5164    1.4483    3.4002 O.co2     1 <0>        -0.6178
     33 C23        -1.1042    4.1372   -1.3857 C.2       1 <0>         0.4646
     34 O4         -1.0178    3.3582   -2.3052 O.co2     1 <0>        -0.6366
     35 H6         -0.6164   -5.8491   -1.3756 H         1 <0>         0.1266
     36 H7         -2.6352   -4.4758   -1.0564 H         1 <0>         0.1302
     37 H8         -2.4689   -2.0192   -1.0763 H         1 <0>         0.1350
     38 H9          1.7335   -2.3090   -1.7438 H         1 <0>         0.1232
     39 H10         1.5687   -4.7657   -1.7146 H         1 <0>         0.1271
     40 H11        -1.1871   -0.0857   -1.7924 H         1 <0>         0.1298
     41 H12         0.5674   -0.2067   -2.0668 H         1 <0>         0.1060
     42 H13        -2.0280    1.6644    0.0207 H         1 <0>         0.4049
     43 H14        -2.5798    5.2005    0.5716 H         1 <0>         0.0933
     44 H15        -3.3665    3.6713    0.1125 H         1 <0>         0.0694
     45 H16        -2.5265    2.6147    2.1925 H         1 <0>         0.1244
     46 H17        -1.7398    4.1439    2.6516 H         1 <0>         0.0735
     47 H18        -7.3983    4.8366    4.4307 H         1 <0>         0.0552
     48 H19        -6.3534    5.0684    3.0140 H         1 <0>         0.0974
     49 H20        -7.8614    3.1214    2.7195 H         1 <0>         0.0510
     50 H21        -6.1528    2.6144    2.7533 H         1 <0>         0.0714
     51 H22        -8.0326    2.5864    5.1633 H         1 <0>         0.0504
     52 H23        -7.6019    1.1566    4.1919 H         1 <0>         0.0531
     53 H24        -6.1664    1.2933    6.1894 H         1 <0>         0.0500
     54 H25        -5.2022    1.5444    4.7177 H         1 <0>         0.0983
     55 H26        -3.6958    3.9406    6.9735 H         1 <0>         0.0651
     56 H27        -3.8664    2.1633    6.7905 H         1 <0>         0.0876
     57 H28         2.0512   -0.1417   -0.1409 H         1 <0>         0.4382
     58 H29         1.4805   -0.2121    1.4196 H         1 <0>         0.4425
     59 O5         -2.2553    0.9540    5.1463 O.co2     1 <0>        -0.7656
     60 O6         -1.1018    5.4584   -1.6228 O.co2     1 <0>        -0.7510
     61 N3          1.3112   -0.5035    0.4583 N.4       1 <0>        -0.6265
     62 H30         1.3153   -1.5293    0.4136 H         1 <0>         0.4340
@<TRIPOS>BOND
     1    1    6 ar
     2    1    2 ar
     3    1   35 1
     4    2    3 ar
     5    2   36 1
     6    3    4 ar
     7    3   37 1
     8    4    5 ar
     9    4    7 1
    10    5    6 ar
    11    5   38 1
    12    6   39 1
    13    7    8 1
    14    7   40 1
    15    7   41 1
    16    8    9 1
    17    8   10 1
    18    8   61 1
    19   10   11 2
    20   10   12 am
    21   12   13 1
    22   12   42 1
    23   13   14 1
    24   13   15 1
    25   13   33 1
    26   15   16 1
    27   15   43 1
    28   15   44 1
    29   16   17 1
    30   16   45 1
    31   16   46 1
    32   17   18 2
    33   17   19 am
    34   19   29 1
    35   19   20 1
    36   20   21 1
    37   20   26 1
    38   20   22 1
    39   22   23 1
    40   22   47 1
    41   22   48 1
    42   23   24 1
    43   23   49 1
    44   23   50 1
    45   24   25 1
    46   24   51 1
    47   24   52 1
    48   25   26 1
    49   25   53 1
    50   25   54 1
    51   26   27 1
    52   26   28 1
    53   28   29 1
    54   28   55 1
    55   28   56 1
    56   29   30 1
    57   29   31 1
    58   31   32 2
    59   31   59 1
    60   33   34 2
    61   33   60 1
    62   57   61 1
    63   58   61 1
    64   61   62 1
@<TRIPOS>MOLECULE
ZINC03814167
   25    25     0     0     0
SMALL
USER_CHARGES

@<TRIPOS>ATOM
      1 C1         -0.8250    1.6304   -1.1965 C.3       1 <0>        -0.1342
      2 C2         -0.0127    1.0858    0.0080 C.3       1 <0>        -0.1050
      3 C3         -0.7976    1.6145    1.2270 C.3       1 <0>         0.0920
      4 H1         -1.4676    0.8402    1.6007 H         1 <0>         0.0736
      5 N1         -1.5807    2.7750    0.7685 N.am      1 <0>        -0.5974
      6 C4         -1.2939    3.0056   -0.6591 C.3       1 <0>         0.0998
      7 C5         -2.4187    3.5066    1.5294 C.2       1 <0>         0.5366
      8 O1         -2.5791    3.2244    2.6980 O.2       1 <0>        -0.5292
      9 C6         -3.1565    4.6750    0.9283 C.3       1 <0>        -0.1165
     10 C7         -4.0341    5.3288    1.9975 C.3       1 <0>        -0.0444
     11 S1         -4.9222    6.7353    1.2738 S.3       1 <0>        -0.2622
     12 C8          0.1613    2.0337    2.3114 C.2       1 <0>         0.4621
     13 O2          0.1863    3.1826    2.6847 O.co2     1 <0>        -0.6195
     14 H2         -0.1898    1.7499   -2.0742 H         1 <0>         0.0792
     15 H3         -1.6762    0.9862   -1.4170 H         1 <0>         0.0721
     16 H4          0.0021   -0.0041    0.0020 H         1 <0>         0.0780
     17 H5          1.0020    1.4839    0.0005 H         1 <0>         0.0745
     18 H6         -0.5029    3.7469   -0.7723 H         1 <0>         0.0657
     19 H7         -2.1953    3.3290   -1.1797 H         1 <0>         0.0714
     20 H8         -2.4382    5.4037    0.5524 H         1 <0>         0.1009
     21 H9         -3.7830    4.3258    0.1076 H         1 <0>         0.0972
     22 H10        -4.7524    4.6001    2.3734 H         1 <0>         0.0906
     23 H11        -3.4075    5.6780    2.8182 H         1 <0>         0.0945
     24 H12        -5.6496    7.2213    2.2954 H         1 <0>         0.0913
     25 O3          0.9874    1.1308    2.8626 O.co2     1 <0>        -0.7711
@<TRIPOS>BOND
     1    1    6 1
     2    1    2 1
     3    1   14 1
     4    1   15 1
     5    2    3 1
     6    2   16 1
     7    2   17 1
     8    3    4 1
     9    3    5 1
    10    3   12 1
    11    5    6 1
    12    5    7 am
    13    6   18 1
    14    6   19 1
    15    7    8 2
    16    7    9 1
    17    9   10 1
    18    9   20 1
    19    9   21 1
    20   10   11 1
    21   10   22 1
    22   10   23 1
    23   11   24 1
    24   12   13 2
    25   12   25 1
@<TRIPOS>MOLECULE
ZINC03814168
   33    34     0     0     0
SMALL
USER_CHARGES

@<TRIPOS>ATOM
      1 C1          2.0360    1.8954   -1.2483 C.3       1 <0>        -0.1222
      2 C2          1.1863    2.1303    0.0022 C.3       1 <0>        -0.1270
      3 C3          0.5826    3.5182   -0.0195 C.2       1 <0>         0.5348
      4 O1          1.1843    4.5711   -0.0055 O.2       1 <0>        -0.5163
      5 N1         -0.7534    3.3547   -0.0572 N.am      1 <0>        -0.4141
      6 C4         -1.7358    4.4468   -0.1738 C.3       1 <0>         0.1294
      7 C5         -3.0907    3.9369    0.3281 C.3       1 <0>        -0.1355
      8 C6         -3.4277    2.6221   -0.3821 C.3       1 <0>        -0.1122
      9 C7         -2.4939    1.5204    0.1295 C.3       1 <0>         0.1153
     10 H1         -2.7281    1.2957    1.1700 H         1 <0>         0.0835
     11 N2         -1.1043    1.9992    0.0174 N.am      1 <0>        -0.4112
     12 C8         -0.0144    1.2086    0.0087 C.2       1 <0>         0.5376
     13 O2          0.0021   -0.0041    0.0020 O.2       1 <0>        -0.4409
     14 C9         -2.6680    0.2797   -0.7080 C.2       1 <0>         0.4586
     15 O3         -1.7287   -0.1747   -1.3172 O.co2     1 <0>        -0.5914
     16 C10         2.0255    1.9268    1.2652 C.3       1 <0>        -0.0713
     17 C11         3.2308    2.8687    1.2338 C.3       1 <0>        -0.0700
     18 S1          4.2258    2.6275    2.7313 S.3       1 <0>        -0.2555
     19 H2          1.4323    2.0778   -2.1373 H         1 <0>         0.0649
     20 H3          2.8878    2.5755   -1.2418 H         1 <0>         0.0719
     21 H4          2.3932    0.8657   -1.2567 H         1 <0>         0.0819
     22 H5         -1.4156    5.2938    0.4329 H         1 <0>         0.0918
     23 H6         -1.8200    4.7540   -1.2162 H         1 <0>         0.0755
     24 H7         -3.0403    3.7673    1.4037 H         1 <0>         0.0738
     25 H8         -3.8615    4.6763    0.1107 H         1 <0>         0.0865
     26 H9         -4.4620    2.3495   -0.1723 H         1 <0>         0.0936
     27 H10        -3.2941    2.7441   -1.4570 H         1 <0>         0.0695
     28 H11         1.4180    2.1434    2.1439 H         1 <0>         0.0797
     29 H12         2.3722    0.8944    1.3086 H         1 <0>         0.0973
     30 H13         3.8384    2.6522    0.3551 H         1 <0>         0.0900
     31 H14         2.8841    3.9012    1.1904 H         1 <0>         0.1030
     32 H15         5.2417    3.4977    2.5906 H         1 <0>         0.0872
     33 O4         -3.8666   -0.3207   -0.7772 O.co2     1 <0>        -0.7581
@<TRIPOS>BOND
     1    1    2 1
     2    1   19 1
     3    1   20 1
     4    1   21 1
     5    2   12 1
     6    2    3 1
     7    2   16 1
     8    3    4 2
     9    3    5 am
    10    5   11 1
    11    5    6 1
    12    6    7 1
    13    6   22 1
    14    6   23 1
    15    7    8 1
    16    7   24 1
    17    7   25 1
    18    8    9 1
    19    8   26 1
    20    8   27 1
    21    9   10 1
    22    9   11 1
    23    9   14 1
    24   11   12 am
    25   12   13 2
    26   14   15 2
    27   14   33 1
    28   16   17 1
    29   16   28 1
    30   16   29 1
    31   17   18 1
    32   17   30 1
    33   17   31 1
    34   18   32 1
@<TRIPOS>MOLECULE
ZINC03814169
   35    36     0     0     0
SMALL
USER_CHARGES

@<TRIPOS>ATOM
      1 C1          5.0768    4.7985    2.4496 C.3       1 <0>        -0.1327
      2 C2          4.7580    4.0721    1.1413 C.3       1 <0>        -0.0628
      3 H1          4.9222    4.7473    0.3015 H         1 <0>         0.1298
      4 C3          3.3188    3.6252    1.1527 C.2       1 <0>         0.5192
      5 O1          2.7769    3.3523    2.2028 O.2       1 <0>        -0.5478
      6 N1          2.6340    3.5287   -0.0041 N.am      1 <0>        -0.6798
      7 C4          1.2350    3.0943    0.0069 C.3       1 <0>         0.1096
      8 H2          0.7441    3.4725    0.9036 H         1 <0>         0.0868
      9 C5          0.5222    3.6385   -1.2327 C.3       1 <0>        -0.0397
     10 C6          0.4729    5.1432   -1.1638 C.2       1 <0>        -0.1518
     11 C7         -0.5392    5.8882   -0.6921 C.2       1 <0>         0.0462
     12 N2         -0.2254    7.2165   -0.7890 N.pl3     1 <0>        -0.5977
     13 H3         -0.8007    7.9466   -0.5117 H         1 <0>         0.4124
     14 C8          1.0282    7.3624   -1.3394 C.ar      1 <0>         0.0941
     15 C9          1.5231    6.0699   -1.5930 C.ar      1 <0>        -0.0946
     16 C10         2.7917    5.9072   -2.1523 C.ar      1 <0>        -0.0707
     17 C11         3.5487    7.0058   -2.4481 C.ar      1 <0>        -0.1497
     18 C12         3.0665    8.2827   -2.1968 C.ar      1 <0>        -0.1035
     19 C13         1.8142    8.4665   -1.6521 C.ar      1 <0>        -0.1331
     20 C14         1.1765    1.5884   -0.0006 C.2       1 <0>         0.4568
     21 O2          2.1986    0.9442   -0.0139 O.co2     1 <0>        -0.6219
     22 S1          5.8392    2.6251    0.9742 S.3       1 <0>        -0.2075
     23 H4          4.9126    4.1233    3.2894 H         1 <0>         0.0644
     24 H5          6.1177    5.1218    2.4414 H         1 <0>         0.0740
     25 H6          4.4271    5.6680    2.5501 H         1 <0>         0.0673
     26 H7          3.0675    3.7470   -0.8440 H         1 <0>         0.3916
     27 H8          1.0650    3.3334   -2.1273 H         1 <0>         0.0702
     28 H9         -0.4929    3.2432   -1.2710 H         1 <0>         0.0959
     29 H10        -1.4643    5.4971   -0.2952 H         1 <0>         0.1710
     30 H11         3.1736    4.9165   -2.3503 H         1 <0>         0.1191
     31 H12         4.5300    6.8794   -2.8812 H         1 <0>         0.1209
     32 H13         3.6766    9.1412   -2.4360 H         1 <0>         0.1206
     33 H14         1.4486    9.4641   -1.4586 H         1 <0>         0.1146
     34 H15         5.5496    1.8762    2.0532 H         1 <0>         0.0967
     35 O3         -0.0110    0.9628    0.0073 O.co2     1 <0>        -0.7679
@<TRIPOS>BOND
     1    1    2 1
     2    1   23 1
     3    1   24 1
     4    1   25 1
     5    2    3 1
     6    2    4 1
     7    2   22 1
     8    4    5 2
     9    4    6 am
    10    6    7 1
    11    6   26 1
    12    7    8 1
    13    7    9 1
    14    7   20 1
    15    9   10 1
    16    9   27 1
    17    9   28 1
    18   10   15 1
    19   10   11 2
    20   11   12 1
    21   11   29 1
    22   12   13 1
    23   12   14 1
    24   14   19 ar
    25   14   15 ar
    26   15   16 ar
    27   16   17 ar
    28   16   30 1
    29   17   18 ar
    30   17   31 1
    31   18   19 ar
    32   18   32 1
    33   19   33 1
    34   20   21 2
    35   20   35 1
    36   22   34 1
@<TRIPOS>MOLECULE
ZINC03814170
   32    33     0     0     0
SMALL
USER_CHARGES

@<TRIPOS>ATOM
      1 C1          3.4559    2.3470    1.6853 C.3       1 <0>        -0.1168
      2 C2          3.3229    3.5025    0.6719 C.3       1 <0>        -0.1104
      3 C3          1.8936    3.3412    0.0974 C.3       1 <0>        -0.0828
      4 H1          1.1535    3.7599    0.7794 H         1 <0>         0.1047
      5 C4          1.7378    1.8035   -0.0048 C.3       1 <0>        -0.0215
      6 H2          2.2231    1.4280   -0.9057 H         1 <0>         0.1083
      7 C5          2.4480    1.2668    1.2550 C.3       1 <0>        -0.1234
      8 S1         -0.0162    1.3408    0.0094 S.3       1 <0>        -0.2395
      9 C6          1.7898    3.9801   -1.2635 C.2       1 <0>         0.5394
     10 O1          1.6076    3.2910   -2.2447 O.2       1 <0>        -0.5162
     11 N1          1.8994    5.3175   -1.3902 N.am      1 <0>        -0.5957
     12 C7          2.1144    6.2704   -0.2861 C.3       1 <0>         0.1011
     13 C8          1.5632    7.6178   -0.8091 C.3       1 <0>        -0.1350
     14 C9          1.9707    7.5642   -2.3053 C.3       1 <0>        -0.1041
     15 C10         1.8179    6.0682   -2.6517 C.3       1 <0>         0.0917
     16 H3          0.8527    5.8919   -3.1264 H         1 <0>         0.0728
     17 C11         2.9289    5.6400   -3.5756 C.2       1 <0>         0.4633
     18 O2          3.7149    4.7927   -3.2231 O.co2     1 <0>        -0.6201
     19 H4          3.2183    2.7009    2.6885 H         1 <0>         0.0691
     20 H5          4.4683    1.9439    1.6612 H         1 <0>         0.0684
     21 H6          3.4257    4.4643    1.1744 H         1 <0>         0.0775
     22 H7          4.0672    3.4044   -0.1183 H         1 <0>         0.0823
     23 H8          1.7213    1.0965    2.0493 H         1 <0>         0.0776
     24 H9          2.9706    0.3390    1.0222 H         1 <0>         0.0672
     25 H10         0.0021   -0.0041    0.0020 H         1 <0>         0.0810
     26 H11         1.5651    5.9538    0.6006 H         1 <0>         0.0688
     27 H12         3.1777    6.3590   -0.0631 H         1 <0>         0.0639
     28 H13         2.0389    8.4588   -0.3045 H         1 <0>         0.0783
     29 H14         0.4796    7.6620   -0.7007 H         1 <0>         0.0718
     30 H15         3.0037    7.8867   -2.4354 H         1 <0>         0.0736
     31 H16         1.2992    8.1712   -2.9126 H         1 <0>         0.0778
     32 O3          3.0453    6.1999   -4.7899 O.co2     1 <0>        -0.7727
@<TRIPOS>BOND
     1    1    7 1
     2    1    2 1
     3    1   19 1
     4    1   20 1
     5    2    3 1
     6    2   21 1
     7    2   22 1
     8    3    4 1
     9    3    5 1
    10    3    9 1
    11    5    6 1
    12    5    7 1
    13    5    8 1
    14    7   23 1
    15    7   24 1
    16    8   25 1
    17    9   10 2
    18    9   11 am
    19   11   15 1
    20   11   12 1
    21   12   13 1
    22   12   26 1
    23   12   27 1
    24   13   14 1
    25   13   28 1
    26   13   29 1
    27   14   15 1
    28   14   30 1
    29   14   31 1
    30   15   16 1
    31   15   17 1
    32   17   18 2
    33   17   32 1
@<TRIPOS>MOLECULE
ZINC03814171
   30    31     0     0     0
SMALL
USER_CHARGES

@<TRIPOS>ATOM
      1 C1          0.2044    5.3987    3.2791 C.3       1 <0>        -0.1324
      2 C2         -0.9987    4.5610    3.7055 C.3       1 <0>        -0.1169
      3 C3         -0.9777    3.1950    3.0384 C.3       1 <0>         0.1036
      4 H1         -0.2349    2.5709    3.5353 H         1 <0>         0.0703
      5 N1         -0.6540    3.2747    1.6185 N.am      1 <0>        -0.3969
      6 C4         -1.1150    2.3199    0.7793 C.2       1 <0>         0.5098
      7 O1         -1.8899    1.4785    1.1824 O.2       1 <0>        -0.4424
      8 C5         -0.6634    2.3045   -0.6591 C.3       1 <0>        -0.0894
      9 H2         -0.7277    1.2893   -1.0505 H         1 <0>         0.1284
     10 C6          0.7877    2.7915   -0.7334 C.3       1 <0>        -0.1300
     11 C7          0.9009    4.0986    0.0123 C.2       1 <0>         0.5167
     12 O2          1.6687    4.9556   -0.3709 O.2       1 <0>        -0.5424
     13 N2          0.1429    4.3073    1.1065 N.am      1 <0>        -0.4041
     14 C8          0.1481    5.6187    1.7634 C.3       1 <0>         0.1138
     15 C9         -1.5568    3.2299   -1.4876 C.3       1 <0>        -0.0666
     16 S1         -3.2472    2.5724   -1.5158 S.3       1 <0>        -0.1948
     17 C10        -2.3336    2.5555    3.1928 C.2       1 <0>         0.4847
     18 O3         -3.2471    2.8965    2.4792 O.co2     1 <0>        -0.6096
     19 H3          1.1241    4.8738    3.5374 H         1 <0>         0.0701
     20 H4          0.1788    6.3619    3.7886 H         1 <0>         0.0822
     21 H5         -0.9787    4.4311    4.7876 H         1 <0>         0.0829
     22 H6         -1.9144    5.0818    3.4256 H         1 <0>         0.0728
     23 H7          1.4451    2.0520   -0.2763 H         1 <0>         0.1131
     24 H8          1.0703    2.9399   -1.7756 H         1 <0>         0.1160
     25 H9          1.0210    6.1869    1.4421 H         1 <0>         0.1038
     26 H10        -0.7604    6.1626    1.5048 H         1 <0>         0.0726
     27 H11        -1.5613    4.2248   -1.0424 H         1 <0>         0.0831
     28 H12        -1.1730    3.2893   -2.5061 H         1 <0>         0.0955
     29 H13        -3.9287    3.4589   -2.2633 H         1 <0>         0.0675
     30 O4         -2.5264    1.6073    4.1230 O.co2     1 <0>        -0.7613
@<TRIPOS>BOND
     1    1   14 1
     2    1    2 1
     3    1   19 1
     4    1   20 1
     5    2    3 1
     6    2   21 1
     7    2   22 1
     8    3    4 1
     9    3    5 1
    10    3   17 1
    11    5   13 1
    12    5    6 am
    13    6    7 2
    14    6    8 1
    15    8    9 1
    16    8   10 1
    17    8   15 1
    18   10   11 1
    19   10   23 1
    20   10   24 1
    21   11   12 2
    22   11   13 am
    23   13   14 1
    24   14   25 1
    25   14   26 1
    26   15   16 1
    27   15   27 1
    28   15   28 1
    29   16   29 1
    30   17   18 2
    31   17   30 1
@<TRIPOS>MOLECULE
ZINC03814172
   38    39     0     0     0
SMALL
USER_CHARGES

@<TRIPOS>ATOM
      1 C1          1.2847    3.8936   -1.2967 C.3       1 <0>        -0.1447
      2 C2          1.8630    3.3284    0.0021 C.3       1 <0>        -0.0946
      3 H1          1.3133    3.7342    0.8514 H         1 <0>         0.1064
      4 C3          1.7378    1.8035   -0.0048 C.3       1 <0>        -0.0407
      5 S1         -0.0162    1.3408    0.0094 S.3       1 <0>        -0.2533
      6 C4          3.3158    3.7126    0.1142 C.2       1 <0>         0.5272
      7 O1          4.1673    2.8516    0.1818 O.2       1 <0>        -0.5512
      8 N1          3.6690    5.0131    0.1393 N.am      1 <0>        -0.6892
      9 C5          5.0814    5.3866    0.2482 C.3       1 <0>         0.1109
     10 H2          5.6911    4.6642   -0.2945 H         1 <0>         0.0871
     11 C6          5.2881    6.7796   -0.3497 C.3       1 <0>        -0.0400
     12 C7          4.9991    6.7397   -1.8282 C.2       1 <0>        -0.1512
     13 C8          5.8962    6.5732   -2.8129 C.2       1 <0>         0.0457
     14 N2          5.2650    6.5904   -4.0269 N.pl3     1 <0>        -0.5981
     15 H3          5.7053    6.4895   -4.8853 H         1 <0>         0.4121
     16 C9          3.9120    6.7730   -3.8485 C.ar      1 <0>         0.0945
     17 C10         3.6853    6.8687   -2.4631 C.ar      1 <0>        -0.0931
     18 C11         2.3884    7.0532   -1.9807 C.ar      1 <0>        -0.0687
     19 C12         1.3438    7.1367   -2.8579 C.ar      1 <0>        -0.1482
     20 C13         1.5617    7.0396   -4.2251 C.ar      1 <0>        -0.1025
     21 C14         2.8346    6.8648   -4.7232 C.ar      1 <0>        -0.1331
     22 C15         5.4877    5.3974    1.6993 C.2       1 <0>         0.4580
     23 O2          4.6803    5.1215    2.5548 O.co2     1 <0>        -0.6279
     24 H4          1.8343    3.4878   -2.1460 H         1 <0>         0.0578
     25 H5          0.2338    3.6157   -1.3778 H         1 <0>         0.0739
     26 H6          1.3739    4.9799   -1.2917 H         1 <0>         0.0676
     27 H7          2.2286    1.3946    0.8783 H         1 <0>         0.0933
     28 H8          2.2116    1.4042   -0.9016 H         1 <0>         0.0877
     29 H9          0.0021   -0.0041    0.0020 H         1 <0>         0.0848
     30 H10         2.9880    5.7017    0.0852 H         1 <0>         0.3895
     31 H11         4.6132    7.4862    0.1334 H         1 <0>         0.0689
     32 H12         6.3192    7.0945   -0.1894 H         1 <0>         0.0951
     33 H13         6.9587    6.4450   -2.6684 H         1 <0>         0.1705
     34 H14         2.2112    7.1293   -0.9181 H         1 <0>         0.1177
     35 H15         0.3407    7.2798   -2.4842 H         1 <0>         0.1205
     36 H16         0.7260    7.1075   -4.9058 H         1 <0>         0.1202
     37 H17         2.9937    6.7886   -5.7887 H         1 <0>         0.1140
     38 O3          6.7465    5.7136    2.0415 O.co2     1 <0>        -0.7674
@<TRIPOS>BOND
     1    1    2 1
     2    1   24 1
     3    1   25 1
     4    1   26 1
     5    2    3 1
     6    2    4 1
     7    2    6 1
     8    4    5 1
     9    4   27 1
    10    4   28 1
    11    5   29 1
    12    6    7 2
    13    6    8 am
    14    8    9 1
    15    8   30 1
    16    9   10 1
    17    9   11 1
    18    9   22 1
    19   11   12 1
    20   11   31 1
    21   11   32 1
    22   12   17 1
    23   12   13 2
    24   13   14 1
    25   13   33 1
    26   14   15 1
    27   14   16 1
    28   16   21 ar
    29   16   17 ar
    30   17   18 ar
    31   18   19 ar
    32   18   34 1
    33   19   20 ar
    34   19   35 1
    35   20   21 ar
    36   20   36 1
    37   21   37 1
    38   22   23 2
    39   22   38 1
@<TRIPOS>MOLECULE
ZINC03814173
   56    58     0     0     0
SMALL
USER_CHARGES

@<TRIPOS>ATOM
      1 C1          2.4402   -2.0611   -3.0533 C.ar      1 <0>        -0.1204
      2 C2          2.2311   -0.7017   -3.1917 C.ar      1 <0>        -0.1145
      3 C3          3.1524    0.1946   -2.6830 C.ar      1 <0>        -0.1073
      4 C4          4.2823   -0.2685   -2.0352 C.ar      1 <0>        -0.0654
      5 C5          4.4938   -1.6279   -1.9010 C.ar      1 <0>        -0.1028
      6 C6          3.5703   -2.5242   -2.4058 C.ar      1 <0>        -0.1128
      7 C7          5.2867    0.7087   -1.4807 C.3       1 <0>        -0.0903
      8 C8          4.9151    1.0586   -0.0383 C.3       1 <0>         0.1186
      9 H1          4.8372    0.2188    0.4989 H         1 <0>         0.1083
     10 C9          5.9844    1.9382    0.5566 C.2       1 <0>         0.3581
     11 O1          5.7824    3.1199    0.7021 O.2       1 <0>        -0.4460
     12 C10         7.3058    1.3432    0.9700 C.3       1 <0>        -0.1408
     13 C11         8.2046    2.4429    1.5390 C.3       1 <0>        -0.1239
     14 C12         9.5260    1.8478    1.9524 C.2       1 <0>         0.5307
     15 O2          9.7289    0.6611    1.8063 O.2       1 <0>        -0.5287
     16 N1         10.4823    2.6345    2.4845 N.am      1 <0>        -0.5971
     17 C13        10.3721    4.0870    2.7114 C.3       1 <0>         0.1004
     18 C14        11.8314    4.5999    2.7279 C.3       1 <0>        -0.1345
     19 C15        12.5666    3.4326    3.4380 C.3       1 <0>        -0.1046
     20 C16        11.8105    2.1873    2.9289 C.3       1 <0>         0.0911
     21 H2         12.3503    1.7417    2.0934 H         1 <0>         0.0731
     22 C17        11.6668    1.1836    4.0438 C.2       1 <0>         0.4625
     23 O3         10.5680    0.8676    4.4343 O.co2     1 <0>        -0.6196
     24 N2          3.6339    1.7689   -0.0227 N.am      1 <0>        -0.7195
     25 C18         2.4786    1.0748   -0.0154 C.2       1 <0>         0.5588
     26 O4          2.4997   -0.1405   -0.0218 O.2       1 <0>        -0.5115
     27 C19         1.1856    1.7916    0.0004 C.ar      1 <0>        -0.1299
     28 C20        -0.0126    1.0758    0.0080 C.ar      1 <0>        -0.0581
     29 C21        -1.2157    1.7508    0.0173 C.ar      1 <0>        -0.1290
     30 C22        -1.2361    3.1342    0.0308 C.ar      1 <0>        -0.0962
     31 C23        -0.0520    3.8498    0.0233 C.ar      1 <0>        -0.1275
     32 C24         1.1579    3.1871    0.0082 C.ar      1 <0>        -0.0878
     33 H3          1.7204   -2.7614   -3.4507 H         1 <0>         0.1144
     34 H4          1.3481   -0.3399   -3.6975 H         1 <0>         0.1128
     35 H5          2.9892    1.2567   -2.7915 H         1 <0>         0.1091
     36 H6          5.3788   -1.9898   -1.3987 H         1 <0>         0.1200
     37 H7          3.7335   -3.5863   -2.2974 H         1 <0>         0.1173
     38 H8          5.2847    1.6148   -2.0864 H         1 <0>         0.0810
     39 H9          6.2798    0.2600   -1.5014 H         1 <0>         0.0947
     40 H10         7.1526    0.6436    1.6679 H         1 <0>         0.1019
     41 H11         7.7882    0.8920    0.1030 H         1 <0>         0.1121
     42 H12         8.3716    3.2055    0.7784 H         1 <0>         0.0922
     43 H13         7.7221    2.8941    2.4061 H         1 <0>         0.0948
     44 H14         9.8137    4.5562    1.9014 H         1 <0>         0.0704
     45 H15         9.8917    4.2859    3.6694 H         1 <0>         0.0643
     46 H16        11.9167    5.5224    3.3023 H         1 <0>         0.0790
     47 H17        12.2056    4.7378    1.7135 H         1 <0>         0.0716
     48 H18        12.4771    3.5222    4.5206 H         1 <0>         0.0743
     49 H19        13.6139    3.3972    3.1382 H         1 <0>         0.0783
     50 H20         3.6170    2.7387   -0.0176 H         1 <0>         0.4057
     51 H21         0.0021   -0.0041    0.0020 H         1 <0>         0.1355
     52 H22        -2.1436    1.1982    0.0187 H         1 <0>         0.1285
     53 H23        -2.1806    3.6579    0.0423 H         1 <0>         0.1259
     54 H24        -0.0748    4.9295    0.0290 H         1 <0>         0.1283
     55 H25         2.0815    3.7468    0.0020 H         1 <0>         0.1262
     56 O5         12.7597    0.6406    4.6029 O.co2     1 <0>        -0.7714
@<TRIPOS>BOND
     1    1    6 ar
     2    1    2 ar
     3    1   33 1
     4    2    3 ar
     5    2   34 1
     6    3    4 ar
     7    3   35 1
     8    4    5 ar
     9    4    7 1
    10    5    6 ar
    11    5   36 1
    12    6   37 1
    13    7    8 1
    14    7   38 1
    15    7   39 1
    16    8    9 1
    17    8   10 1
    18    8   24 1
    19   10   11 2
    20   10   12 1
    21   12   13 1
    22   12   40 1
    23   12   41 1
    24   13   14 1
    25   13   42 1
    26   13   43 1
    27   14   15 2
    28   14   16 am
    29   16   20 1
    30   16   17 1
    31   17   18 1
    32   17   44 1
    33   17   45 1
    34   18   19 1
    35   18   46 1
    36   18   47 1
    37   19   20 1
    38   19   48 1
    39   19   49 1
    40   20   21 1
    41   20   22 1
    42   22   23 2
    43   22   56 1
    44   24   25 am
    45   24   50 1
    46   25   26 2
    47   25   27 1
    48   27   32 ar
    49   27   28 ar
    50   28   29 ar
    51   28   51 1
    52   29   30 ar
    53   29   52 1
    54   30   31 ar
    55   30   53 1
    56   31   32 ar
    57   31   54 1
    58   32   55 1
@<TRIPOS>MOLECULE
ZINC03814174
   58    60     0     0     0
SMALL
USER_CHARGES

@<TRIPOS>ATOM
      1 C1         -6.7320   -0.1704   -3.1395 C.ar      1 <0>        -0.1214
      2 C2         -6.6641    1.0622   -2.5175 C.ar      1 <0>        -0.1134
      3 C3         -5.4521    1.7190   -2.4153 C.ar      1 <0>        -0.1095
      4 C4         -4.3078    1.1429   -2.9343 C.ar      1 <0>        -0.0663
      5 C5         -4.3764   -0.0876   -3.5606 C.ar      1 <0>        -0.1051
      6 C6         -5.5877   -0.7464   -3.6590 C.ar      1 <0>        -0.1117
      7 C7         -2.9865    1.8589   -2.8229 C.3       1 <0>        -0.0890
      8 C8         -2.2935    1.4510   -1.5213 C.3       1 <0>         0.1675
      9 H1         -2.2042    0.3653   -1.4820 H         1 <0>         0.1197
     10 C9         -0.8997    2.0797   -1.4667 C.3       1 <0>        -0.7738
     11 P1         -0.0180    1.4758    0.0102 P.3       1 <0>         2.3957
     12 O1          0.0021   -0.0041    0.0020 O.2       1 <0>        -0.9459
     13 C10         1.6923    2.1068   -0.0028 C.3       1 <0>        -0.7742
     14 C11         2.4567    1.5099    1.1507 C.2       1 <0>         0.5440
     15 O2          2.9031    0.3854    1.0652 O.2       1 <0>        -0.4904
     16 N1          2.6443    2.2256    2.2772 N.am      1 <0>        -0.5973
     17 C12         2.1580    3.5969    2.5149 C.3       1 <0>         0.0874
     18 C13         3.1052    4.1713    3.5977 C.3       1 <0>        -0.1328
     19 C14         3.3475    2.9266    4.4917 C.3       1 <0>        -0.1043
     20 C15         3.3622    1.7657    3.4749 C.3       1 <0>         0.0890
     21 H2          4.3910    1.5145    3.2168 H         1 <0>         0.0732
     22 C16         2.6683    0.5616    4.0577 C.2       1 <0>         0.4575
     23 O3          1.6725    0.1245    3.5311 O.co2     1 <0>        -0.6010
     24 O4         -0.7716    1.9950    1.3348 O.3       1 <0>        -0.8099
     25 N2         -3.0846    1.9174   -0.3798 N.am      1 <0>        -0.7370
     26 C17        -4.1071    1.1704    0.0817 C.2       1 <0>         0.5653
     27 O5         -4.3728    0.1097   -0.4491 O.2       1 <0>        -0.5013
     28 C18        -4.9054    1.6411    1.2336 C.ar      1 <0>        -0.1267
     29 C19        -4.5993    2.8559    1.8490 C.ar      1 <0>        -0.0860
     30 C20        -5.3509    3.2915    2.9207 C.ar      1 <0>        -0.1274
     31 C21        -6.3999    2.5222    3.3920 C.ar      1 <0>        -0.0965
     32 C22        -6.7057    1.3148    2.7895 C.ar      1 <0>        -0.1277
     33 C23        -5.9650    0.8700    1.7140 C.ar      1 <0>        -0.0571
     34 H3         -7.6789   -0.6836   -3.2194 H         1 <0>         0.1147
     35 H4         -7.5581    1.5122   -2.1117 H         1 <0>         0.1131
     36 H5         -5.3992    2.6822   -1.9296 H         1 <0>         0.1084
     37 H6         -3.4831   -0.5357   -3.9700 H         1 <0>         0.1171
     38 H7         -5.6406   -1.7096   -4.1447 H         1 <0>         0.1170
     39 H8         -3.1557    2.9357   -2.8224 H         1 <0>         0.0714
     40 H9         -2.3553    1.5907   -3.6701 H         1 <0>         0.0817
     41 H10        -0.9922    3.1646   -1.4164 H         1 <0>         0.0992
     42 H11        -0.3414    1.8038   -2.3613 H         1 <0>         0.1313
     43 H12         2.1745    1.8301   -0.9403 H         1 <0>         0.1380
     44 H13         1.6797    3.1925    0.0927 H         1 <0>         0.1054
     45 H14         2.2248    4.1868    1.6008 H         1 <0>         0.0629
     46 H15         1.1307    3.5773    2.8787 H         1 <0>         0.0706
     47 H16         4.0375    4.5219    3.1551 H         1 <0>         0.0718
     48 H17         2.6179    4.9676    4.1604 H         1 <0>         0.0815
     49 H18         4.3047    3.0027    5.0076 H         1 <0>         0.0799
     50 H19         2.5330    2.7995    5.2048 H         1 <0>         0.0784
     51 H20        -0.8222    2.9580    1.4066 H         1 <0>         0.4055
     52 H21        -2.8725    2.7639    0.0437 H         1 <0>         0.3918
     53 H22        -3.7779    3.4552    1.4848 H         1 <0>         0.1220
     54 H23        -5.1174    4.2330    3.3954 H         1 <0>         0.1275
     55 H24        -6.9825    2.8655    4.2341 H         1 <0>         0.1250
     56 H25        -7.5258    0.7190    3.1622 H         1 <0>         0.1279
     57 H26        -6.2042   -0.0730    1.2450 H         1 <0>         0.1358
     58 O6          3.1565   -0.0254    5.1617 O.co2     1 <0>        -0.7714
@<TRIPOS>BOND
     1    1    6 ar
     2    1    2 ar
     3    1   34 1
     4    2    3 ar
     5    2   35 1
     6    3    4 ar
     7    3   36 1
     8    4    5 ar
     9    4    7 1
    10    5    6 ar
    11    5   37 1
    12    6   38 1
    13    7    8 1
    14    7   39 1
    15    7   40 1
    16    8    9 1
    17    8   10 1
    18    8   25 1
    19   10   11 1
    20   10   41 1
    21   10   42 1
    22   11   12 2
    23   11   13 1
    24   11   24 1
    25   13   14 1
    26   13   43 1
    27   13   44 1
    28   14   15 2
    29   14   16 am
    30   16   20 1
    31   16   17 1
    32   17   18 1
    33   17   45 1
    34   17   46 1
    35   18   19 1
    36   18   47 1
    37   18   48 1
    38   19   20 1
    39   19   49 1
    40   19   50 1
    41   20   21 1
    42   20   22 1
    43   22   23 2
    44   22   58 1
    45   24   51 1
    46   25   26 am
    47   25   52 1
    48   26   27 2
    49   26   28 1
    50   28   33 ar
    51   28   29 ar
    52   29   30 ar
    53   29   53 1
    54   30   31 ar
    55   30   54 1
    56   31   32 ar
    57   31   55 1
    58   32   33 ar
    59   32   56 1
    60   33   57 1
@<TRIPOS>MOLECULE
ZINC03814175
   62    64     0     0     0
SMALL
USER_CHARGES

@<TRIPOS>ATOM
      1 C1         -8.7884    2.3840   -1.9902 C.3       1 <0>        -0.1797
      2 C2         -8.4604    1.9607   -0.5570 C.3       1 <0>         0.0249
      3 H1         -8.2188    2.8427    0.0361 H         1 <0>         0.1444
      4 C3         -9.6515    1.2611    0.0453 C.2       1 <0>         0.5234
      5 O1         -9.5518    0.1146    0.4281 O.2       1 <0>        -0.5229
      6 N1        -10.8277    1.9094    0.1584 N.am      1 <0>        -0.5728
      7 C4        -11.0877    3.2975   -0.2646 C.3       1 <0>         0.0882
      8 C5        -12.2895    3.7565    0.5984 C.3       1 <0>        -0.1342
      9 C6        -13.1359    2.4582    0.6695 C.3       1 <0>        -0.1058
     10 C7        -12.0655    1.3475    0.7184 C.3       1 <0>         0.0902
     11 H2        -11.8993    1.0406    1.7511 H         1 <0>         0.0807
     12 C8        -12.5105    0.1664   -0.1050 C.2       1 <0>         0.4620
     13 O2        -11.8639   -0.1784   -1.0657 O.co2     1 <0>        -0.6185
     14 C9         -6.0448    1.7943   -0.5693 C.3       1 <0>        -0.0350
     15 H3         -6.1572    2.7007    0.0256 H         1 <0>         0.1386
     16 C10        -4.9381    0.9246    0.0304 C.3       1 <0>         0.1580
     17 H4         -4.8257    0.0182   -0.5646 H         1 <0>         0.1055
     18 C11        -5.3066    0.5492    1.4671 C.3       1 <0>        -0.1106
     19 C12        -4.2786   -0.4063    2.0160 C.ar      1 <0>        -0.0651
     20 C13        -4.4524   -1.7695    1.8663 C.ar      1 <0>        -0.1048
     21 C14        -3.5073   -2.6458    2.3659 C.ar      1 <0>        -0.1113
     22 C15        -2.3930   -2.1593    3.0237 C.ar      1 <0>        -0.1178
     23 C16        -2.2216   -0.7963    3.1776 C.ar      1 <0>        -0.1122
     24 C17        -3.1646    0.0802    2.6742 C.ar      1 <0>        -0.1032
     25 N2         -3.6766    1.6695    0.0285 N.am      1 <0>        -0.6913
     26 C18        -2.5029    1.0070    0.0193 C.2       1 <0>         0.5665
     27 O3         -2.4910   -0.2084    0.0126 O.2       1 <0>        -0.5219
     28 C19        -1.2298    1.7588    0.0174 C.ar      1 <0>        -0.1245
     29 C20        -0.0126    1.0758    0.0080 C.ar      1 <0>        -0.0604
     30 C21         1.1717    1.7833    0.0004 C.ar      1 <0>        -0.1322
     31 C22         1.1547    3.1668    0.0081 C.ar      1 <0>        -0.0981
     32 C23        -0.0484    3.8499    0.0233 C.ar      1 <0>        -0.1291
     33 C24        -1.2399    3.1544    0.0305 C.ar      1 <0>        -0.0779
     34 C25        -5.6819    2.1641   -1.9844 C.2       1 <0>         0.4619
     35 O4         -6.4030    1.8388   -2.8977 O.co2     1 <0>        -0.5969
     36 H5         -9.0300    1.5020   -2.5833 H         1 <0>         0.0874
     37 H6         -9.6422    3.0617   -1.9825 H         1 <0>         0.0907
     38 H7         -7.9269    2.8900   -2.4258 H         1 <0>         0.1176
     39 H8        -10.2177    3.9236   -0.0671 H         1 <0>         0.0755
     40 H9        -11.3467    3.3293   -1.3230 H         1 <0>         0.0792
     41 H10       -11.9622    4.0645    1.5915 H         1 <0>         0.0753
     42 H11       -12.8417    4.5565    0.1052 H         1 <0>         0.0854
     43 H12       -13.7488    2.4462    1.5708 H         1 <0>         0.0837
     44 H13       -13.7556    2.3525   -0.2209 H         1 <0>         0.0785
     45 H14        -5.3319    1.4484    2.0825 H         1 <0>         0.0886
     46 H15        -6.2872    0.0735    1.4782 H         1 <0>         0.0768
     47 H16        -5.3250   -2.1498    1.3560 H         1 <0>         0.1166
     48 H17        -3.6411   -3.7107    2.2454 H         1 <0>         0.1176
     49 H18        -1.6563   -2.8441    3.4171 H         1 <0>         0.1154
     50 H19        -1.3510   -0.4162    3.6915 H         1 <0>         0.1145
     51 H20        -3.0308    1.1451    2.7947 H         1 <0>         0.1114
     52 H21        -3.6861    2.6394    0.0338 H         1 <0>         0.4097
     53 H22         0.0021   -0.0041    0.0020 H         1 <0>         0.1333
     54 H23         2.1143    1.2561   -0.0118 H         1 <0>         0.1263
     55 H24         2.0847    3.7159    0.0018 H         1 <0>         0.1240
     56 H25        -0.0548    4.9298    0.0292 H         1 <0>         0.1269
     57 H26        -2.1783    3.6888    0.0416 H         1 <0>         0.1282
     58 O5        -13.6253   -0.5026    0.2289 O.co2     1 <0>        -0.7609
     59 N3         -7.3105    1.0367   -0.5675 N.4       1 <0>        -0.4853
     60 H27        -7.3552    0.4499   -1.4088 H         1 <0>         0.4402
     61 H28        -7.3473    0.4408    0.2678 H         1 <0>         0.4195
     62 O6         -4.5576    2.8548   -2.2303 O.co2     1 <0>        -0.6942
@<TRIPOS>BOND
     1    1    2 1
     2    1   36 1
     3    1   37 1
     4    1   38 1
     5    2    3 1
     6    2    4 1
     7    2   59 1
     8    4    5 2
     9    4    6 am
    10    6   10 1
    11    6    7 1
    12    7    8 1
    13    7   39 1
    14    7   40 1
    15    8    9 1
    16    8   41 1
    17    8   42 1
    18    9   10 1
    19    9   43 1
    20    9   44 1
    21   10   11 1
    22   10   12 1
    23   12   13 2
    24   12   58 1
    25   14   15 1
    26   14   16 1
    27   14   34 1
    28   14   59 1
    29   16   17 1
    30   16   18 1
    31   16   25 1
    32   18   19 1
    33   18   45 1
    34   18   46 1
    35   19   24 ar
    36   19   20 ar
    37   20   21 ar
    38   20   47 1
    39   21   22 ar
    40   21   48 1
    41   22   23 ar
    42   22   49 1
    43   23   24 ar
    44   23   50 1
    45   24   51 1
    46   25   26 am
    47   25   52 1
    48   26   27 2
    49   26   28 1
    50   28   33 ar
    51   28   29 ar
    52   29   30 ar
    53   29   53 1
    54   30   31 ar
    55   30   54 1
    56   31   32 ar
    57   31   55 1
    58   32   33 ar
    59   32   56 1
    60   33   57 1
    61   34   35 2
    62   34   62 1
    63   59   60 1
    64   59   61 1
@<TRIPOS>MOLECULE
ZINC03814176
   45    46     0     0     0
SMALL
USER_CHARGES

@<TRIPOS>ATOM
      1 C1         -2.4510    3.4208   -2.7790 C.3       1 <0>        -0.1452
      2 C2         -2.4966    1.8932   -2.8517 C.3       1 <0>         0.1019
      3 H1         -1.8974    1.5517   -3.6958 H         1 <0>         0.0825
      4 C3         -1.9435    1.3128   -1.5757 C.2       1 <0>         0.5371
      5 O1         -2.6391    0.6021   -0.8814 O.2       1 <0>        -0.5296
      6 N1         -0.6761    1.5836   -1.2060 N.am      1 <0>        -0.5979
      7 C4          0.2750    2.4274   -1.9522 C.3       1 <0>         0.0977
      8 C5          1.6750    1.9390   -1.5038 C.3       1 <0>        -0.1348
      9 C6          1.4312    1.6304   -0.0029 C.3       1 <0>        -0.1018
     10 C7         -0.0127    1.0858    0.0080 C.3       1 <0>         0.0910
     11 H2          0.0021   -0.0041    0.0020 H         1 <0>         0.0694
     12 C8         -0.7382    1.5816    1.2323 C.2       1 <0>         0.4629
     13 O2         -1.7192    2.2768    1.1130 O.co2     1 <0>        -0.6129
     14 N2         -3.8868    1.4526   -3.0279 N.pl3     1 <0>        -1.0617
     15 P1         -4.2409    1.2100   -4.6553 P.3       1 <0>         2.3043
     16 O3         -4.0469    2.4762   -5.3965 O.2       1 <0>        -1.0701
     17 C9         -5.9723    0.6653   -4.8257 C.3       1 <0>        -0.7258
     18 C10        -6.2942    0.4448   -6.3051 C.3       1 <0>        -0.0598
     19 C11        -7.7255   -0.0055   -6.4461 C.ar      1 <0>        -0.0584
     20 C12        -8.0315   -1.3534   -6.4224 C.ar      1 <0>        -0.1231
     21 C13        -9.3449   -1.7662   -6.5472 C.ar      1 <0>        -0.1211
     22 C14       -10.3511   -0.8316   -6.7049 C.ar      1 <0>        -0.1412
     23 C15       -10.0445    0.5160   -6.7339 C.ar      1 <0>        -0.1216
     24 C16        -8.7316    0.9290   -6.6047 C.ar      1 <0>        -0.1230
     25 H3         -2.8510    3.8406   -3.7019 H         1 <0>         0.0846
     26 H4         -3.0502    3.7624   -1.9349 H         1 <0>         0.0582
     27 H5         -1.4195    3.7478   -2.6482 H         1 <0>         0.0555
     28 H6          0.1374    3.4766   -1.6904 H         1 <0>         0.0657
     29 H7          0.1494    2.2854   -3.0256 H         1 <0>         0.0772
     30 H8          2.4203    2.7250   -1.6250 H         1 <0>         0.0758
     31 H9          1.9667    1.0391   -2.0453 H         1 <0>         0.0722
     32 H10         1.5052    2.5390    0.5947 H         1 <0>         0.0712
     33 H11         2.1310    0.8747    0.3541 H         1 <0>         0.0735
     34 H12        -4.0733    0.6200   -2.4893 H         1 <0>         0.3590
     35 H13        -6.1152   -0.2673   -4.2799 H         1 <0>         0.0659
     36 H14        -6.6352    1.4293   -4.4196 H         1 <0>         0.0715
     37 H15        -6.1513    1.3773   -6.8510 H         1 <0>         0.0800
     38 H16        -5.6313   -0.3192   -6.7113 H         1 <0>         0.0806
     39 H17        -7.2449   -2.0837   -6.3029 H         1 <0>         0.1220
     40 H18        -9.5845   -2.8190   -6.5243 H         1 <0>         0.1170
     41 H19       -11.3769   -1.1543   -6.8052 H         1 <0>         0.1147
     42 H20       -10.8307    1.2462   -6.8571 H         1 <0>         0.1168
     43 H21        -8.4921    1.9819   -6.6273 H         1 <0>         0.1217
     44 O4         -0.2947    1.2509    2.4552 O.co2     1 <0>        -0.7836
     45 O5         -3.2618    0.0815   -5.2552 O.3       1 <0>        -1.1184
@<TRIPOS>BOND
     1    1    2 1
     2    1   25 1
     3    1   26 1
     4    1   27 1
     5    2    3 1
     6    2    4 1
     7    2   14 1
     8    4    5 2
     9    4    6 am
    10    6   10 1
    11    6    7 1
    12    7    8 1
    13    7   28 1
    14    7   29 1
    15    8    9 1
    16    8   30 1
    17    8   31 1
    18    9   10 1
    19    9   32 1
    20    9   33 1
    21   10   11 1
    22   10   12 1
    23   12   13 2
    24   12   44 1
    25   14   15 1
    26   14   34 1
    27   15   16 2
    28   15   17 1
    29   15   45 1
    30   17   18 1
    31   17   35 1
    32   17   36 1
    33   18   19 1
    34   18   37 1
    35   18   38 1
    36   19   24 ar
    37   19   20 ar
    38   20   21 ar
    39   20   39 1
    40   21   22 ar
    41   21   40 1
    42   22   23 ar
    43   22   41 1
    44   23   24 ar
    45   23   42 1
    46   24   43 1
@<TRIPOS>MOLECULE
ZINC03814177
   34    35     0     0     0
SMALL
USER_CHARGES

@<TRIPOS>ATOM
      1 C1         -0.3704    4.0427    3.0796 C.ar      1 <0>        -0.1339
      2 C2         -0.8023    5.2420    3.6157 C.ar      1 <0>        -0.1050
      3 C3         -0.4743    6.4335    2.9989 C.ar      1 <0>        -0.1563
      4 C4          0.2893    6.4264    1.8404 C.ar      1 <0>         0.1167
      5 C5          0.7213    5.2221    1.3046 C.ar      1 <0>        -0.0891
      6 C6          0.3861    4.0326    1.9225 C.ar      1 <0>        -0.0278
      7 C7          1.5504    5.2107    0.0462 C.3       1 <0>         0.2503
      8 H1          0.9449    5.4937   -0.8148 H         1 <0>         0.1042
      9 N1          2.1644    3.8854   -0.1614 N.am      1 <0>        -0.5857
     10 C8          3.6177    3.8245   -0.0331 C.3       1 <0>         0.0663
     11 H2          3.9988    3.0129   -0.6529 H         1 <0>         0.1025
     12 C9          4.2675    5.1671   -0.4896 C.3       1 <0>        -0.0676
     13 S1          3.0083    6.3258    0.2116 S.3       1 <0>        -0.2258
     14 C10         3.9778    3.5580    1.4058 C.2       1 <0>         0.4557
     15 O1          3.2266    3.8971    2.2893 O.co2     1 <0>        -0.5925
     16 C11         1.4269    2.7941   -0.4471 C.2       1 <0>         0.5340
     17 O2          0.2211    2.8845   -0.5404 O.2       1 <0>        -0.5442
     18 C12         2.1007    1.4615   -0.6507 C.3       1 <0>        -0.1275
     19 C13         1.0449    0.3983   -0.9602 C.3       1 <0>        -0.0454
     20 S2          1.8559   -1.2058   -1.2052 S.3       1 <0>        -0.2463
     21 O3          0.6130    7.5974    1.2314 O.3       1 <0>        -0.4854
     22 H3         -0.6279    3.1121    3.5634 H         1 <0>         0.1179
     23 H4         -1.3963    5.2470    4.5177 H         1 <0>         0.1193
     24 H5         -0.8121    7.3699    3.4178 H         1 <0>         0.1226
     25 H6          0.7188    3.0945    1.5035 H         1 <0>         0.1212
     26 H7          4.3209    5.2420   -1.5757 H         1 <0>         0.0921
     27 H8          5.2460    5.3131   -0.0320 H         1 <0>         0.1223
     28 H9          2.6401    1.1850    0.2552 H         1 <0>         0.1138
     29 H10         2.8006    1.5317   -1.4833 H         1 <0>         0.1059
     30 H11         0.5054    0.6748   -1.8660 H         1 <0>         0.0905
     31 H12         0.3450    0.3281   -0.1276 H         1 <0>         0.0914
     32 H13         0.8399   -2.0474   -1.4668 H         1 <0>         0.0863
     33 H14        -0.0301    7.8877    0.5701 H         1 <0>         0.3784
     34 O4          5.1330    2.9440    1.7059 O.co2     1 <0>        -0.7591
@<TRIPOS>BOND
     1    1    6 ar
     2    1    2 ar
     3    1   22 1
     4    2    3 ar
     5    2   23 1
     6    3    4 ar
     7    3   24 1
     8    4    5 ar
     9    4   21 1
    10    5    6 ar
    11    5    7 1
    12    6   25 1
    13    7    8 1
    14    7   13 1
    15    7    9 1
    16    9   10 1
    17    9   16 am
    18   10   11 1
    19   10   12 1
    20   10   14 1
    21   12   13 1
    22   12   26 1
    23   12   27 1
    24   14   15 2
    25   14   34 1
    26   16   17 2
    27   16   18 1
    28   18   19 1
    29   18   28 1
    30   18   29 1
    31   19   20 1
    32   19   30 1
    33   19   31 1
    34   20   32 1
    35   21   33 1
@<TRIPOS>MOLECULE
ZINC03814178
   53    55     0     0     0
SMALL
USER_CHARGES

@<TRIPOS>ATOM
      1 C1         -3.9055   13.2528    0.2779 C.ar      1 <0>        -0.1285
      2 C2         -2.5304   13.2761    0.4171 C.ar      1 <0>        -0.1185
      3 C3         -1.7666   12.2421   -0.0911 C.ar      1 <0>        -0.1184
      4 C4         -2.3779   11.1847   -0.7384 C.ar      1 <0>        -0.0783
      5 C5         -3.7526   11.1639   -0.8822 C.ar      1 <0>        -0.1196
      6 C6         -4.5168   12.1954   -0.3695 C.ar      1 <0>        -0.1195
      7 C7         -1.5452   10.0576   -1.2928 C.3       1 <0>        -0.0877
      8 C8         -1.3781    8.9742   -0.2255 C.3       1 <0>        -0.1084
      9 C9         -0.5327    7.8299   -0.7883 C.3       1 <0>        -0.1120
     10 C10        -0.3656    6.7465    0.2790 C.3       1 <0>        -0.7606
     11 P1          0.6418    5.3831   -0.3916 P.3       1 <0>         2.3982
     12 O1          1.9263    5.9196   -0.8940 O.2       1 <0>        -0.9543
     13 C11         0.9657    4.1630    0.9236 C.3       1 <0>        -0.7743
     14 C12         1.8988    3.0998    0.4039 C.2       1 <0>         0.5485
     15 O2          3.0914    3.3134    0.3501 O.2       1 <0>        -0.4891
     16 N1          1.4079    1.9118   -0.0011 N.am      1 <0>        -0.5924
     17 C13        -0.0186    1.5217    0.0104 C.3       1 <0>         0.1289
     18 C14         0.0021   -0.0041    0.0020 C.3       1 <0>         0.0119
     19 C15         1.2254   -0.3662   -0.8397 C.3       1 <0>        -0.0786
     20 C16         2.2043    0.7909   -0.5265 C.3       1 <0>         0.0946
     21 H1          2.9300    0.4699    0.2208 H         1 <0>         0.0813
     22 C17         2.9159    1.2143   -1.7857 C.2       1 <0>         0.4644
     23 O3          2.5456    2.1938   -2.3886 O.co2     1 <0>        -0.6052
     24 S1         -1.5334   -0.7112   -0.6799 S.3       1 <0>        -0.2400
     25 C18        -1.7859   -2.1959    0.3749 C.3       1 <0>        -0.0792
     26 C19        -1.4247   -1.7401    1.8126 C.3       1 <0>        -0.0840
     27 S2          0.0826   -0.7077    1.6771 S.3       1 <0>        -0.2397
     28 O4         -0.1521    4.6728   -1.5988 O.3       1 <0>        -0.8152
     29 H2         -4.5022   14.0609    0.6746 H         1 <0>         0.1194
     30 H3         -2.0527   14.1024    0.9225 H         1 <0>         0.1209
     31 H4         -0.6922   12.2605    0.0174 H         1 <0>         0.1227
     32 H5         -4.2299   10.3400   -1.3918 H         1 <0>         0.1210
     33 H6         -5.5911   12.1774   -0.4785 H         1 <0>         0.1203
     34 H7         -0.5652   10.4377   -1.5812 H         1 <0>         0.0789
     35 H8         -2.0420    9.6341   -2.1657 H         1 <0>         0.0763
     36 H9         -2.3581    8.5941    0.0630 H         1 <0>         0.0598
     37 H10        -0.8813    9.3977    0.6475 H         1 <0>         0.0634
     38 H11         0.4473    8.2100   -1.0767 H         1 <0>         0.0916
     39 H12        -1.0295    7.4064   -1.6612 H         1 <0>         0.0742
     40 H13        -1.3456    6.3664    0.5675 H         1 <0>         0.0905
     41 H14         0.1312    7.1700    1.1520 H         1 <0>         0.1122
     42 H15         0.0267    3.7032    1.2320 H         1 <0>         0.1064
     43 H16         1.4234    4.6622    1.7777 H         1 <0>         0.1410
     44 H17        -0.5237    1.9002   -0.8783 H         1 <0>         0.0911
     45 H18        -0.5066    1.8905    0.9126 H         1 <0>         0.0883
     46 H19         1.6429   -1.3223   -0.5239 H         1 <0>         0.0986
     47 H20         0.9739   -0.3839   -1.9001 H         1 <0>         0.1032
     48 H21        -1.1253   -3.0024    0.0568 H         1 <0>         0.1041
     49 H22        -2.8261   -2.5185    0.3307 H         1 <0>         0.1255
     50 H23        -1.2263   -2.6089    2.4402 H         1 <0>         0.1196
     51 H24        -2.2412   -1.1543    2.2348 H         1 <0>         0.0999
     52 H25        -1.0053    4.2974   -1.3414 H         1 <0>         0.4105
     53 O5          3.9610    0.5034   -2.2375 O.co2     1 <0>        -0.7632
@<TRIPOS>BOND
     1    1    6 ar
     2    1    2 ar
     3    1   29 1
     4    2    3 ar
     5    2   30 1
     6    3    4 ar
     7    3   31 1
     8    4    5 ar
     9    4    7 1
    10    5    6 ar
    11    5   32 1
    12    6   33 1
    13    7    8 1
    14    7   34 1
    15    7   35 1
    16    8    9 1
    17    8   36 1
    18    8   37 1
    19    9   10 1
    20    9   38 1
    21    9   39 1
    22   10   11 1
    23   10   40 1
    24   10   41 1
    25   11   12 2
    26   11   13 1
    27   11   28 1
    28   13   14 1
    29   13   42 1
    30   13   43 1
    31   14   15 2
    32   14   16 am
    33   16   20 1
    34   16   17 1
    35   17   18 1
    36   17   44 1
    37   17   45 1
    38   18   27 1
    39   18   19 1
    40   18   24 1
    41   19   20 1
    42   19   46 1
    43   19   47 1
    44   20   21 1
    45   20   22 1
    46   22   23 2
    47   22   53 1
    48   24   25 1
    49   25   26 1
    50   25   48 1
    51   25   49 1
    52   26   27 1
    53   26   50 1
    54   26   51 1
    55   28   52 1
@<TRIPOS>MOLECULE
ZINC03814179
   32    33     0     0     0
SMALL
USER_CHARGES

@<TRIPOS>ATOM
      1 C1          0.9627   -0.7094   -1.2421 C.3       1 <0>        -0.1409
      2 C2          0.1235   -0.2986   -0.0306 C.3       1 <0>        -0.0919
      3 H1          0.5143   -0.7843    0.8636 H         1 <0>         0.1188
      4 C3         -1.3297   -0.7246   -0.2486 C.3       1 <0>        -0.0390
      5 S1         -1.4267   -2.5350   -0.3078 S.3       1 <0>        -0.2402
      6 C4          0.1881    1.1972    0.1413 C.2       1 <0>         0.5593
      7 O1         -0.5799    1.9113   -0.4679 O.2       1 <0>        -0.5387
      8 N1          1.0957    1.7410    0.9763 N.am      1 <0>        -0.5275
      9 C5          1.3304    3.1117    1.1223 C.ar      1 <0>         0.1592
     10 C6          0.7189    4.1882    0.4767 C.ar      1 <0>        -0.1378
     11 C7          1.1006    5.4806    0.7665 C.ar      1 <0>        -0.1003
     12 C8          2.0923    5.7208    1.7001 C.ar      1 <0>        -0.1529
     13 C9          2.7021    4.6603    2.3437 C.ar      1 <0>        -0.0815
     14 C10         2.3229    3.3630    2.0560 C.ar      1 <0>        -0.1344
     15 C11         2.8156    2.0418    2.6021 C.3       1 <0>        -0.0644
     16 C12         1.9766    0.9827    1.8686 C.3       1 <0>         0.0778
     17 H2          2.6243    0.3238    1.2903 H         1 <0>         0.0931
     18 C13         1.1616    0.1841    2.8530 C.2       1 <0>         0.4599
     19 O2         -0.0451    0.2362    2.8211 O.co2     1 <0>        -0.6153
     20 H3          1.9784   -0.3314   -1.1256 H         1 <0>         0.0588
     21 H4          0.9859   -1.7967   -1.3162 H         1 <0>         0.0795
     22 H5          0.5216   -0.2929   -2.1477 H         1 <0>         0.0622
     23 H6         -1.9439   -0.3545    0.5723 H         1 <0>         0.0918
     24 H7         -1.6925   -0.3103   -1.1892 H         1 <0>         0.0886
     25 H8         -2.7342   -2.7847   -0.5007 H         1 <0>         0.0808
     26 H9         -0.0562    4.0074   -0.2534 H         1 <0>         0.1356
     27 H10         0.6235    6.3084    0.2630 H         1 <0>         0.1218
     28 H11         2.3892    6.7343    1.9260 H         1 <0>         0.1207
     29 H12         3.4764    4.8461    3.0733 H         1 <0>         0.1220
     30 H13         3.8752    1.9111    2.3824 H         1 <0>         0.0870
     31 H14         2.6412    1.9858    3.6766 H         1 <0>         0.0950
     32 O3          1.7762   -0.5850    3.7654 O.co2     1 <0>        -0.7469
@<TRIPOS>BOND
     1    1    2 1
     2    1   20 1
     3    1   21 1
     4    1   22 1
     5    2    3 1
     6    2    4 1
     7    2    6 1
     8    4    5 1
     9    4   23 1
    10    4   24 1
    11    5   25 1
    12    6    7 2
    13    6    8 am
    14    8   16 1
    15    8    9 1
    16    9   14 ar
    17    9   10 ar
    18   10   11 ar
    19   10   26 1
    20   11   12 ar
    21   11   27 1
    22   12   13 ar
    23   12   28 1
    24   13   14 ar
    25   13   29 1
    26   14   15 1
    27   15   16 1
    28   15   30 1
    29   15   31 1
    30   16   17 1
    31   16   18 1
    32   18   19 2
    33   18   32 1
@<TRIPOS>MOLECULE
ZINC03814180
   51    52     0     0     0
SMALL
USER_CHARGES

@<TRIPOS>ATOM
      1 C1          4.1020   -1.9560    0.3714 C.3       1 <0>        -0.1639
      2 C2          3.2902   -0.6763    0.5961 C.3       1 <0>         0.1353
      3 H1          3.9302    0.0658    1.0706 H         1 <0>         0.0926
      4 C3          2.1057   -0.9925    1.5111 C.3       1 <0>        -0.1422
      5 C4          1.7172    0.2605    2.2972 C.3       1 <0>        -0.1420
      6 C5          1.9415    1.5167    1.4701 C.3       1 <0>        -0.1480
      7 C6          1.1364    1.4590    0.1748 C.3       1 <0>         0.0345
      8 H2          0.9562    2.4891   -0.1675 H         1 <0>         0.1612
      9 C7          1.8884    0.7357   -0.9001 C.2       1 <0>         0.4917
     10 O1          1.6135    1.0027   -2.0564 O.2       1 <0>        -0.5265
     11 N1          2.8315   -0.1740   -0.6934 N.am      1 <0>        -0.5459
     12 C8          3.4802   -0.7326   -1.8858 C.3       1 <0>         0.0434
     13 C9          4.7562    0.0200   -2.1626 C.2       1 <0>         0.4559
     14 O2          5.0904    0.9288   -1.4400 O.co2     1 <0>        -0.6301
     15 C10        -1.1539    1.2866   -0.5853 C.3       1 <0>        -0.0286
     16 H3         -0.6626    1.4615   -1.5424 H         1 <0>         0.1517
     17 C11        -2.2426    0.2254   -0.7572 C.3       1 <0>        -0.1154
     18 C12        -1.6322   -1.0370   -1.3693 C.3       1 <0>        -0.0938
     19 C13        -2.7046   -2.0821   -1.5387 C.ar      1 <0>        -0.0796
     20 C14        -2.9580   -2.9835   -0.5217 C.ar      1 <0>        -0.1188
     21 C15        -3.9447   -3.9395   -0.6754 C.ar      1 <0>        -0.1188
     22 C16        -4.6714   -4.0001   -1.8497 C.ar      1 <0>        -0.1232
     23 C17        -4.4147   -3.1018   -2.8686 C.ar      1 <0>        -0.1157
     24 C18        -3.4310   -2.1431   -2.7132 C.ar      1 <0>        -0.1098
     25 C19        -1.7757    2.5699   -0.0979 C.2       1 <0>         0.4661
     26 O3         -1.4301    3.0459    0.9575 O.co2     1 <0>        -0.6196
     27 H4          3.4836   -2.6935   -0.1404 H         1 <0>         0.0635
     28 H5          4.9765   -1.7291   -0.2385 H         1 <0>         0.0782
     29 H6          4.4235   -2.3559    1.3330 H         1 <0>         0.0713
     30 H7          2.3914   -1.7842    2.2088 H         1 <0>         0.0968
     31 H8          1.2616   -1.3369    0.9142 H         1 <0>         0.0565
     32 H9          2.3383    0.3152    3.2007 H         1 <0>         0.0949
     33 H10         0.6766    0.1931    2.6134 H         1 <0>         0.0670
     34 H11         3.0033    1.6337    1.2432 H         1 <0>         0.1175
     35 H12         1.6237    2.3911    2.0523 H         1 <0>         0.1049
     36 H13         3.7086   -1.7848   -1.7159 H         1 <0>         0.0940
     37 H14         2.8107   -0.6396   -2.7409 H         1 <0>         0.0996
     38 H15        -2.6734   -0.0139    0.2150 H         1 <0>         0.0789
     39 H16        -3.0222    0.6082   -1.4158 H         1 <0>         0.1189
     40 H17        -1.2014   -0.7976   -2.3415 H         1 <0>         0.0920
     41 H18        -0.8526   -1.4197   -0.7107 H         1 <0>         0.0581
     42 H19        -2.3874   -2.9387    0.3941 H         1 <0>         0.1185
     43 H20        -4.1454   -4.6411    0.1207 H         1 <0>         0.1212
     44 H21        -5.4399   -4.7491   -1.9711 H         1 <0>         0.1207
     45 H22        -4.9825   -3.1491   -3.7861 H         1 <0>         0.1231
     46 H23        -3.2303   -1.4415   -3.5094 H         1 <0>         0.1261
     47 O4          5.5213   -0.3194   -3.2120 O.co2     1 <0>        -0.7609
     48 N2         -0.1665    0.8116    0.4024 N.4       1 <0>        -0.4854
     49 H24        -0.4969    1.0385    1.3477 H         1 <0>         0.4309
     50 H25        -0.0596   -0.2056    0.3122 H         1 <0>         0.4065
     51 O5         -2.7134    3.1841   -0.8362 O.co2     1 <0>        -0.7033
@<TRIPOS>BOND
     1    1    2 1
     2    1   27 1
     3    1   28 1
     4    1   29 1
     5    2    3 1
     6    2   11 1
     7    2    4 1
     8    4    5 1
     9    4   30 1
    10    4   31 1
    11    5    6 1
    12    5   32 1
    13    5   33 1
    14    6    7 1
    15    6   34 1
    16    6   35 1
    17    7    8 1
    18    7    9 1
    19    7   48 1
    20    9   10 2
    21    9   11 am
    22   11   12 1
    23   12   13 1
    24   12   36 1
    25   12   37 1
    26   13   14 2
    27   13   47 1
    28   15   16 1
    29   15   17 1
    30   15   25 1
    31   15   48 1
    32   17   18 1
    33   17   38 1
    34   17   39 1
    35   18   19 1
    36   18   40 1
    37   18   41 1
    38   19   24 ar
    39   19   20 ar
    40   20   21 ar
    41   20   42 1
    42   21   22 ar
    43   21   43 1
    44   22   23 ar
    45   22   44 1
    46   23   24 ar
    47   23   45 1
    48   24   46 1
    49   25   26 2
    50   25   51 1
    51   48   49 1
    52   48   50 1
@<TRIPOS>MOLECULE
ZINC03814181
   59    61     0     0     0
SMALL
USER_CHARGES

@<TRIPOS>ATOM
      1 C1          0.9188    5.3430    2.9026 C.3       1 <0>        -0.1543
      2 C2          1.7027    5.6150    1.6171 C.3       1 <0>        -0.0927
      3 H1          1.0545    6.1101    0.8941 H         1 <0>         0.0955
      4 C3          2.2003    4.2911    1.0334 C.3       1 <0>        -0.1384
      5 C4          1.0208    3.4534    0.6114 C.2       1 <0>         0.3590
      6 O1         -0.1018    3.8720    0.7619 O.2       1 <0>        -0.4420
      7 C5          1.2424    2.0932    0.0014 C.3       1 <0>         0.1190
      8 H2          1.9291    1.5974    0.5330 H         1 <0>         0.1078
      9 C6          1.7312    2.2539   -1.4395 C.3       1 <0>        -0.0908
     10 C7          2.0698    0.9004   -2.0090 C.ar      1 <0>        -0.0651
     11 C8          3.3510    0.3974   -1.8808 C.ar      1 <0>        -0.1029
     12 C9          3.6604   -0.8461   -2.3994 C.ar      1 <0>        -0.1127
     13 C10         2.6911   -1.5824   -3.0545 C.ar      1 <0>        -0.1205
     14 C11         1.4111   -1.0774   -3.1868 C.ar      1 <0>        -0.1145
     15 C12         1.1006    0.1642   -2.6644 C.ar      1 <0>        -0.1073
     16 N1         -0.0162    1.3436    0.0094 N.am      1 <0>        -0.7192
     17 C13         0.0021   -0.0041    0.0020 C.2       1 <0>         0.5588
     18 O2          1.0628   -0.5974   -0.0113 O.2       1 <0>        -0.5116
     19 C14        -1.2681   -0.7606    0.0101 C.ar      1 <0>        -0.1299
     20 C15        -2.4878   -0.0824    0.0312 C.ar      1 <0>        -0.0878
     21 C16        -3.6695   -0.7944    0.0343 C.ar      1 <0>        -0.1275
     22 C17        -3.6472   -2.1778    0.0266 C.ar      1 <0>        -0.0963
     23 C18        -2.4415   -2.8562    0.0105 C.ar      1 <0>        -0.1290
     24 C19        -1.2527   -2.1563    0.0024 C.ar      1 <0>        -0.0582
     25 C20         2.8810    6.5024    1.9256 C.2       1 <0>         0.5357
     26 O3          4.0078    6.1142    1.7007 O.2       1 <0>        -0.5282
     27 N2          2.6827    7.7274    2.4514 N.am      1 <0>        -0.5940
     28 C21         1.3725    8.3249    2.7673 C.3       1 <0>         0.1002
     29 C22         1.6132    9.8527    2.7369 C.3       1 <0>        -0.1358
     30 C23         3.0393    9.9580    3.3388 C.3       1 <0>        -0.1043
     31 C24         3.7367    8.6916    2.7989 C.3       1 <0>         0.0909
     32 H3          4.3198    8.9392    1.9119 H         1 <0>         0.0725
     33 C25         4.6368    8.1077    3.8572 C.2       1 <0>         0.4627
     34 O4          4.4259    6.9972    4.2841 O.co2     1 <0>        -0.6186
     35 H4          0.0665    4.7011    2.6794 H         1 <0>         0.0720
     36 H5          1.5670    4.8479    3.6256 H         1 <0>         0.0612
     37 H6          0.5643    6.2861    3.3184 H         1 <0>         0.0668
     38 H7          2.7280    3.7990    1.7257 H         1 <0>         0.1007
     39 H8          2.8326    4.4904    0.1682 H         1 <0>         0.1124
     40 H9          0.9469    2.7149   -2.0399 H         1 <0>         0.0810
     41 H10         2.6188    2.8864   -1.4536 H         1 <0>         0.0945
     42 H11         4.1093    0.9745   -1.3726 H         1 <0>         0.1199
     43 H12         4.6603   -1.2408   -2.2957 H         1 <0>         0.1172
     44 H13         2.9337   -2.5525   -3.4626 H         1 <0>         0.1144
     45 H14         0.6538   -1.6527   -3.6986 H         1 <0>         0.1127
     46 H15         0.1007    0.5590   -2.7682 H         1 <0>         0.1091
     47 H16        -0.8627    1.8171    0.0160 H         1 <0>         0.4057
     48 H17        -2.5065    0.9974    0.0417 H         1 <0>         0.1262
     49 H18        -4.6140   -0.2708    0.0468 H         1 <0>         0.1282
     50 H19        -4.5750   -2.7304    0.0336 H         1 <0>         0.1259
     51 H20        -2.4310   -3.9362    0.0046 H         1 <0>         0.1284
     52 H21        -0.3122   -2.6871   -0.0094 H         1 <0>         0.1354
     53 H22         0.6353    8.0416    2.0161 H         1 <0>         0.0706
     54 H23         1.0433    8.0148    3.7590 H         1 <0>         0.0663
     55 H24         0.8871   10.3768    3.3584 H         1 <0>         0.0789
     56 H25         1.5923   10.2278    1.7137 H         1 <0>         0.0715
     57 H26         3.0003    9.9421    4.4280 H         1 <0>         0.0742
     58 H27         3.5427   10.8569    2.9830 H         1 <0>         0.0781
     59 O5          5.6728    8.8212    4.3255 O.co2     1 <0>        -0.7718
@<TRIPOS>BOND
     1    1    2 1
     2    1   35 1
     3    1   36 1
     4    1   37 1
     5    2    3 1
     6    2    4 1
     7    2   25 1
     8    4    5 1
     9    4   38 1
    10    4   39 1
    11    5    6 2
    12    5    7 1
    13    7    8 1
    14    7    9 1
    15    7   16 1
    16    9   10 1
    17    9   40 1
    18    9   41 1
    19   10   15 ar
    20   10   11 ar
    21   11   12 ar
    22   11   42 1
    23   12   13 ar
    24   12   43 1
    25   13   14 ar
    26   13   44 1
    27   14   15 ar
    28   14   45 1
    29   15   46 1
    30   16   17 am
    31   16   47 1
    32   17   18 2
    33   17   19 1
    34   19   24 ar
    35   19   20 ar
    36   20   21 ar
    37   20   48 1
    38   21   22 ar
    39   21   49 1
    40   22   23 ar
    41   22   50 1
    42   23   24 ar
    43   23   51 1
    44   24   52 1
    45   25   26 2
    46   25   27 am
    47   27   31 1
    48   27   28 1
    49   28   29 1
    50   28   53 1
    51   28   54 1
    52   29   30 1
    53   29   55 1
    54   29   56 1
    55   30   31 1
    56   30   57 1
    57   30   58 1
    58   31   32 1
    59   31   33 1
    60   33   34 2
    61   33   59 1
@<TRIPOS>MOLECULE
ZINC03814182
   56    58     0     0     0
SMALL
USER_CHARGES

@<TRIPOS>ATOM
      1 C1          1.0072   -2.4354   -4.2380 C.3       1 <0>        -0.1738
      2 C2          1.2119   -2.1185   -2.7552 C.3       1 <0>         0.0214
      3 H1          0.3947   -2.5481   -2.1757 H         1 <0>         0.1410
      4 C3          2.5197   -2.7066   -2.2918 C.2       1 <0>         0.5252
      5 O1          3.3857   -1.9837   -1.8463 O.2       1 <0>        -0.5217
      6 N1          2.7271   -4.0359   -2.3723 N.am      1 <0>        -0.5723
      7 C4          1.7628   -5.0264   -2.8845 C.3       1 <0>         0.0875
      8 C5          2.1735   -6.3625   -2.2218 C.3       1 <0>        -0.1342
      9 C6          3.7205   -6.2442   -2.2092 C.3       1 <0>        -0.1048
     10 C7          3.9500   -4.7390   -1.9581 C.3       1 <0>         0.0897
     11 H2          4.1373   -4.5642   -0.8986 H         1 <0>         0.0805
     12 C8          5.1207   -4.2557   -2.7749 C.2       1 <0>         0.4632
     13 O2          4.9584   -3.4086   -3.6210 O.co2     1 <0>        -0.6190
     14 C9         -0.1266   -0.1279   -2.4257 C.3       1 <0>        -0.0671
     15 H3         -0.7476   -0.8491   -1.8945 H         1 <0>         0.1596
     16 C10        -0.0821    1.1838   -1.6393 C.3       1 <0>         0.1172
     17 H4         -1.0810    1.6162   -1.5831 H         1 <0>         0.1361
     18 C11         0.8810    2.1750   -2.3260 C.3       1 <0>        -0.1359
     19 C12         1.5754    2.8771   -1.1293 C.3       1 <0>        -0.1312
     20 C13         1.6797    1.7103   -0.1083 C.3       1 <0>         0.0915
     21 N2          0.4346    0.9408   -0.2845 N.am      1 <0>        -0.6264
     22 C14        -0.1352    0.1457    0.6426 C.2       1 <0>         0.5741
     23 O3          0.3668    0.0407    1.7447 O.2       1 <0>        -0.5187
     24 C15        -1.3709   -0.5989    0.3192 C.ar      1 <0>        -0.1578
     25 C16        -2.0801   -0.3071   -0.8469 C.ar      1 <0>        -0.1271
     26 C17        -3.2295   -1.0092   -1.1455 C.ar      1 <0>        -0.1101
     27 C18        -3.6856   -1.9931   -0.2863 C.ar      1 <0>        -0.0920
     28 C19        -2.9904   -2.2834    0.8742 C.ar      1 <0>        -0.1310
     29 C20        -1.8364   -1.5927    1.1817 C.ar      1 <0>        -0.0606
     30 C21        -0.7083    0.1254   -3.7926 C.2       1 <0>         0.4685
     31 O4          0.0038    0.0909   -4.7681 O.co2     1 <0>        -0.5942
     32 H5          0.9902   -3.5160   -4.3796 H         1 <0>         0.0958
     33 H6          0.0612   -2.0101   -4.5732 H         1 <0>         0.1057
     34 H7          1.8243   -2.0058   -4.8175 H         1 <0>         0.0900
     35 H8          0.7484   -4.7541   -2.5932 H         1 <0>         0.0746
     36 H9          1.8389   -5.1044   -3.9690 H         1 <0>         0.0793
     37 H10         1.8516   -7.2135   -2.8221 H         1 <0>         0.0860
     38 H11         1.7786   -6.4303   -1.2082 H         1 <0>         0.0752
     39 H12         4.1380   -6.5428   -3.1708 H         1 <0>         0.0790
     40 H13         4.1462   -6.8393   -1.4012 H         1 <0>         0.0839
     41 H14         1.6103    1.6434   -2.9373 H         1 <0>         0.0757
     42 H15         0.3277    2.8960   -2.9279 H         1 <0>         0.1075
     43 H16         2.5625    3.2439   -1.4106 H         1 <0>         0.0972
     44 H17         0.9571    3.6850   -0.7379 H         1 <0>         0.0865
     45 H18         1.7442    2.1002    0.9075 H         1 <0>         0.0931
     46 H19         2.5457    1.0867   -0.3302 H         1 <0>         0.0765
     47 H20        -1.7276    0.4638   -1.5162 H         1 <0>         0.1696
     48 H21        -3.7769   -0.7874   -2.0497 H         1 <0>         0.1425
     49 H22        -4.5881   -2.5372   -0.5227 H         1 <0>         0.1285
     50 H23        -3.3517   -3.0526    1.5407 H         1 <0>         0.1298
     51 H24        -1.2946   -1.8202    2.0878 H         1 <0>         0.1344
     52 O5          6.3437   -4.7665   -2.5625 O.co2     1 <0>        -0.7609
     53 N3          1.2437   -0.6563   -2.5640 N.4       1 <0>        -0.4845
     54 H25         1.6953   -0.2183   -3.3755 H         1 <0>         0.4347
     55 H26         1.7784   -0.4373   -1.7152 H         1 <0>         0.4200
     56 O6         -2.0176    0.3893   -3.9264 O.co2     1 <0>        -0.6977
@<TRIPOS>BOND
     1    1    2 1
     2    1   32 1
     3    1   33 1
     4    1   34 1
     5    2    3 1
     6    2    4 1
     7    2   53 1
     8    4    5 2
     9    4    6 am
    10    6   10 1
    11    6    7 1
    12    7    8 1
    13    7   35 1
    14    7   36 1
    15    8    9 1
    16    8   37 1
    17    8   38 1
    18    9   10 1
    19    9   39 1
    20    9   40 1
    21   10   11 1
    22   10   12 1
    23   12   13 2
    24   12   52 1
    25   14   15 1
    26   14   16 1
    27   14   30 1
    28   14   53 1
    29   16   17 1
    30   16   21 1
    31   16   18 1
    32   18   19 1
    33   18   41 1
    34   18   42 1
    35   19   20 1
    36   19   43 1
    37   19   44 1
    38   20   21 1
    39   20   45 1
    40   20   46 1
    41   21   22 am
    42   22   23 2
    43   22   24 1
    44   24   29 ar
    45   24   25 ar
    46   25   26 ar
    47   25   47 1
    48   26   27 ar
    49   26   48 1
    50   27   28 ar
    51   27   49 1
    52   28   29 ar
    53   28   50 1
    54   29   51 1
    55   30   31 2
    56   30   56 1
    57   53   54 1
    58   53   55 1
@<TRIPOS>MOLECULE
ZINC03814183
   49    50     0     0     0
SMALL
USER_CHARGES

@<TRIPOS>ATOM
      1 C1         -0.0619    4.5606   -0.0365 C.3       1 <0>        -0.1793
      2 C2          0.9624    4.1501    1.0233 C.3       1 <0>         0.0239
      3 H1          0.4444    3.7338    1.8872 H         1 <0>         0.1433
      4 C3          1.8926    3.1135    0.4478 C.2       1 <0>         0.5235
      5 O1          3.0838    3.3338    0.3885 O.2       1 <0>        -0.5246
      6 N1          1.4009    1.9416   -0.0009 N.am      1 <0>        -0.5738
      7 C4         -0.0189    1.5449    0.0105 C.3       1 <0>         0.0884
      8 C5          0.0021   -0.0041    0.0020 C.3       1 <0>        -0.1345
      9 C6          1.2112   -0.2941   -0.9261 C.3       1 <0>        -0.1054
     10 C7          2.1914    0.8475   -0.5836 C.3       1 <0>         0.0900
     11 H2          2.9296    0.4982    0.1383 H         1 <0>         0.0802
     12 C8          2.8837    1.3215   -1.8355 C.2       1 <0>         0.4619
     13 O2          2.7470    2.4634   -2.2060 O.co2     1 <0>        -0.6184
     14 C9          1.0383    6.0732    2.4924 C.3       1 <0>        -0.0188
     15 H3          0.5091    5.3752    3.1412 H         1 <0>         0.1351
     16 C10         2.0554    6.8647    3.3169 C.3       1 <0>        -0.1194
     17 C11         2.9814    5.8941    4.0528 C.3       1 <0>        -0.0947
     18 C12         3.9833    6.6737    4.8648 C.ar      1 <0>        -0.0903
     19 C13         5.1950    7.0339    4.3048 C.ar      1 <0>        -0.0984
     20 C14         6.1128    7.7535    5.0452 C.ar      1 <0>        -0.1417
     21 C15         5.8227    8.1045    6.3557 C.ar      1 <0>         0.1013
     22 C16         4.6084    7.7370    6.9172 C.ar      1 <0>        -0.1428
     23 C17         3.6915    7.0227    6.1705 C.ar      1 <0>        -0.0950
     24 O3          6.7265    8.8068    7.0883 O.3       1 <0>        -0.5002
     25 C18         0.0509    7.0238    1.8659 C.2       1 <0>         0.4599
     26 O4         -0.0593    7.0747    0.6637 O.co2     1 <0>        -0.6020
     27 H4         -0.6369    3.6870   -0.3438 H         1 <0>         0.0892
     28 H5         -0.7348    5.3104    0.3797 H         1 <0>         0.1175
     29 H6          0.4561    4.9769   -0.9005 H         1 <0>         0.0862
     30 H7         -0.5254    1.9223   -0.8778 H         1 <0>         0.0790
     31 H8         -0.5083    1.9127    0.9124 H         1 <0>         0.0757
     32 H9          0.1750   -0.3980    1.0035 H         1 <0>         0.0752
     33 H10        -0.9195   -0.4050   -0.4201 H         1 <0>         0.0852
     34 H11         1.6519   -1.2636   -0.6937 H         1 <0>         0.0834
     35 H12         0.9136   -0.2457   -1.9736 H         1 <0>         0.0786
     36 H13         2.6455    7.4984    2.6548 H         1 <0>         0.0834
     37 H14         1.5304    7.4864    4.0421 H         1 <0>         0.1177
     38 H15         2.3913    5.2605    4.7149 H         1 <0>         0.0861
     39 H16         3.5064    5.2724    3.3276 H         1 <0>         0.0694
     40 H17         5.4225    6.7560    3.2862 H         1 <0>         0.1287
     41 H18         7.0572    8.0388    4.6058 H         1 <0>         0.1295
     42 H19         4.3804    8.0087    7.9372 H         1 <0>         0.1290
     43 H20         2.7461    6.7364    6.6072 H         1 <0>         0.1295
     44 H21         7.3474    8.2537    7.5821 H         1 <0>         0.3898
     45 O5          3.6521    0.4751   -2.5390 O.co2     1 <0>        -0.7616
     46 N2          1.7467    5.3302    1.4332 N.4       1 <0>        -0.4882
     47 H22         1.8833    5.9445    0.6219 H         1 <0>         0.4375
     48 H23         2.6601    5.0233    1.7877 H         1 <0>         0.4186
     49 O6         -0.7062    7.8138    2.6433 O.co2     1 <0>        -0.7078
@<TRIPOS>BOND
     1    1    2 1
     2    1   27 1
     3    1   28 1
     4    1   29 1
     5    2    3 1
     6    2    4 1
     7    2   46 1
     8    4    5 2
     9    4    6 am
    10    6   10 1
    11    6    7 1
    12    7    8 1
    13    7   30 1
    14    7   31 1
    15    8    9 1
    16    8   32 1
    17    8   33 1
    18    9   10 1
    19    9   34 1
    20    9   35 1
    21   10   11 1
    22   10   12 1
    23   12   13 2
    24   12   45 1
    25   14   15 1
    26   14   16 1
    27   14   25 1
    28   14   46 1
    29   16   17 1
    30   16   36 1
    31   16   37 1
    32   17   18 1
    33   17   38 1
    34   17   39 1
    35   18   23 ar
    36   18   19 ar
    37   19   20 ar
    38   19   40 1
    39   20   21 ar
    40   20   41 1
    41   21   22 ar
    42   21   24 1
    43   22   23 ar
    44   22   42 1
    45   23   43 1
    46   24   44 1
    47   25   26 2
    48   25   49 1
    49   46   47 1
    50   46   48 1
@<TRIPOS>MOLECULE
ZINC03814184
   52    54     0     0     0
SMALL
USER_CHARGES

@<TRIPOS>ATOM
      1 C1          4.2041    0.8175   -8.7002 C.ar      1 <0>        -0.1259
      2 C2          4.0333   -0.1263   -7.7047 C.ar      1 <0>        -0.1162
      3 C3          4.0478    0.2590   -6.3772 C.ar      1 <0>        -0.1100
      4 C4          4.2327    1.5881   -6.0452 C.ar      1 <0>        -0.0752
      5 C5          4.3979    2.5327   -7.0409 C.ar      1 <0>        -0.1193
      6 C6          4.3890    2.1466   -8.3682 C.ar      1 <0>        -0.1206
      7 C7          4.2482    2.0081   -4.5981 C.3       1 <0>        -0.0942
      8 C8          5.6798    1.9404   -4.0626 C.3       1 <0>        -0.1127
      9 C9          5.6955    2.3669   -2.5933 C.3       1 <0>        -0.0220
     10 H1          4.9913    1.7548   -2.0298 H         1 <0>         0.1403
     11 C10         7.0818    2.1834   -2.0317 C.2       1 <0>         0.4662
     12 O1          7.6853    3.1325   -1.5903 O.co2     1 <0>        -0.6222
     13 C11         4.7429    4.0752   -1.1661 C.3       1 <0>         0.0185
     14 H2          5.2508    3.4699   -0.4152 H         1 <0>         0.1573
     15 C12         4.9535    5.5547   -0.8465 C.3       1 <0>        -0.1244
     16 C13         4.0339    5.9650    0.3069 C.3       1 <0>        -0.0760
     17 C14         4.0396    4.9109    1.3816 C.ar      1 <0>        -0.1155
     18 C15         4.7455    5.1113    2.5516 C.ar      1 <0>        -0.0983
     19 C16         4.7320    4.1446    3.5405 C.ar      1 <0>        -0.1219
     20 C17         4.0119    2.9772    3.3630 C.ar      1 <0>        -0.1022
     21 C18         3.3086    2.7689    2.1921 C.ar      1 <0>        -0.1020
     22 C19         3.3261    3.7397    1.1959 C.ar      1 <0>         0.1293
     23 N1          2.6340    3.5287   -0.0041 N.am      1 <0>        -0.5081
     24 C20         3.2779    3.7383   -1.1664 C.2       1 <0>         0.5172
     25 O2          2.6758    3.6551   -2.2160 O.2       1 <0>        -0.5263
     26 C21         1.2350    3.0943    0.0069 C.3       1 <0>         0.0651
     27 C22         1.1765    1.5884   -0.0006 C.2       1 <0>         0.4522
     28 O3          2.1986    0.9442   -0.0139 O.co2     1 <0>        -0.6206
     29 H3          4.1934    0.5164   -9.7374 H         1 <0>         0.1194
     30 H4          3.8888   -1.1647   -7.9641 H         1 <0>         0.1223
     31 H5          3.9144   -0.4784   -5.5995 H         1 <0>         0.1264
     32 H6          4.5379    3.5717   -6.7817 H         1 <0>         0.1184
     33 H7          4.5228    2.8839   -9.1460 H         1 <0>         0.1198
     34 H8          3.6116    1.3393   -4.0188 H         1 <0>         0.0914
     35 H9          3.8760    3.0290   -4.5121 H         1 <0>         0.0691
     36 H10         6.3164    2.6092   -4.6418 H         1 <0>         0.0781
     37 H11         6.0520    0.9195   -4.1486 H         1 <0>         0.1164
     38 H12         5.9920    5.7200   -0.5594 H         1 <0>         0.1095
     39 H13         4.7207    6.1532   -1.7272 H         1 <0>         0.0908
     40 H14         4.3807    6.9094    0.7262 H         1 <0>         0.0958
     41 H15         3.0186    6.0915   -0.0688 H         1 <0>         0.0802
     42 H16         5.3080    6.0221    2.6941 H         1 <0>         0.1285
     43 H17         5.2852    4.3019    4.4546 H         1 <0>         0.1257
     44 H18         3.9991    2.2277    4.1405 H         1 <0>         0.1292
     45 H19         2.7464    1.8574    2.0525 H         1 <0>         0.1467
     46 H20         0.7272    3.4820   -0.8762 H         1 <0>         0.1001
     47 H21         0.7441    3.4725    0.9036 H         1 <0>         0.0911
     48 O4          7.6463    0.9656   -2.0219 O.co2     1 <0>        -0.7010
     49 N2          5.3093    3.7873   -2.4974 N.4       1 <0>        -0.4854
     50 H22         4.6072    3.9967   -3.2167 H         1 <0>         0.4187
     51 H23         6.1383    4.3745   -2.6469 H         1 <0>         0.4314
     52 O5         -0.0110    0.9628    0.0073 O.co2     1 <0>        -0.7551
@<TRIPOS>BOND
     1    1    6 ar
     2    1    2 ar
     3    1   29 1
     4    2    3 ar
     5    2   30 1
     6    3    4 ar
     7    3   31 1
     8    4    5 ar
     9    4    7 1
    10    5    6 ar
    11    5   32 1
    12    6   33 1
    13    7    8 1
    14    7   34 1
    15    7   35 1
    16    8    9 1
    17    8   36 1
    18    8   37 1
    19    9   10 1
    20    9   11 1
    21    9   49 1
    22   11   12 2
    23   11   48 1
    24   13   14 1
    25   13   24 1
    26   13   15 1
    27   13   49 1
    28   15   16 1
    29   15   38 1
    30   15   39 1
    31   16   17 1
    32   16   40 1
    33   16   41 1
    34   17   22 ar
    35   17   18 ar
    36   18   19 ar
    37   18   42 1
    38   19   20 ar
    39   19   43 1
    40   20   21 ar
    41   20   44 1
    42   21   22 ar
    43   21   45 1
    44   22   23 1
    45   23   24 am
    46   23   26 1
    47   24   25 2
    48   26   27 1
    49   26   46 1
    50   26   47 1
    51   27   28 2
    52   27   52 1
    53   49   50 1
    54   49   51 1
@<TRIPOS>MOLECULE
ZINC03814185
   54    56     0     0     0
SMALL
USER_CHARGES

@<TRIPOS>ATOM
      1 C1         -1.0611   -4.9439    1.4952 C.3       1 <0>        -0.1790
      2 C2         -0.9961   -3.8971    0.3813 C.3       1 <0>         0.0238
      3 H1         -0.0396   -3.9755   -0.1356 H         1 <0>         0.1431
      4 C3         -2.1169   -4.1348   -0.5976 C.2       1 <0>         0.5237
      5 O1         -2.9458   -3.2710   -0.7919 O.2       1 <0>        -0.5248
      6 N1         -2.1984   -5.3074   -1.2570 N.am      1 <0>        -0.5735
      7 C4         -1.2595   -6.4360   -1.1221 C.3       1 <0>         0.0885
      8 C5         -1.3894   -7.2235   -2.4473 C.3       1 <0>        -0.1346
      9 C6         -2.9063   -7.0895   -2.7447 C.3       1 <0>        -0.1054
     10 C7         -3.2345   -5.6704   -2.2349 C.3       1 <0>         0.0899
     11 H2         -3.2226   -4.9658   -3.0664 H         1 <0>         0.0803
     12 C8         -4.5885   -5.6639   -1.5731 C.2       1 <0>         0.4623
     13 O2         -4.6870   -5.3850   -0.4017 O.co2     1 <0>        -0.6185
     14 C9          0.1692   -2.0499    1.4265 C.3       1 <0>        -0.0187
     15 H3          0.9549   -2.3989    0.7565 H         1 <0>         0.1345
     16 C10         0.1484   -0.5200    1.4349 C.3       1 <0>        -0.1200
     17 C11         0.0021   -0.0041    0.0020 C.3       1 <0>        -0.0975
     18 C12        -0.0184    1.5028    0.0103 C.ar      1 <0>        -0.0686
     19 C13        -1.2044    2.1709    0.0195 C.ar      1 <0>        -0.1119
     20 C14        -1.2432    3.5636    0.0321 C.ar      1 <0>        -0.1121
     21 C15        -0.0962    4.2968    0.0255 C.ar      1 <0>        -0.1083
     22 C16         1.1470    3.6423    0.0107 C.ar      1 <0>        -0.0509
     23 C17         1.1866    2.2254    0.0027 C.ar      1 <0>        -0.0434
     24 C18         2.4303    1.5711   -0.0117 C.ar      1 <0>        -0.1055
     25 C19         3.5768    2.3042   -0.0173 C.ar      1 <0>        -0.1149
     26 C20         3.5379    3.6975   -0.0098 C.ar      1 <0>        -0.1156
     27 C21         2.3522    4.3653    0.0041 C.ar      1 <0>        -0.1082
     28 C22         0.4360   -2.5563    2.8206 C.2       1 <0>         0.4603
     29 O3         -0.3730   -3.2650    3.3711 O.co2     1 <0>        -0.6019
     30 H4         -2.0176   -4.8655    2.0121 H         1 <0>         0.0863
     31 H5         -0.9617   -5.9400    1.0639 H         1 <0>         0.0892
     32 H6         -0.2504   -4.7720    2.2032 H         1 <0>         0.1174
     33 H7         -0.2408   -6.0692   -0.9967 H         1 <0>         0.0756
     34 H8         -1.5430   -7.0666   -0.2795 H         1 <0>         0.0789
     35 H9         -1.1085   -8.2680   -2.3123 H         1 <0>         0.0855
     36 H10        -0.7946   -6.7596   -3.2341 H         1 <0>         0.0749
     37 H11        -3.4750   -7.8384   -2.1936 H         1 <0>         0.0786
     38 H12        -3.0979   -7.1687   -3.8148 H         1 <0>         0.0834
     39 H13         1.0789   -0.1464    1.8624 H         1 <0>         0.1180
     40 H14        -0.6926   -0.1713    2.0343 H         1 <0>         0.0844
     41 H15        -0.9284   -0.3777   -0.4254 H         1 <0>         0.0716
     42 H16         0.8431   -0.3527   -0.5974 H         1 <0>         0.0872
     43 H17        -2.1291    1.6130    0.0209 H         1 <0>         0.1250
     44 H18        -2.1975    4.0691    0.0431 H         1 <0>         0.1244
     45 H19        -0.1416    5.3758    0.0321 H         1 <0>         0.1261
     46 H20         2.4760    0.4920   -0.0176 H         1 <0>         0.1295
     47 H21         4.5312    1.7989   -0.0280 H         1 <0>         0.1238
     48 H22         4.4626    4.2554   -0.0149 H         1 <0>         0.1222
     49 H23         2.3375    5.4452    0.0104 H         1 <0>         0.1257
     50 O4         -5.6849   -5.9680   -2.2852 O.co2     1 <0>        -0.7617
     51 N2         -1.1392   -2.5492    0.9633 N.4       1 <0>        -0.4882
     52 H24        -1.7869   -2.5908    1.7589 H         1 <0>         0.4376
     53 H25        -1.5126   -1.9107    0.2511 H         1 <0>         0.4187
     54 O5          1.5725   -2.2200    3.4507 O.co2     1 <0>        -0.7070
@<TRIPOS>BOND
     1    1    2 1
     2    1   30 1
     3    1   31 1
     4    1   32 1
     5    2    3 1
     6    2    4 1
     7    2   51 1
     8    4    5 2
     9    4    6 am
    10    6   10 1
    11    6    7 1
    12    7    8 1
    13    7   33 1
    14    7   34 1
    15    8    9 1
    16    8   35 1
    17    8   36 1
    18    9   10 1
    19    9   37 1
    20    9   38 1
    21   10   11 1
    22   10   12 1
    23   12   13 2
    24   12   50 1
    25   14   15 1
    26   14   16 1
    27   14   28 1
    28   14   51 1
    29   16   17 1
    30   16   39 1
    31   16   40 1
    32   17   18 1
    33   17   41 1
    34   17   42 1
    35   18   23 ar
    36   18   19 ar
    37   19   20 ar
    38   19   43 1
    39   20   21 ar
    40   20   44 1
    41   21   22 ar
    42   21   45 1
    43   22   27 ar
    44   22   23 ar
    45   23   24 ar
    46   24   25 ar
    47   24   46 1
    48   25   26 ar
    49   25   47 1
    50   26   27 ar
    51   26   48 1
    52   27   49 1
    53   28   29 2
    54   28   54 1
    55   51   52 1
    56   51   53 1
@<TRIPOS>MOLECULE
ZINC03814186
   28    29     0     0     0
SMALL
USER_CHARGES

@<TRIPOS>ATOM
      1 C1         -0.8518   -2.2380    2.5020 C.3       1 <0>         0.1848
      2 C2         -1.8665   -1.1232    2.3876 C.2       1 <0>        -0.1913
      3 C3         -2.0640   -0.4699    1.2741 C.2       1 <0>        -0.1044
      4 C4         -1.2926   -0.7753    0.0102 C.3       1 <0>         0.1512
      5 H1         -1.8885   -0.5071   -0.8622 H         1 <0>         0.1205
      6 N1         -1.0148   -2.2144   -0.0001 N.am      1 <0>        -0.4020
      7 N2         -0.8015   -2.9233    1.2073 N.am      1 <0>        -0.4239
      8 C5         -0.5761   -4.1953    0.8829 C.2       1 <0>         0.7046
      9 O1         -0.3521   -5.1011    1.6619 O.2       1 <0>        -0.5531
     10 N3         -0.6398   -4.3041   -0.4626 N.am      1 <0>        -0.5755
     11 C6         -0.9077   -3.0919   -0.9965 C.2       1 <0>         0.7053
     12 O2         -1.0299   -2.8451   -2.1804 O.2       1 <0>        -0.5439
     13 C7         -0.4484   -5.5416   -1.2230 C.3       1 <0>         0.1579
     14 C8          1.0318   -5.6992   -1.5766 C.3       1 <0>        -0.1746
     15 C9          1.2287   -6.9722   -2.3588 C.2       1 <0>         0.4741
     16 O3          0.2822   -7.6807   -2.6078 O.co2     1 <0>        -0.6440
     17 C10         0.0021   -0.0041    0.0020 C.2       1 <0>         0.4640
     18 O4          1.0565   -0.5939   -0.0112 O.co2     1 <0>        -0.6058
     19 H2         -1.1573   -2.9381    3.2797 H         1 <0>         0.1056
     20 H3          0.1279   -1.8238    2.7399 H         1 <0>         0.0882
     21 H4         -2.4495   -0.8581    3.2572 H         1 <0>         0.1288
     22 H5         -2.8037    0.3168    1.2557 H         1 <0>         0.1297
     23 H6         -0.7706   -6.3914   -0.6211 H         1 <0>         0.0940
     24 H7         -1.0383   -5.5004   -2.1386 H         1 <0>         0.0946
     25 H8          1.3540   -4.8494   -2.1785 H         1 <0>         0.0734
     26 H9          1.6218   -5.7404   -0.6610 H         1 <0>         0.0709
     27 O5          2.4555   -7.3189   -2.7788 O.co2     1 <0>        -0.7739
     28 O6         -0.0161    1.3381    0.0094 O.co2     1 <0>        -0.7550
@<TRIPOS>BOND
     1    1    7 1
     2    1    2 1
     3    1   19 1
     4    1   20 1
     5    2    3 2
     6    2   21 1
     7    3    4 1
     8    3   22 1
     9    4    5 1
    10    4    6 1
    11    4   17 1
    12    6   11 am
    13    6    7 1
    14    7    8 am
    15    8    9 2
    16    8   10 am
    17   10   11 am
    18   10   13 1
    19   11   12 2
    20   13   14 1
    21   13   23 1
    22   13   24 1
    23   14   15 1
    24   14   25 1
    25   14   26 1
    26   15   16 2
    27   15   27 1
    28   17   18 2
    29   17   28 1
@<TRIPOS>MOLECULE
ZINC03814187
   50    52     0     0     0
SMALL
USER_CHARGES

@<TRIPOS>ATOM
      1 C1          4.8039    1.2645    9.3414 C.ar      1 <0>        -0.1220
      2 C2          6.0743    1.7085    9.0255 C.ar      1 <0>        -0.1179
      3 C3          6.3400    2.2009    7.7615 C.ar      1 <0>        -0.1123
      4 C4          5.3353    2.2492    6.8133 C.ar      1 <0>        -0.0840
      5 C5          4.0636    1.8100    7.1308 C.ar      1 <0>        -0.1165
      6 C6          3.7993    1.3124    8.3931 C.ar      1 <0>        -0.1171
      7 C7          5.6248    2.7864    5.4353 C.3       1 <0>        -0.0912
      8 C8          6.0768    1.6417    4.5263 C.3       1 <0>        -0.1217
      9 C9          6.3708    2.1871    3.1274 C.3       1 <0>        -0.0175
     10 H1          7.0958    2.9979    3.1984 H         1 <0>         0.1353
     11 C10         6.9324    1.0851    2.2664 C.2       1 <0>         0.4524
     12 O1          6.1988    0.4425    1.5530 O.co2     1 <0>        -0.5879
     13 C11         5.4106    3.7346    1.5318 C.3       1 <0>         0.0423
     14 H2          6.3644    3.5127    1.0533 H         1 <0>         0.1574
     15 C12         5.5194    5.0633    2.2376 C.3       1 <0>        -0.1384
     16 C13         6.0632    6.1579    1.3516 C.3       1 <0>        -0.1109
     17 C14         5.0568    6.7269    0.4033 C.3       1 <0>        -0.1231
     18 C15         4.7255    5.8223   -0.7680 C.3       1 <0>         0.1861
     19 H3          5.6323    5.5278   -1.2963 H         1 <0>         0.1037
     20 N1          3.9424    4.6383   -0.3745 N.am      1 <0>        -0.5681
     21 C16         4.3447    3.7094    0.5041 C.2       1 <0>         0.4942
     22 O2          3.7279    2.6667    0.4479 O.2       1 <0>        -0.4728
     23 C17         2.6747    4.4513   -1.0985 C.3       1 <0>         0.0776
     24 H4          1.8528    4.7030   -0.4282 H         1 <0>         0.0893
     25 C18         2.5446    5.3070   -2.3771 C.3       1 <0>        -0.0365
     26 S1          3.5751    6.7504   -1.8747 S.3       1 <0>        -0.2906
     27 C19         2.5509    2.9987   -1.4799 C.2       1 <0>         0.4852
     28 O3          3.5133    2.3998   -1.8984 O.co2     1 <0>        -0.6144
     29 H5          4.5963    0.8798   10.3290 H         1 <0>         0.1210
     30 H6          6.8592    1.6711    9.7665 H         1 <0>         0.1224
     31 H7          7.3325    2.5481    7.5148 H         1 <0>         0.1243
     32 H8          3.2776    1.8519    6.3913 H         1 <0>         0.1224
     33 H9          2.8068    0.9652    8.6397 H         1 <0>         0.1227
     34 H10         6.4142    3.5356    5.4959 H         1 <0>         0.0869
     35 H11         4.7229    3.2412    5.0257 H         1 <0>         0.0649
     36 H12         5.2875    0.8925    4.4657 H         1 <0>         0.0869
     37 H13         6.9788    1.1869    4.9359 H         1 <0>         0.1135
     38 H14         6.1769    4.9501    3.0995 H         1 <0>         0.0969
     39 H15         4.5301    5.3557    2.5897 H         1 <0>         0.0895
     40 H16         6.8962    5.7563    0.7746 H         1 <0>         0.0772
     41 H17         6.4367    6.9620    1.9857 H         1 <0>         0.0925
     42 H18         5.4411    7.6701    0.0149 H         1 <0>         0.0931
     43 H19         4.1386    6.9313    0.9540 H         1 <0>         0.0831
     44 H20         2.9668    4.7969   -3.2429 H         1 <0>         0.1039
     45 H21         1.5105    5.6013   -2.5563 H         1 <0>         0.1256
     46 O4          8.2474    0.8174    2.2920 O.co2     1 <0>        -0.7148
     47 N2          5.1187    2.6887    2.5302 N.4       1 <0>        -0.4913
     48 H22         4.5249    3.0826    3.2695 H         1 <0>         0.4087
     49 H23         4.6265    1.9121    2.0732 H         1 <0>         0.4470
     50 O5          1.3716    2.3700   -1.3547 O.co2     1 <0>        -0.7567
@<TRIPOS>BOND
     1    1    6 ar
     2    1    2 ar
     3    1   29 1
     4    2    3 ar
     5    2   30 1
     6    3    4 ar
     7    3   31 1
     8    4    5 ar
     9    4    7 1
    10    5    6 ar
    11    5   32 1
    12    6   33 1
    13    7    8 1
    14    7   34 1
    15    7   35 1
    16    8    9 1
    17    8   36 1
    18    8   37 1
    19    9   10 1
    20    9   11 1
    21    9   47 1
    22   11   12 2
    23   11   46 1
    24   13   14 1
    25   13   21 1
    26   13   15 1
    27   13   47 1
    28   15   16 1
    29   15   38 1
    30   15   39 1
    31   16   17 1
    32   16   40 1
    33   16   41 1
    34   17   18 1
    35   17   42 1
    36   17   43 1
    37   18   19 1
    38   18   26 1
    39   18   20 1
    40   20   21 am
    41   20   23 1
    42   21   22 2
    43   23   24 1
    44   23   25 1
    45   23   27 1
    46   25   26 1
    47   25   44 1
    48   25   45 1
    49   27   28 2
    50   27   50 1
    51   47   48 1
    52   47   49 1
@<TRIPOS>MOLECULE
ZINC03814188
   52    53     0     0     0
SMALL
USER_CHARGES

@<TRIPOS>ATOM
      1 C1         -2.4337    3.4181   -2.8032 C.3       1 <0>        -0.1799
      2 C2         -2.4809    1.8906   -2.8758 C.3       1 <0>         0.0235
      3 H1         -1.8883    1.5487   -3.7243 H         1 <0>         0.1440
      4 C3         -1.9189    1.3096   -1.6039 C.2       1 <0>         0.5230
      5 O1         -2.6098    0.5993   -0.9045 O.2       1 <0>        -0.5255
      6 N1         -0.6485    1.5794   -1.2436 N.am      1 <0>        -0.5730
      7 C4          0.2976    2.4227   -1.9967 C.3       1 <0>         0.0881
      8 C5          1.7005    1.9331   -1.5587 C.3       1 <0>        -0.1344
      9 C6          1.4677    1.6245   -0.0561 C.3       1 <0>        -0.1057
     10 C7          0.0235    1.0810   -0.0346 C.3       1 <0>         0.0901
     11 H2          0.0374   -0.0089   -0.0408 H         1 <0>         0.0802
     12 C8         -0.6926    1.5772    1.1951 C.2       1 <0>         0.4616
     13 O2         -1.6739    2.2731    1.0832 O.co2     1 <0>        -0.6182
     14 C9         -4.2648    1.4675   -4.4573 C.3       1 <0>        -0.0191
     15 H3         -3.4108    1.1876   -5.0741 H         1 <0>         0.1366
     16 C10        -5.4046    0.4720   -4.6825 C.3       1 <0>        -0.1101
     17 C11        -4.9008   -0.9483   -4.4186 C.3       1 <0>        -0.1574
     18 C12        -6.0236   -1.9288   -4.6403 C.2       1 <0>         0.5184
     19 O3         -7.1188   -1.5308   -4.9764 O.2       1 <0>        -0.5035
     20 N2         -5.8105   -3.2481   -4.4652 N.am      1 <0>        -0.6756
     21 C13        -6.8752   -4.1496   -4.5763 C.ar      1 <0>         0.1639
     22 C14        -6.9188   -5.2777   -3.7676 C.ar      1 <0>        -0.1406
     23 C15        -7.9741   -6.1621   -3.8749 C.ar      1 <0>        -0.0659
     24 C16        -8.9805   -5.9318   -4.7957 C.ar      1 <0>        -0.1153
     25 C17        -8.9365   -4.8121   -5.6069 C.ar      1 <0>        -0.0656
     26 C18        -7.8871   -3.9208   -5.4995 C.ar      1 <0>        -0.1172
     27 I1        -10.5746   -7.2810   -4.9615 I         1 <0>        -0.0453
     28 C19        -4.7250    2.8519   -4.8350 C.2       1 <0>         0.4607
     29 O4         -4.7262    3.7343   -4.0096 O.co2     1 <0>        -0.6005
     30 H4         -1.4010    3.7443   -2.6800 H         1 <0>         0.0897
     31 H5         -2.8402    3.8383   -3.7231 H         1 <0>         0.1181
     32 H6         -3.0263    3.7600   -1.9546 H         1 <0>         0.0867
     33 H7          0.1628    3.4719   -1.7338 H         1 <0>         0.0794
     34 H8          0.1633    2.2790   -3.0688 H         1 <0>         0.0760
     35 H9          2.4456    2.7186   -1.6854 H         1 <0>         0.0854
     36 H10         1.9876    1.0331   -2.1025 H         1 <0>         0.0751
     37 H11         1.5468    2.5330    0.5410 H         1 <0>         0.0788
     38 H12         2.1696    0.8683    0.2956 H         1 <0>         0.0836
     39 H13        -6.2250    0.6990   -4.0016 H         1 <0>         0.0917
     40 H14        -5.7552    0.5478   -5.7118 H         1 <0>         0.1258
     41 H15        -4.0805   -1.1753   -5.0994 H         1 <0>         0.1120
     42 H16        -4.5503   -1.0241   -3.3893 H         1 <0>         0.0941
     43 H17        -4.9193   -3.5727   -4.2621 H         1 <0>         0.4150
     44 H18        -6.1308   -5.4607   -3.0522 H         1 <0>         0.1356
     45 H19        -8.0113   -7.0369   -3.2426 H         1 <0>         0.1335
     46 H20        -9.7237   -4.6347   -6.3246 H         1 <0>         0.1330
     47 H21        -7.8536   -3.0464   -6.1326 H         1 <0>         0.1487
     48 O5         -0.2402    1.2460    2.4147 O.co2     1 <0>        -0.7612
     49 N3         -3.8791    1.4481   -3.0337 N.4       1 <0>        -0.4889
     50 H22        -4.4954    2.0784   -2.5072 H         1 <0>         0.4391
     51 H23        -3.9752    0.4928   -2.6698 H         1 <0>         0.4161
     52 O6         -5.1335    3.1048   -6.0884 O.co2     1 <0>        -0.7047
@<TRIPOS>BOND
     1    1    2 1
     2    1   30 1
     3    1   31 1
     4    1   32 1
     5    2    3 1
     6    2    4 1
     7    2   49 1
     8    4    5 2
     9    4    6 am
    10    6   10 1
    11    6    7 1
    12    7    8 1
    13    7   33 1
    14    7   34 1
    15    8    9 1
    16    8   35 1
    17    8   36 1
    18    9   10 1
    19    9   37 1
    20    9   38 1
    21   10   11 1
    22   10   12 1
    23   12   13 2
    24   12   48 1
    25   14   15 1
    26   14   16 1
    27   14   28 1
    28   14   49 1
    29   16   17 1
    30   16   39 1
    31   16   40 1
    32   17   18 1
    33   17   41 1
    34   17   42 1
    35   18   19 2
    36   18   20 am
    37   20   21 1
    38   20   43 1
    39   21   26 ar
    40   21   22 ar
    41   22   23 ar
    42   22   44 1
    43   23   24 ar
    44   23   45 1
    45   24   25 ar
    46   24   27 1
    47   25   26 ar
    48   25   46 1
    49   26   47 1
    50   28   29 2
    51   28   52 1
    52   49   50 1
    53   49   51 1
@<TRIPOS>MOLECULE
ZINC03814189
   44    45     0     0     0
SMALL
USER_CHARGES

@<TRIPOS>ATOM
      1 C1          5.1602    4.7496    1.8415 C.3       1 <0>        -0.1496
      2 C2          5.7977    3.4013    2.1828 C.3       1 <0>        -0.1303
      3 H1          5.4624    3.0801    3.1690 H         1 <0>         0.1677
      4 C3          7.3211    3.5429    2.1832 C.3       1 <0>        -0.0381
      5 S1          7.8239    4.6631    3.5184 S.3       1 <0>        -0.2306
      6 C4          5.3885    2.3778    1.1552 C.2       1 <0>         0.5620
      7 O1          6.2297    1.8404    0.4662 O.2       1 <0>        -0.5544
      8 N1          4.0879    2.0595    1.0017 N.am      1 <0>        -0.5906
      9 C5          2.9576    2.7079    1.6912 C.3       1 <0>         0.0778
     10 H2          2.6450    3.6010    1.1500 H         1 <0>         0.0867
     11 C6          1.8272    1.6487    1.6821 C.3       1 <0>        -0.1024
     12 C7          2.0279    0.9910    0.2912 C.3       1 <0>        -0.0924
     13 H3          1.5449    1.5786   -0.4896 H         1 <0>         0.1199
     14 C8          3.5613    1.0088    0.1184 C.3       1 <0>         0.1966
     15 H4          3.8150    1.2338   -0.9175 H         1 <0>         0.0921
     16 C9          4.1369   -0.3273    0.5114 C.ar      1 <0>        -0.1040
     17 C10         4.3359   -0.6286    1.8458 C.ar      1 <0>        -0.0753
     18 C11         4.8595   -1.8561    2.2066 C.ar      1 <0>        -0.1223
     19 C12         5.1937   -2.7782    1.2325 C.ar      1 <0>        -0.1190
     20 C13         4.9996   -2.4748   -0.1021 C.ar      1 <0>        -0.1334
     21 C14         4.4712   -1.2494   -0.4626 C.ar      1 <0>        -0.1009
     22 C15         1.5076   -0.4234    0.2902 C.2       1 <0>         0.4779
     23 O2          1.3059   -0.9936    1.3361 O.2       1 <0>        -0.4888
     24 O3          1.2735   -1.0515   -0.8727 O.3       1 <0>        -0.3574
     25 C16         0.7789   -2.4146   -0.7977 C.3       1 <0>         0.0371
     26 C17         3.3384    3.0597    3.1062 C.2       1 <0>         0.4703
     27 O4          3.9868    2.2841    3.7679 O.co2     1 <0>        -0.6142
     28 H5          4.0749    4.6488    1.8413 H         1 <0>         0.0925
     29 H6          5.4561    5.4900    2.5848 H         1 <0>         0.0737
     30 H7          5.4955    5.0708    0.8554 H         1 <0>         0.0381
     31 H8          7.7769    2.5650    2.3383 H         1 <0>         0.0836
     32 H9          7.6485    3.9485    1.2259 H         1 <0>         0.0787
     33 H10         9.1645    4.7072    3.4186 H         1 <0>         0.0675
     34 H11         0.8478    2.1219    1.7529 H         1 <0>         0.0911
     35 H12         1.9668    0.9215    2.4819 H         1 <0>         0.0992
     36 H13         4.0789    0.0936    2.6066 H         1 <0>         0.1410
     37 H14         5.0115   -2.0929    3.2493 H         1 <0>         0.1188
     38 H15         5.6069   -3.7354    1.5141 H         1 <0>         0.1151
     39 H16         5.2611   -3.1951   -0.8632 H         1 <0>         0.1160
     40 H17         4.3198   -1.0123   -1.5054 H         1 <0>         0.1179
     41 H18         1.5031   -3.0354   -0.2702 H         1 <0>         0.0619
     42 H19        -0.1700   -2.4279   -0.2615 H         1 <0>         0.0600
     43 H20         0.6324   -2.8039   -1.8053 H         1 <0>         0.0974
     44 O5          2.9573    4.2347    3.6314 O.co2     1 <0>        -0.7368
@<TRIPOS>BOND
     1    1    2 1
     2    1   28 1
     3    1   29 1
     4    1   30 1
     5    2    3 1
     6    2    4 1
     7    2    6 1
     8    4    5 1
     9    4   31 1
    10    4   32 1
    11    5   33 1
    12    6    7 2
    13    6    8 am
    14    8   14 1
    15    8    9 1
    16    9   10 1
    17    9   11 1
    18    9   26 1
    19   11   12 1
    20   11   34 1
    21   11   35 1
    22   12   13 1
    23   12   14 1
    24   12   22 1
    25   14   15 1
    26   14   16 1
    27   16   21 ar
    28   16   17 ar
    29   17   18 ar
    30   17   36 1
    31   18   19 ar
    32   18   37 1
    33   19   20 ar
    34   19   38 1
    35   20   21 ar
    36   20   39 1
    37   21   40 1
    38   22   23 2
    39   22   24 1
    40   24   25 1
    41   25   41 1
    42   25   42 1
    43   25   43 1
    44   26   27 2
    45   26   44 1
@<TRIPOS>MOLECULE
ZINC03814190
   56    58     0     0     0
SMALL
USER_CHARGES

@<TRIPOS>ATOM
      1 C1         -0.3321    0.1917    5.6699 C.ar      1 <0>        -0.1077
      2 C2         -1.3390    0.6361    4.8327 C.ar      1 <0>        -0.0973
      3 C3         -2.1591   -0.2731    4.1908 C.ar      1 <0>        -0.0424
      4 C4         -1.9675   -1.6288    4.3762 C.ar      1 <0>        -0.1388
      5 C5         -0.9548   -2.0772    5.2113 C.ar      1 <0>         0.0953
      6 C6         -0.1365   -1.1625    5.8585 C.ar      1 <0>        -0.1507
      7 O1         -0.7641   -3.4102    5.3949 O.3       1 <0>        -0.5020
      8 C7         -3.2588    0.2147    3.2833 C.3       1 <0>         0.0769
      9 H1         -3.5781   -0.5807    2.6099 H         1 <0>         0.0709
     10 C8         -4.4540    0.7290    4.1140 C.3       1 <0>        -0.1136
     11 C9         -4.9835    1.9533    3.3392 C.3       1 <0>        -0.0989
     12 C10        -4.0636    2.0757    2.1054 C.3       1 <0>         0.0076
     13 H2         -4.5089    1.5715    1.2477 H         1 <0>         0.0667
     14 N1         -2.8045    1.3981    2.5085 N.3       1 <0>        -0.2896
     15 O2         -2.0295    0.9914    1.3363 O.3       1 <0>        -0.2661
     16 C11        -0.7288    1.5792    1.2668 C.3       1 <0>         0.0597
     17 C12        -0.0127    1.0858    0.0080 C.3       1 <0>         0.1272
     18 N2         -0.7213    1.5711   -1.1789 N.am      1 <0>        -0.7037
     19 C13        -0.2681    1.2584   -2.4090 C.2       1 <0>         0.5181
     20 O3          0.7262    0.5752   -2.5335 O.2       1 <0>        -0.5485
     21 C14        -0.9970    1.7576   -3.6299 C.3       1 <0>        -0.0631
     22 H3         -1.4758    2.7102   -3.4031 H         1 <0>         0.1404
     23 C15        -0.0015    1.9474   -4.7761 C.3       1 <0>        -0.0608
     24 C16        -0.7069    2.5618   -5.9576 C.ar      1 <0>        -0.0921
     25 C17        -1.2896    1.7492   -6.9126 C.ar      1 <0>        -0.0738
     26 C18        -1.9418    2.3100   -7.9936 C.ar      1 <0>        -0.1456
     27 C19        -2.0020    3.6896   -8.1265 C.ar      1 <0>         0.1028
     28 C20        -1.4116    4.5027   -7.1700 C.ar      1 <0>        -0.1454
     29 C21        -0.7655    3.9371   -6.0878 C.ar      1 <0>        -0.0937
     30 O4         -2.6385    4.2437   -9.1917 O.3       1 <0>        -0.5002
     31 S1         -2.2578    0.5482   -4.1181 S.3       1 <0>        -0.1848
     32 C22        -3.8017    3.5252    1.7868 C.2       1 <0>         0.4810
     33 O5         -2.6828    3.9715    1.8798 O.co2     1 <0>        -0.6184
     34 H4          0.3044    0.9041    6.1737 H         1 <0>         0.1252
     35 H5         -1.4875    1.6953    4.6830 H         1 <0>         0.1371
     36 H6         -2.6060   -2.3388    3.8716 H         1 <0>         0.1234
     37 H7          0.6529   -1.5091    6.5090 H         1 <0>         0.1228
     38 H8         -0.1508   -3.8104    4.7635 H         1 <0>         0.3863
     39 H9         -4.1236    1.0251    5.1097 H         1 <0>         0.0754
     40 H10        -5.2253   -0.0381    4.1827 H         1 <0>         0.0735
     41 H11        -4.9129    2.8503    3.9545 H         1 <0>         0.0759
     42 H12        -6.0147    1.7872    3.0275 H         1 <0>         0.0741
     43 H13        -0.1536    1.2938    2.1476 H         1 <0>         0.0599
     44 H14        -0.8222    2.6646    1.2299 H         1 <0>         0.0850
     45 H15         0.0021   -0.0041    0.0020 H         1 <0>         0.0692
     46 H16         1.0099    1.4631    0.0003 H         1 <0>         0.0829
     47 H17        -1.5165    2.1175   -1.0793 H         1 <0>         0.4146
     48 H18         0.8047    2.6055   -4.4519 H         1 <0>         0.0904
     49 H19         0.4118    0.9803   -5.0624 H         1 <0>         0.0821
     50 H20        -1.2387    0.6752   -6.8109 H         1 <0>         0.1232
     51 H21        -2.4006    1.6749   -8.7369 H         1 <0>         0.1267
     52 H22        -1.4574    5.5770   -7.2710 H         1 <0>         0.1281
     53 H23        -0.3061    4.5696   -5.3427 H         1 <0>         0.1281
     54 H24        -2.0670    4.3932   -9.9573 H         1 <0>         0.3875
     55 H25        -1.5552   -0.5708   -4.3696 H         1 <0>         0.0847
     56 O6         -4.8115    4.3204    1.3998 O.co2     1 <0>        -0.7656
@<TRIPOS>BOND
     1    1    6 ar
     2    1    2 ar
     3    1   34 1
     4    2    3 ar
     5    2   35 1
     6    3    4 ar
     7    3    8 1
     8    4    5 ar
     9    4   36 1
    10    5    6 ar
    11    5    7 1
    12    6   37 1
    13    7   38 1
    14    8    9 1
    15    8   14 1
    16    8   10 1
    17   10   11 1
    18   10   39 1
    19   10   40 1
    20   11   12 1
    21   11   41 1
    22   11   42 1
    23   12   13 1
    24   12   14 1
    25   12   32 1
    26   14   15 1
    27   15   16 1
    28   16   17 1
    29   16   43 1
    30   16   44 1
    31   17   18 1
    32   17   45 1
    33   17   46 1
    34   18   19 am
    35   18   47 1
    36   19   20 2
    37   19   21 1
    38   21   22 1
    39   21   23 1
    40   21   31 1
    41   23   24 1
    42   23   48 1
    43   23   49 1
    44   24   29 ar
    45   24   25 ar
    46   25   26 ar
    47   25   50 1
    48   26   27 ar
    49   26   51 1
    50   27   28 ar
    51   27   30 1
    52   28   29 ar
    53   28   52 1
    54   29   53 1
    55   30   54 1
    56   31   55 1
    57   32   33 2
    58   32   56 1
@<TRIPOS>MOLECULE
ZINC03814191
   28    28     0     0     0
SMALL
USER_CHARGES

@<TRIPOS>ATOM
      1 C1         -5.0898    1.3055    0.3998 C.3       1 <0>        -0.1505
      2 C2         -4.5283    2.6268    0.9287 C.3       1 <0>        -0.0861
      3 H1         -4.4441    3.3400    0.1087 H         1 <0>         0.1000
      4 C3         -5.4672    3.1882    1.9984 C.3       1 <0>        -0.0419
      5 S1         -7.0605    3.6123    1.2422 S.3       1 <0>        -0.2556
      6 C4         -3.1669    2.3894    1.5297 C.2       1 <0>         0.5406
      7 O1         -2.9672    2.6441    2.6986 O.2       1 <0>        -0.5285
      8 N1         -2.1712    1.8940    0.7684 N.am      1 <0>        -0.5946
      9 C5         -2.2753    1.5414   -0.6593 C.3       1 <0>         0.0998
     10 C6         -0.8250    1.6304   -1.1965 C.3       1 <0>        -0.1355
     11 C7         -0.0127    1.0858    0.0080 C.3       1 <0>        -0.1049
     12 C8         -0.7976    1.6145    1.2270 C.3       1 <0>         0.0920
     13 H2         -0.3353    2.5297    1.5970 H         1 <0>         0.0734
     14 C9         -0.8187    0.5716    2.3146 C.2       1 <0>         0.4623
     15 O2         -1.8711    0.1128    2.6914 O.co2     1 <0>        -0.6183
     16 H3         -5.1740    0.5924    1.2199 H         1 <0>         0.0659
     17 H4         -6.0745    1.4772   -0.0349 H         1 <0>         0.0725
     18 H5         -4.4209    0.9056   -0.3622 H         1 <0>         0.0678
     19 H6         -5.6216    2.4396    2.7754 H         1 <0>         0.0928
     20 H7         -5.0242    4.0820    2.4378 H         1 <0>         0.0912
     21 H8         -7.7905    4.0884    2.2666 H         1 <0>         0.0868
     22 H9         -2.9169    2.2524   -1.1798 H         1 <0>         0.0715
     23 H10        -2.6610    0.5285   -0.7745 H         1 <0>         0.0676
     24 H11        -0.5526    2.6626   -1.4168 H         1 <0>         0.0721
     25 H12        -0.6935    0.9980   -2.0745 H         1 <0>         0.0791
     26 H13         0.0021   -0.0041    0.0020 H         1 <0>         0.0744
     27 H14         1.0020    1.4839    0.0005 H         1 <0>         0.0779
     28 O3          0.3316    0.1523    2.8648 O.co2     1 <0>        -0.7717
@<TRIPOS>BOND
     1    1    2 1
     2    1   16 1
     3    1   17 1
     4    1   18 1
     5    2    3 1
     6    2    4 1
     7    2    6 1
     8    4    5 1
     9    4   19 1
    10    4   20 1
    11    5   21 1
    12    6    7 2
    13    6    8 am
    14    8   12 1
    15    8    9 1
    16    9   10 1
    17    9   22 1
    18    9   23 1
    19   10   11 1
    20   10   24 1
    21   10   25 1
    22   11   12 1
    23   11   26 1
    24   11   27 1
    25   12   13 1
    26   12   14 1
    27   14   15 2
    28   14   28 1
@<TRIPOS>MOLECULE
ZINC03814192
   47    48     0     0     0
SMALL
USER_CHARGES

@<TRIPOS>ATOM
      1 C1         -0.6592    4.2845   -5.9073 C.3       1 <0>        -0.1525
      2 C2         -1.0333    5.7326   -5.5849 C.3       1 <0>        -0.0263
      3 H1         -2.0427    5.9354   -5.9429 H         1 <0>         0.0893
      4 C3         -0.0630    6.6650   -6.2632 C.ar      1 <0>        -0.0694
      5 C4          1.2846    6.5983   -5.9625 C.ar      1 <0>        -0.1127
      6 C5          2.1753    7.4507   -6.5879 C.ar      1 <0>        -0.1185
      7 C6          1.7172    8.3758   -7.5072 C.ar      1 <0>        -0.1292
      8 C7          0.3689    8.4460   -7.8040 C.ar      1 <0>        -0.1197
      9 C8         -0.5212    7.5908   -7.1818 C.ar      1 <0>        -0.1174
     10 C9         -0.9758    5.9494   -4.0715 C.3       1 <0>        -0.0812
     11 H2          0.0335    5.7466   -3.7135 H         1 <0>         0.1019
     12 C10        -1.3500    7.3975   -3.7491 C.3       1 <0>        -0.0553
     13 S1         -1.1393    7.6952   -1.9722 S.3       1 <0>        -0.2481
     14 C11        -1.9462    5.0170   -3.3932 C.2       1 <0>         0.5179
     15 O1         -2.6176    4.2541   -4.0551 O.2       1 <0>        -0.5416
     16 N1         -2.0679    5.0308   -2.0510 N.am      1 <0>        -0.6795
     17 C12        -3.0112    4.1243   -1.3917 C.3       1 <0>         0.1093
     18 H3         -3.0478    3.1801   -1.9349 H         1 <0>         0.0875
     19 C13        -2.5528    3.8685    0.0455 C.3       1 <0>        -0.0774
     20 C14        -1.2377    3.1328    0.0299 C.ar      1 <0>        -0.0645
     21 C15        -1.2190    1.7507    0.0173 C.ar      1 <0>        -0.1157
     22 C16        -0.0126    1.0758    0.0080 C.ar      1 <0>        -0.1200
     23 C17         1.1750    1.7832    0.0004 C.ar      1 <0>        -0.1349
     24 C18         1.1563    3.1654    0.0076 C.ar      1 <0>        -0.1205
     25 C19        -0.0501    3.8402    0.0223 C.ar      1 <0>        -0.1166
     26 C20        -4.3823    4.7494   -1.3779 C.2       1 <0>         0.4604
     27 O2         -4.5540    5.8402   -1.8685 O.co2     1 <0>        -0.6217
     28 H4         -1.3610    3.6101   -5.4167 H         1 <0>         0.0937
     29 H5         -0.7002    4.1300   -6.9855 H         1 <0>         0.0526
     30 H6          0.3502    4.0817   -5.5493 H         1 <0>         0.0482
     31 H7          1.6421    5.8781   -5.2415 H         1 <0>         0.1224
     32 H8          3.2287    7.3956   -6.3563 H         1 <0>         0.1195
     33 H9          2.4127    9.0436   -7.9939 H         1 <0>         0.1172
     34 H10         0.0109    9.1688   -8.5222 H         1 <0>         0.1188
     35 H11        -1.5746    7.6456   -7.4137 H         1 <0>         0.1222
     36 H12        -0.7040    8.0731   -4.3098 H         1 <0>         0.0926
     37 H13        -2.3891    7.5747   -4.0265 H         1 <0>         0.0939
     38 H14        -1.4936    8.9830   -1.8138 H         1 <0>         0.0902
     39 H15        -1.5309    5.6409   -1.5216 H         1 <0>         0.3960
     40 H16        -3.2997    3.2667    0.5633 H         1 <0>         0.0966
     41 H17        -2.4307    4.8201    0.5628 H         1 <0>         0.0722
     42 H18        -2.1469    1.1980    0.0188 H         1 <0>         0.1232
     43 H19         0.0021   -0.0041    0.0020 H         1 <0>         0.1169
     44 H20         2.1175    1.2560   -0.0115 H         1 <0>         0.1145
     45 H21         2.0841    3.7181    0.0014 H         1 <0>         0.1168
     46 H22        -0.0647    4.9201    0.0276 H         1 <0>         0.1188
     47 O3         -5.4130    4.0945   -0.8206 O.co2     1 <0>        -0.7699
@<TRIPOS>BOND
     1    1    2 1
     2    1   28 1
     3    1   29 1
     4    1   30 1
     5    2    3 1
     6    2    4 1
     7    2   10 1
     8    4    9 ar
     9    4    5 ar
    10    5    6 ar
    11    5   31 1
    12    6    7 ar
    13    6   32 1
    14    7    8 ar
    15    7   33 1
    16    8    9 ar
    17    8   34 1
    18    9   35 1
    19   10   11 1
    20   10   12 1
    21   10   14 1
    22   12   13 1
    23   12   36 1
    24   12   37 1
    25   13   38 1
    26   14   15 2
    27   14   16 am
    28   16   17 1
    29   16   39 1
    30   17   18 1
    31   17   19 1
    32   17   26 1
    33   19   20 1
    34   19   40 1
    35   19   41 1
    36   20   25 ar
    37   20   21 ar
    38   21   22 ar
    39   21   42 1
    40   22   23 ar
    41   22   43 1
    42   23   24 ar
    43   23   44 1
    44   24   25 ar
    45   24   45 1
    46   25   46 1
    47   26   27 2
    48   26   47 1
@<TRIPOS>MOLECULE
ZINC03814193
   65    67     0     0     0
SMALL
USER_CHARGES

@<TRIPOS>ATOM
      1 C1          3.3150    0.6818   -3.4618 C.3       1 <0>        -0.1574
      2 C2          1.8591    0.2405   -3.2984 C.3       1 <0>         0.0630
      3 O1          1.1903    1.1183   -2.3548 O.3       1 <0>        -0.3326
      4 C3         -0.1027    0.8653   -2.0981 C.2       1 <0>         0.4635
      5 O2         -0.6573   -0.0591   -2.6439 O.2       1 <0>        -0.4871
      6 C4         -0.8626    1.7341   -1.1293 C.3       1 <0>         0.0385
      7 H1         -0.8618    2.7638   -1.4868 H         1 <0>         0.1856
      8 C5         -0.1937    1.6709    0.2453 C.3       1 <0>        -0.1316
      9 C6         -0.8889    2.6475    1.1961 C.3       1 <0>        -0.0905
     10 C7         -0.2300    2.5853    2.5501 C.ar      1 <0>        -0.0904
     11 C8         -0.6921    1.6974    3.5035 C.ar      1 <0>        -0.1163
     12 C9         -0.0847    1.6369    4.7437 C.ar      1 <0>        -0.1172
     13 C10         0.9782    2.4717    5.0342 C.ar      1 <0>        -0.1163
     14 C11         1.4370    3.3632    4.0826 C.ar      1 <0>        -0.1158
     15 C12         0.8329    3.4200    2.8405 C.ar      1 <0>        -0.1094
     16 C13        -3.0839    1.8198   -2.0891 C.3       1 <0>        -0.0120
     17 H2         -2.7576    2.8369   -2.3060 H         1 <0>         0.1884
     18 C14        -2.9529    0.9625   -3.3495 C.3       1 <0>        -0.1650
     19 C15        -4.5228    1.8385   -1.6416 C.2       1 <0>         0.5400
     20 O3         -4.9302    0.9927   -0.8738 O.2       1 <0>        -0.5484
     21 N1         -5.3570    2.7953   -2.0947 N.am      1 <0>        -0.5562
     22 C16        -6.7588    2.9711   -1.7060 C.3       1 <0>         0.1457
     23 H3         -7.3812    2.3870   -2.3838 H         1 <0>         0.0700
     24 C17        -7.0426    2.5110   -0.2941 C.3       1 <0>        -0.1349
     25 C18        -6.3251    3.3907    0.7298 C.3       1 <0>        -0.1093
     26 C19        -6.8055    4.8346    0.5488 C.3       1 <0>        -0.1160
     27 C20        -6.3892    5.3207   -0.8467 C.3       1 <0>        -0.1312
     28 C21        -7.0628    4.4676   -1.9237 C.3       1 <0>        -0.0956
     29 H4         -8.1301    4.6670   -2.0187 H         1 <0>         0.0997
     30 C22        -6.2804    4.7238   -3.2483 C.3       1 <0>        -0.1130
     31 C23        -5.0218    3.8453   -3.0733 C.3       1 <0>         0.0643
     32 H5         -4.7478    3.3912   -4.0256 H         1 <0>         0.0866
     33 C24        -3.8798    4.6822   -2.5569 C.2       1 <0>         0.4611
     34 O4         -3.3881    4.4352   -1.4812 O.co2     1 <0>        -0.6334
     35 H6          3.8204    0.6311   -2.4973 H         1 <0>         0.0709
     36 H7          3.8170    0.0228   -4.1702 H         1 <0>         0.0884
     37 H8          3.3447    1.7057   -3.8342 H         1 <0>         0.0728
     38 H9          1.8294   -0.7834   -2.9260 H         1 <0>         0.0795
     39 H10         1.3537    0.2912   -4.2629 H         1 <0>         0.0805
     40 H11        -0.2733    0.6588    0.6420 H         1 <0>         0.0948
     41 H12         0.8577    1.9424    0.1506 H         1 <0>         0.1272
     42 H13        -0.8093    3.6596    0.7995 H         1 <0>         0.1028
     43 H14        -1.9403    2.3760    1.2909 H         1 <0>         0.0717
     44 H15        -1.5254    1.0483    3.2781 H         1 <0>         0.1204
     45 H16        -0.4433    0.9406    5.4873 H         1 <0>         0.1238
     46 H17         1.4500    2.4276    6.0047 H         1 <0>         0.1236
     47 H18         2.2671    4.0157    4.3096 H         1 <0>         0.1251
     48 H19         1.1911    4.1168    2.0972 H         1 <0>         0.1263
     49 H20        -3.6748    1.2982   -4.0940 H         1 <0>         0.0981
     50 H21        -1.9444    1.0594   -3.7517 H         1 <0>         0.0892
     51 H22        -3.1461   -0.0811   -3.1008 H         1 <0>         0.0873
     52 H23        -8.1165    2.5556   -0.1130 H         1 <0>         0.0694
     53 H24        -6.7045    1.4811   -0.1793 H         1 <0>         0.0940
     54 H25        -6.5617    3.0488    1.7373 H         1 <0>         0.0574
     55 H26        -5.2484    3.3391    0.5676 H         1 <0>         0.0615
     56 H27        -7.8904    4.8740    0.6464 H         1 <0>         0.0579
     57 H28        -6.3468    5.4703    1.3062 H         1 <0>         0.0588
     58 H29        -5.3070    5.2448   -0.9534 H         1 <0>         0.0964
     59 H30        -6.6897    6.3608   -0.9726 H         1 <0>         0.0599
     60 H31        -6.0083    5.7754   -3.3393 H         1 <0>         0.0975
     61 H32        -6.8625    4.3980   -4.1103 H         1 <0>         0.0742
     62 N2         -2.2503    1.2472   -1.0152 N.4       1 <0>        -0.4855
     63 H33        -2.6332    1.5259   -0.1041 H         1 <0>         0.4411
     64 H34        -2.2572    0.2232   -1.0905 H         1 <0>         0.4327
     65 O5         -3.4090    5.7019   -3.2920 O.co2     1 <0>        -0.7244
@<TRIPOS>BOND
     1    1    2 1
     2    1   35 1
     3    1   36 1
     4    1   37 1
     5    2    3 1
     6    2   38 1
     7    2   39 1
     8    3    4 1
     9    4    5 2
    10    4    6 1
    11    6    7 1
    12    6    8 1
    13    6   62 1
    14    8    9 1
    15    8   40 1
    16    8   41 1
    17    9   10 1
    18    9   42 1
    19    9   43 1
    20   10   15 ar
    21   10   11 ar
    22   11   12 ar
    23   11   44 1
    24   12   13 ar
    25   12   45 1
    26   13   14 ar
    27   13   46 1
    28   14   15 ar
    29   14   47 1
    30   15   48 1
    31   16   17 1
    32   16   18 1
    33   16   19 1
    34   16   62 1
    35   18   49 1
    36   18   50 1
    37   18   51 1
    38   19   20 2
    39   19   21 am
    40   21   31 1
    41   21   22 1
    42   22   23 1
    43   22   28 1
    44   22   24 1
    45   24   25 1
    46   24   52 1
    47   24   53 1
    48   25   26 1
    49   25   54 1
    50   25   55 1
    51   26   27 1
    52   26   56 1
    53   26   57 1
    54   27   28 1
    55   27   58 1
    56   27   59 1
    57   28   29 1
    58   28   30 1
    59   30   31 1
    60   30   60 1
    61   30   61 1
    62   31   32 1
    63   31   33 1
    64   33   34 2
    65   33   65 1
    66   62   63 1
    67   62   64 1
@<TRIPOS>MOLECULE
ZINC03814194
   37    37     0     0     0
SMALL
USER_CHARGES

@<TRIPOS>ATOM
      1 C1         -4.2080    6.2661    0.3316 C.3       1 <0>        -0.1535
      2 C2         -2.9532    6.5641    1.1547 C.3       1 <0>        -0.0246
      3 H1         -3.0981    6.2156    2.1772 H         1 <0>         0.0877
      4 C3         -2.6979    8.0493    1.1615 C.ar      1 <0>        -0.0710
      5 C4         -2.4781    8.7183   -0.0280 C.ar      1 <0>        -0.1124
      6 C5         -2.2483   10.0814   -0.0221 C.ar      1 <0>        -0.1177
      7 C6         -2.2289   10.7739    1.1742 C.ar      1 <0>        -0.1285
      8 C7         -2.4440   10.1040    2.3641 C.ar      1 <0>        -0.1202
      9 C8         -2.6780    8.7417    2.3578 C.ar      1 <0>        -0.1181
     10 C9         -1.7540    5.8434    0.5354 C.3       1 <0>        -0.0837
     11 H2         -1.6090    6.1919   -0.4871 H         1 <0>         0.1053
     12 C10        -0.4992    6.1414    1.3585 C.3       1 <0>        -0.0703
     13 S1          0.9467    5.4098    0.5431 S.3       1 <0>        -0.2173
     14 C11        -2.0093    4.3582    0.5286 C.2       1 <0>         0.5071
     15 O1         -3.0480    3.9193    0.9750 O.2       1 <0>        -0.5527
     16 N1         -1.0832    3.5176    0.0263 N.am      1 <0>        -0.6810
     17 C12        -1.3313    2.0738    0.0196 C.3       1 <0>         0.0916
     18 H3         -1.8950    1.7979    0.9108 H         1 <0>         0.0862
     19 C13        -2.1344    1.7001   -1.2279 C.3       1 <0>        -0.1369
     20 C14        -0.0161    1.3381    0.0094 C.2       1 <0>         0.4609
     21 O2          1.0219    1.9564    0.0028 O.co2     1 <0>        -0.6211
     22 H4         -5.0623    6.7795    0.7728 H         1 <0>         0.0526
     23 H5         -4.0631    6.6145   -0.6910 H         1 <0>         0.0492
     24 H6         -4.3926    5.1918    0.3266 H         1 <0>         0.0936
     25 H7         -2.4892    8.1766   -0.9623 H         1 <0>         0.1233
     26 H8         -2.0806   10.6048   -0.9518 H         1 <0>         0.1203
     27 H9         -2.0460   11.8383    1.1791 H         1 <0>         0.1177
     28 H10        -2.4288   10.6450    3.2987 H         1 <0>         0.1188
     29 H11        -2.8457    8.2183    3.2875 H         1 <0>         0.1212
     30 H12        -0.3644    7.2201    1.4378 H         1 <0>         0.0929
     31 H13        -0.6087    5.7146    2.3555 H         1 <0>         0.0869
     32 H14         1.9735    5.7343    1.3489 H         1 <0>         0.0827
     33 H15        -0.2524    3.8686   -0.3308 H         1 <0>         0.4098
     34 H16        -2.3191    0.6258   -1.2328 H         1 <0>         0.0700
     35 H17        -3.0857    2.2322   -1.2205 H         1 <0>         0.0469
     36 H18        -1.5707    1.9760   -2.1190 H         1 <0>         0.0470
     37 O3          0.0021   -0.0041    0.0020 O.co2     1 <0>        -0.7625
@<TRIPOS>BOND
     1    1    2 1
     2    1   22 1
     3    1   23 1
     4    1   24 1
     5    2    3 1
     6    2    4 1
     7    2   10 1
     8    4    9 ar
     9    4    5 ar
    10    5    6 ar
    11    5   25 1
    12    6    7 ar
    13    6   26 1
    14    7    8 ar
    15    7   27 1
    16    8    9 ar
    17    8   28 1
    18    9   29 1
    19   10   11 1
    20   10   12 1
    21   10   14 1
    22   12   13 1
    23   12   30 1
    24   12   31 1
    25   13   32 1
    26   14   15 2
    27   14   16 am
    28   16   17 1
    29   16   33 1
    30   17   18 1
    31   17   19 1
    32   17   20 1
    33   19   34 1
    34   19   35 1
    35   19   36 1
    36   20   21 2
    37   20   37 1
@<TRIPOS>MOLECULE
ZINC03814195
   47    48     0     0     0
SMALL
USER_CHARGES

@<TRIPOS>ATOM
      1 C1          0.8140    5.3896    3.2370 C.3       1 <0>        -0.1549
      2 C2         -0.3909    6.1169    2.6370 C.3       1 <0>        -0.0308
      3 H1         -1.2793    5.8982    3.2295 H         1 <0>         0.0842
      4 C3         -0.1357    7.6021    2.6438 C.ar      1 <0>        -0.0494
      5 C4          0.9478    8.1204    1.9595 C.ar      1 <0>        -0.0991
      6 C5          1.1795    9.4832    1.9622 C.ar      1 <0>        -0.1150
      7 C6          0.3330   10.3268    2.6571 C.ar      1 <0>        -0.1256
      8 C7         -0.7477    9.8080    3.3454 C.ar      1 <0>        -0.1214
      9 C8         -0.9818    8.4456    3.3391 C.ar      1 <0>        -0.0896
     10 C9         -0.6080    5.6434    1.1984 C.3       1 <0>        -0.0830
     11 H2          0.2804    5.8621    0.6059 H         1 <0>         0.1078
     12 C10        -1.8130    6.3707    0.5984 C.3       1 <0>        -0.0656
     13 S1         -1.4473    8.1428    0.4703 S.3       1 <0>        -0.1952
     14 C11        -0.8633    4.1582    1.1915 C.2       1 <0>         0.5283
     15 O1         -0.8708    3.5393    2.2346 O.2       1 <0>        -0.5315
     16 N1         -1.0832    3.5176    0.0263 N.am      1 <0>        -0.6959
     17 C12        -1.3313    2.0738    0.0196 C.3       1 <0>         0.1109
     18 H3         -1.8950    1.7979    0.9108 H         1 <0>         0.0904
     19 C13        -2.1344    1.7001   -1.2279 C.3       1 <0>        -0.0772
     20 C14        -3.4977    2.3385   -1.1576 C.ar      1 <0>        -0.0634
     21 C15        -4.5485    1.6614   -0.5674 C.ar      1 <0>        -0.1145
     22 C16        -5.7978    2.2491   -0.4986 C.ar      1 <0>        -0.1174
     23 C17        -5.9989    3.5096   -1.0293 C.ar      1 <0>        -0.1339
     24 C18        -4.9493    4.1845   -1.6242 C.ar      1 <0>        -0.1219
     25 C19        -3.6988    3.5990   -1.6883 C.ar      1 <0>        -0.1194
     26 C20        -0.0161    1.3381    0.0094 C.2       1 <0>         0.4591
     27 O2          1.0219    1.9564    0.0028 O.co2     1 <0>        -0.6252
     28 H4          0.9687    5.7269    4.2618 H         1 <0>         0.0513
     29 H5          0.6294    4.3153    3.2320 H         1 <0>         0.0922
     30 H6          1.7024    5.6083    2.6445 H         1 <0>         0.0506
     31 H7          1.6115    7.4609    1.4200 H         1 <0>         0.1180
     32 H8          2.0236    9.8885    1.4242 H         1 <0>         0.1141
     33 H9          0.5160   11.3911    2.6620 H         1 <0>         0.1106
     34 H10        -1.4090   10.4671    3.8883 H         1 <0>         0.1117
     35 H11        -1.8260    8.0403    3.8771 H         1 <0>         0.1140
     36 H12        -2.0221    5.9702   -0.3935 H         1 <0>         0.0844
     37 H13        -2.6820    6.2245    1.2399 H         1 <0>         0.0870
     38 H14        -2.5648    8.6680   -0.0629 H         1 <0>         0.0328
     39 H15        -1.0772    4.0125   -0.8079 H         1 <0>         0.3890
     40 H16        -1.6122    2.0554   -2.1162 H         1 <0>         0.0720
     41 H17        -2.2428    0.6167   -1.2791 H         1 <0>         0.0984
     42 H18        -4.3924    0.6748   -0.1568 H         1 <0>         0.1246
     43 H19        -6.6178    1.7216   -0.0342 H         1 <0>         0.1183
     44 H20        -6.9760    3.9669   -0.9796 H         1 <0>         0.1150
     45 H21        -5.1065    5.1692   -2.0391 H         1 <0>         0.1144
     46 H22        -2.8789    4.1262   -2.1533 H         1 <0>         0.1158
     47 O3          0.0021   -0.0041    0.0020 O.co2     1 <0>        -0.7649
@<TRIPOS>BOND
     1    1    2 1
     2    1   28 1
     3    1   29 1
     4    1   30 1
     5    2    3 1
     6    2    4 1
     7    2   10 1
     8    4    9 ar
     9    4    5 ar
    10    5    6 ar
    11    5   31 1
    12    6    7 ar
    13    6   32 1
    14    7    8 ar
    15    7   33 1
    16    8    9 ar
    17    8   34 1
    18    9   35 1
    19   10   11 1
    20   10   12 1
    21   10   14 1
    22   12   13 1
    23   12   36 1
    24   12   37 1
    25   13   38 1
    26   14   15 2
    27   14   16 am
    28   16   17 1
    29   16   39 1
    30   17   18 1
    31   17   19 1
    32   17   26 1
    33   19   20 1
    34   19   40 1
    35   19   41 1
    36   20   25 ar
    37   20   21 ar
    38   21   22 ar
    39   21   42 1
    40   22   23 ar
    41   22   43 1
    42   23   24 ar
    43   23   44 1
    44   24   25 ar
    45   24   45 1
    46   25   46 1
    47   26   27 2
    48   26   47 1
@<TRIPOS>MOLECULE
ZINC03814196
   47    48     0     0     0
SMALL
USER_CHARGES

@<TRIPOS>ATOM
      1 C1          0.0460    1.2886    0.1269 C.3       1 <0>        -0.1507
      2 C2         -0.7791    1.7133    1.3433 C.3       1 <0>        -0.0299
      3 H1         -0.8200    2.8014    1.3926 H         1 <0>         0.0827
      4 C3         -0.1378    1.1774    2.5973 C.ar      1 <0>        -0.0620
      5 C4          0.0187   -0.1858    2.7653 C.ar      1 <0>        -0.1137
      6 C5          0.6110   -0.6772    3.9136 C.ar      1 <0>        -0.1202
      7 C6          1.0384    0.1941    4.8980 C.ar      1 <0>        -0.1251
      8 C7          0.8771    1.5570    4.7324 C.ar      1 <0>        -0.1236
      9 C8          0.2888    2.0486    3.5821 C.ar      1 <0>        -0.0842
     10 C9         -2.1980    1.1548    1.2173 C.3       1 <0>        -0.0845
     11 H2         -2.1598    0.0655    1.2045 H         1 <0>         0.1087
     12 C10        -2.8308    1.6582   -0.0816 C.3       1 <0>        -0.0587
     13 S1         -2.1510    0.7307   -1.4845 S.3       1 <0>        -0.2264
     14 C11        -3.0249    1.6147    2.3902 C.2       1 <0>         0.5265
     15 O1         -2.5283    2.3198    3.2429 O.2       1 <0>        -0.5245
     16 N1         -4.3162    1.2425    2.4915 N.am      1 <0>        -0.6986
     17 C12        -5.1201    1.6897    3.6317 C.3       1 <0>         0.1130
     18 H3         -4.8167    2.6968    3.9175 H         1 <0>         0.0887
     19 C13        -6.5997    1.6940    3.2422 C.3       1 <0>        -0.0776
     20 C14        -6.8322    2.7204    2.1636 C.ar      1 <0>        -0.0621
     21 C15        -7.1620    4.0188    2.5045 C.ar      1 <0>        -0.1145
     22 C16        -7.3705    4.9614    1.5152 C.ar      1 <0>        -0.1174
     23 C17        -7.2595    4.6032    0.1847 C.ar      1 <0>        -0.1343
     24 C18        -6.9348    3.3035   -0.1564 C.ar      1 <0>        -0.1223
     25 C19        -6.7212    2.3621    0.8331 C.ar      1 <0>        -0.1200
     26 C20        -4.9092    0.7529    4.7932 C.2       1 <0>         0.4586
     27 O2         -4.1638   -0.1913    4.6802 O.co2     1 <0>        -0.6223
     28 H4         -0.0578    0.2143   -0.0255 H         1 <0>         0.0615
     29 H5          1.0949    1.5318    0.2965 H         1 <0>         0.0546
     30 H6         -0.3112    1.8171   -0.7570 H         1 <0>         0.0808
     31 H7         -0.3186   -0.8667    1.9978 H         1 <0>         0.1148
     32 H8          0.7373   -1.7419    4.0429 H         1 <0>         0.1152
     33 H9          1.4986   -0.1899    5.7964 H         1 <0>         0.1138
     34 H10         1.2110    2.2377    5.5015 H         1 <0>         0.1144
     35 H11         0.1627    3.1134    3.4527 H         1 <0>         0.1157
     36 H12        -3.9104    1.5140   -0.0395 H         1 <0>         0.0884
     37 H13        -2.6104    2.7185   -0.2060 H         1 <0>         0.0907
     38 H14        -2.7745    1.2557   -2.5544 H         1 <0>         0.0670
     39 H15        -4.7134    0.6786    1.8095 H         1 <0>         0.3877
     40 H16        -6.8809    0.7080    2.8722 H         1 <0>         0.0716
     41 H17        -7.2044    1.9406    4.1149 H         1 <0>         0.0977
     42 H18        -7.2531    4.2976    3.5439 H         1 <0>         0.1242
     43 H19        -7.6245    5.9768    1.7816 H         1 <0>         0.1182
     44 H20        -7.4268    5.3386   -0.5884 H         1 <0>         0.1150
     45 H21        -6.8485    3.0235   -1.1959 H         1 <0>         0.1144
     46 H22        -6.4679    1.3466    0.5666 H         1 <0>         0.1161
     47 O3         -5.5493    0.9675    5.9534 O.co2     1 <0>        -0.7674
@<TRIPOS>BOND
     1    1    2 1
     2    1   28 1
     3    1   29 1
     4    1   30 1
     5    2    3 1
     6    2    4 1
     7    2   10 1
     8    4    9 ar
     9    4    5 ar
    10    5    6 ar
    11    5   31 1
    12    6    7 ar
    13    6   32 1
    14    7    8 ar
    15    7   33 1
    16    8    9 ar
    17    8   34 1
    18    9   35 1
    19   10   11 1
    20   10   12 1
    21   10   14 1
    22   12   13 1
    23   12   36 1
    24   12   37 1
    25   13   38 1
    26   14   15 2
    27   14   16 am
    28   16   17 1
    29   16   39 1
    30   17   18 1
    31   17   19 1
    32   17   26 1
    33   19   20 1
    34   19   40 1
    35   19   41 1
    36   20   25 ar
    37   20   21 ar
    38   21   22 ar
    39   21   42 1
    40   22   23 ar
    41   22   43 1
    42   23   24 ar
    43   23   44 1
    44   24   25 ar
    45   24   45 1
    46   25   46 1
    47   26   27 2
    48   26   47 1
@<TRIPOS>MOLECULE
ZINC03814197
   37    37     0     0     0
SMALL
USER_CHARGES

@<TRIPOS>ATOM
      1 C1          0.8259   -0.2630   -1.2871 C.3       1 <0>        -0.1569
      2 C2          0.0399    0.1092   -0.0283 C.3       1 <0>        -0.0303
      3 H1          0.6332   -0.1295    0.8544 H         1 <0>         0.0842
      4 C3         -1.2496   -0.6700    0.0075 C.ar      1 <0>        -0.0583
      5 C4         -2.1725   -0.5261   -1.0115 C.ar      1 <0>        -0.1198
      6 C5         -3.3534   -1.2441   -0.9810 C.ar      1 <0>        -0.1239
      7 C6         -3.6156   -2.0987    0.0735 C.ar      1 <0>        -0.1284
      8 C7         -2.6948   -2.2389    1.0949 C.ar      1 <0>        -0.1241
      9 C8         -1.5120   -1.5242    1.0622 C.ar      1 <0>        -0.0822
     10 C9         -0.2698    1.6074   -0.0447 C.3       1 <0>        -0.0861
     11 H2         -0.8471    1.8493   -0.9371 H         1 <0>         0.1087
     12 C10         1.0396    2.3988   -0.0543 C.3       1 <0>        -0.0623
     13 S1          1.8656    2.1816   -1.6547 S.3       1 <0>        -0.2199
     14 C11        -1.0664    1.9692    1.1823 C.2       1 <0>         0.5148
     15 O1         -1.3578    1.1130    1.9904 O.2       1 <0>        -0.5344
     16 N1         -1.4551    3.2442    1.3816 N.am      1 <0>        -0.6997
     17 C12        -2.2295    3.5959    2.5745 C.3       1 <0>         0.0964
     18 H3         -2.8983    2.7737    2.8290 H         1 <0>         0.0887
     19 C13        -1.2764    3.8583    3.7422 C.3       1 <0>        -0.1361
     20 C14        -3.0403    4.8361    2.2994 C.2       1 <0>         0.4627
     21 O2         -2.9777    5.3713    1.2179 O.co2     1 <0>        -0.6356
     22 H4          0.8206   -1.3458   -1.4118 H         1 <0>         0.0562
     23 H5          0.3633    0.2051   -2.1559 H         1 <0>         0.0617
     24 H6          1.8538    0.0866   -1.1902 H         1 <0>         0.0907
     25 H7         -1.9695    0.1446   -1.8333 H         1 <0>         0.1165
     26 H8         -4.0726   -1.1349   -1.7792 H         1 <0>         0.1159
     27 H9         -4.5397   -2.6571    0.0991 H         1 <0>         0.1143
     28 H10        -2.8996   -2.9066    1.9188 H         1 <0>         0.1152
     29 H11        -0.7927   -1.6335    1.8604 H         1 <0>         0.1171
     30 H12         0.8264    3.4559    0.1040 H         1 <0>         0.0923
     31 H13         1.6893    2.0359    0.7421 H         1 <0>         0.0917
     32 H14         2.9883    2.9139   -1.5434 H         1 <0>         0.0599
     33 H15        -1.2221    3.9290    0.7354 H         1 <0>         0.4025
     34 H16        -1.8526    4.1200    4.6297 H         1 <0>         0.0706
     35 H17        -0.6900    2.9613    3.9412 H         1 <0>         0.0475
     36 H18        -0.6077    4.6806    3.4877 H         1 <0>         0.0461
     37 O3         -3.8320    5.3462    3.2558 O.co2     1 <0>        -0.7556
@<TRIPOS>BOND
     1    1    2 1
     2    1   22 1
     3    1   23 1
     4    1   24 1
     5    2    3 1
     6    2    4 1
     7    2   10 1
     8    4    9 ar
     9    4    5 ar
    10    5    6 ar
    11    5   25 1
    12    6    7 ar
    13    6   26 1
    14    7    8 ar
    15    7   27 1
    16    8    9 ar
    17    8   28 1
    18    9   29 1
    19   10   11 1
    20   10   12 1
    21   10   14 1
    22   12   13 1
    23   12   30 1
    24   12   31 1
    25   13   32 1
    26   14   15 2
    27   14   16 am
    28   16   17 1
    29   16   33 1
    30   17   18 1
    31   17   19 1
    32   17   20 1
    33   19   34 1
    34   19   35 1
    35   19   36 1
    36   20   21 2
    37   20   37 1
@<TRIPOS>MOLECULE
ZINC03814198
   47    48     0     0     0
SMALL
USER_CHARGES

@<TRIPOS>ATOM
      1 C1          1.8530    4.1185   -1.2433 C.3       1 <0>        -0.1466
      2 C2          1.1505    3.5924    0.0099 C.3       1 <0>        -0.0288
      3 H1          0.1181    3.9417    0.0214 H         1 <0>         0.0888
      4 C3          1.1709    2.0855    0.0021 C.ar      1 <0>        -0.0561
      5 C4         -0.0167    1.3781    0.0096 C.ar      1 <0>        -0.0783
      6 C5          0.0021   -0.0041    0.0020 C.ar      1 <0>        -0.1226
      7 C6          1.2084   -0.6789   -0.0136 C.ar      1 <0>        -0.1277
      8 C7          2.3961    0.0285   -0.0212 C.ar      1 <0>        -0.1248
      9 C8          2.3773    1.4107   -0.0136 C.ar      1 <0>        -0.1202
     10 C9          1.8764    4.1058    1.2550 C.3       1 <0>        -0.0833
     11 H2          2.9089    3.7565    1.2436 H         1 <0>         0.1013
     12 C10         1.8557    5.6356    1.2630 C.3       1 <0>        -0.0601
     13 S1          2.8415    6.2465    2.6579 S.3       1 <0>        -0.2465
     14 C11         1.1845    3.5876    2.4894 C.2       1 <0>         0.5163
     15 O1          0.2070    2.8775    2.3837 O.2       1 <0>        -0.5351
     16 N1          1.6519    3.9132    3.7109 N.am      1 <0>        -0.6820
     17 C12         0.9793    3.4095    4.9108 C.3       1 <0>         0.1117
     18 H3          0.5989    2.4060    4.7199 H         1 <0>         0.0858
     19 C13         1.9739    3.3654    6.0726 C.3       1 <0>        -0.0774
     20 C14         3.0553    2.3604    5.7702 C.ar      1 <0>        -0.0633
     21 C15         2.9035    1.0431    6.1608 C.ar      1 <0>        -0.1158
     22 C16         3.8933    0.1202    5.8791 C.ar      1 <0>        -0.1193
     23 C17         5.0397    0.5167    5.2161 C.ar      1 <0>        -0.1346
     24 C18         5.1938    1.8351    4.8301 C.ar      1 <0>        -0.1201
     25 C19         4.2017    2.7570    5.1071 C.ar      1 <0>        -0.1163
     26 C20        -0.1666    4.3220    5.2649 C.2       1 <0>         0.4609
     27 O2         -0.3976    5.2935    4.5847 O.co2     1 <0>        -0.6226
     28 H4          1.3359    3.7527   -2.1303 H         1 <0>         0.0608
     29 H5          1.8382    5.2083   -1.2376 H         1 <0>         0.0597
     30 H6          2.8855    3.7692   -1.2548 H         1 <0>         0.0594
     31 H7         -0.9592    1.9054    0.0170 H         1 <0>         0.1192
     32 H8         -0.9258   -0.5567    0.0079 H         1 <0>         0.1161
     33 H9          1.2231   -1.7588   -0.0196 H         1 <0>         0.1138
     34 H10         3.3386   -0.4987   -0.0327 H         1 <0>         0.1146
     35 H11         3.3052    1.9634   -0.0192 H         1 <0>         0.1151
     36 H12         2.2763    6.0096    0.3295 H         1 <0>         0.0956
     37 H13         0.8280    5.9845    1.3640 H         1 <0>         0.0950
     38 H14         2.7488    7.5847    2.5605 H         1 <0>         0.0894
     39 H15         2.4338    4.4811    3.7954 H         1 <0>         0.3944
     40 H16         2.4206    4.3507    6.2060 H         1 <0>         0.0716
     41 H17         1.4537    3.0757    6.9855 H         1 <0>         0.0956
     42 H18         2.0099    0.7342    6.6827 H         1 <0>         0.1224
     43 H19         3.7731   -0.9098    6.1810 H         1 <0>         0.1163
     44 H20         5.8150   -0.2034    4.9999 H         1 <0>         0.1142
     45 H21         6.0896    2.1450    4.3124 H         1 <0>         0.1164
     46 H22         4.3223    3.7871    4.8059 H         1 <0>         0.1182
     47 O3         -0.9305    4.0556    6.3359 O.co2     1 <0>        -0.7710
@<TRIPOS>BOND
     1    1    2 1
     2    1   28 1
     3    1   29 1
     4    1   30 1
     5    2    3 1
     6    2    4 1
     7    2   10 1
     8    4    9 ar
     9    4    5 ar
    10    5    6 ar
    11    5   31 1
    12    6    7 ar
    13    6   32 1
    14    7    8 ar
    15    7   33 1
    16    8    9 ar
    17    8   34 1
    18    9   35 1
    19   10   11 1
    20   10   12 1
    21   10   14 1
    22   12   13 1
    23   12   36 1
    24   12   37 1
    25   13   38 1
    26   14   15 2
    27   14   16 am
    28   16   17 1
    29   16   39 1
    30   17   18 1
    31   17   19 1
    32   17   26 1
    33   19   20 1
    34   19   40 1
    35   19   41 1
    36   20   25 ar
    37   20   21 ar
    38   21   22 ar
    39   21   42 1
    40   22   23 ar
    41   22   43 1
    42   23   24 ar
    43   23   44 1
    44   24   25 ar
    45   24   45 1
    46   25   46 1
    47   26   27 2
    48   26   47 1
@<TRIPOS>MOLECULE
ZINC03814199
   55    56     0     0     0
SMALL
USER_CHARGES

@<TRIPOS>ATOM
      1 C1          2.1116   -0.2461    4.9263 C.3       1 <0>        -0.1577
      2 C2          0.8742   -0.9308    4.3423 C.3       1 <0>         0.0633
      3 O1          1.0086   -1.0246    2.8995 O.3       1 <0>        -0.3337
      4 C3         -0.0000   -1.6043    2.2300 C.2       1 <0>         0.4604
      5 O2         -0.9632   -2.0197    2.8295 O.2       1 <0>        -0.4822
      6 C4          0.0690   -1.7371    0.7304 C.3       1 <0>         0.0384
      7 H1          0.9416   -2.3308    0.4580 H         1 <0>         0.1784
      8 C5          0.1807   -0.3475    0.1000 C.3       1 <0>        -0.1357
      9 C6          0.3760   -0.4872   -1.4111 C.3       1 <0>        -0.0932
     10 C7          0.4859    0.8815   -2.0320 C.ar      1 <0>        -0.0948
     11 C8         -0.6497    1.5316   -2.4777 C.ar      1 <0>        -0.1125
     12 C9         -0.5493    2.7889   -3.0432 C.ar      1 <0>        -0.1151
     13 C10         0.6877    3.3923   -3.1716 C.ar      1 <0>        -0.1137
     14 C11         1.8240    2.7400   -2.7307 C.ar      1 <0>        -0.1172
     15 C12         1.7231    1.4845   -2.1612 C.ar      1 <0>        -0.1109
     16 C13        -1.0147   -3.8618    0.3135 C.3       1 <0>         0.0095
     17 H2          0.0166   -4.1442    0.1022 H         1 <0>         0.1532
     18 C14        -1.3973   -4.3397    1.7157 C.3       1 <0>        -0.1673
     19 C15        -1.9282   -4.4997   -0.7013 C.2       1 <0>         0.5203
     20 O3         -2.9317   -3.9218   -1.0617 O.2       1 <0>        -0.5150
     21 N1         -1.6300   -5.7123   -1.2082 N.am      1 <0>        -0.5696
     22 C16        -0.5070   -6.5683   -0.7844 C.3       1 <0>         0.0849
     23 C17        -0.9392   -8.0065   -1.1644 C.3       1 <0>        -0.1340
     24 C18        -1.6849   -7.7642   -2.5033 C.3       1 <0>        -0.1071
     25 C19        -2.3745   -6.4034   -2.2711 C.3       1 <0>         0.0889
     26 H3         -3.4077   -6.5577   -1.9598 H         1 <0>         0.0857
     27 C20        -2.3342   -5.5886   -3.5381 C.2       1 <0>         0.4653
     28 O4         -1.7444   -4.5342   -3.5598 O.co2     1 <0>        -0.6327
     29 H4          2.0107   -0.1757    6.0093 H         1 <0>         0.0898
     30 H5          2.9992   -0.8292    4.6812 H         1 <0>         0.0717
     31 H6          2.2062    0.7545    4.5044 H         1 <0>         0.0717
     32 H7         -0.0134   -0.3477    4.5874 H         1 <0>         0.0812
     33 H8          0.7796   -1.9314    4.7641 H         1 <0>         0.0809
     34 H9          1.0331    0.1789    0.5294 H         1 <0>         0.1290
     35 H10        -0.7314    0.2156    0.2979 H         1 <0>         0.0994
     36 H11        -0.4765   -1.0136   -1.8405 H         1 <0>         0.0782
     37 H12         1.2880   -1.0503   -1.6090 H         1 <0>         0.0954
     38 H13        -1.6158    1.0585   -2.3809 H         1 <0>         0.1234
     39 H14        -1.4371    3.2987   -3.3874 H         1 <0>         0.1258
     40 H15         0.7665    4.3735   -3.6159 H         1 <0>         0.1247
     41 H16         2.7905    3.2115   -2.8310 H         1 <0>         0.1252
     42 H17         2.6108    0.9749   -1.8167 H         1 <0>         0.1240
     43 H18        -2.3781   -3.9440    1.9794 H         1 <0>         0.0936
     44 H19        -1.4285   -5.4291    1.7324 H         1 <0>         0.1032
     45 H20        -0.6578   -3.9863    2.4343 H         1 <0>         0.0909
     46 H21         0.4027   -6.2922   -1.3176 H         1 <0>         0.0774
     47 H22        -0.3541   -6.4882    0.2919 H         1 <0>         0.0746
     48 H23        -0.0713   -8.6493   -1.3113 H         1 <0>         0.0886
     49 H24        -1.6101   -8.4241   -0.4136 H         1 <0>         0.0782
     50 H25        -0.9797   -7.7067   -3.3325 H         1 <0>         0.0808
     51 H26        -2.4234   -8.5461   -2.6804 H         1 <0>         0.0882
     52 N2         -1.1556   -2.3955    0.2375 N.4       1 <0>        -0.4954
     53 H27        -1.3183   -2.1210   -0.7384 H         1 <0>         0.4490
     54 H28        -1.9533   -2.1016    0.8132 H         1 <0>         0.4415
     55 O5         -2.9535   -6.0340   -4.6426 O.co2     1 <0>        -0.7469
@<TRIPOS>BOND
     1    1    2 1
     2    1   29 1
     3    1   30 1
     4    1   31 1
     5    2    3 1
     6    2   32 1
     7    2   33 1
     8    3    4 1
     9    4    5 2
    10    4    6 1
    11    6    7 1
    12    6    8 1
    13    6   52 1
    14    8    9 1
    15    8   34 1
    16    8   35 1
    17    9   10 1
    18    9   36 1
    19    9   37 1
    20   10   15 ar
    21   10   11 ar
    22   11   12 ar
    23   11   38 1
    24   12   13 ar
    25   12   39 1
    26   13   14 ar
    27   13   40 1
    28   14   15 ar
    29   14   41 1
    30   15   42 1
    31   16   17 1
    32   16   18 1
    33   16   19 1
    34   16   52 1
    35   18   43 1
    36   18   44 1
    37   18   45 1
    38   19   20 2
    39   19   21 am
    40   21   25 1
    41   21   22 1
    42   22   23 1
    43   22   46 1
    44   22   47 1
    45   23   24 1
    46   23   48 1
    47   23   49 1
    48   24   25 1
    49   24   50 1
    50   24   51 1
    51   25   26 1
    52   25   27 1
    53   27   28 2
    54   27   55 1
    55   52   53 1
    56   52   54 1
@<TRIPOS>MOLECULE
ZINC03814200
   37    37     0     0     0
SMALL
USER_CHARGES

@<TRIPOS>ATOM
      1 C1          5.9742    7.0333    1.0858 C.3       1 <0>        -0.1476
      2 C2          4.5130    6.5796    1.0973 C.3       1 <0>        -0.0270
      3 H1          4.1493    6.5519    2.1244 H         1 <0>         0.0873
      4 C3          3.6805    7.5465    0.2954 C.ar      1 <0>        -0.0573
      5 C4          3.9598    7.7549   -1.0423 C.ar      1 <0>        -0.1211
      6 C5          3.1933    8.6385   -1.7789 C.ar      1 <0>        -0.1244
      7 C6          2.1532    9.3206   -1.1755 C.ar      1 <0>        -0.1275
      8 C7          1.8773    9.1161    0.1635 C.ar      1 <0>        -0.1230
      9 C8          2.6410    8.2292    0.8990 C.ar      1 <0>        -0.0798
     10 C9          4.4078    5.1831    0.4811 C.3       1 <0>        -0.0855
     11 H2          4.7716    5.2108   -0.5460 H         1 <0>         0.1046
     12 C10         5.2531    4.2014    1.2952 C.3       1 <0>        -0.0747
     13 S1          5.2477    2.5799    0.4820 S.3       1 <0>        -0.2157
     14 C11         2.9686    4.7362    0.4925 C.2       1 <0>         0.5050
     15 O1          2.1115    5.4630    0.9485 O.2       1 <0>        -0.5462
     16 N1          2.6340    3.5287   -0.0041 N.am      1 <0>        -0.6838
     17 C12         1.2350    3.0943    0.0069 C.3       1 <0>         0.0944
     18 H3          0.7441    3.4725    0.9036 H         1 <0>         0.0846
     19 C13         0.5222    3.6385   -1.2327 C.3       1 <0>        -0.1361
     20 C14         1.1765    1.5884   -0.0006 C.2       1 <0>         0.4609
     21 O2          2.1986    0.9442   -0.0139 O.co2     1 <0>        -0.6219
     22 H4          6.3379    7.0610    0.0586 H         1 <0>         0.0604
     23 H5          6.0491    8.0282    1.5247 H         1 <0>         0.0608
     24 H6          6.5764    6.3340    1.6657 H         1 <0>         0.0600
     25 H7          4.7747    7.2248   -1.5127 H         1 <0>         0.1165
     26 H8          3.4087    8.7980   -2.8251 H         1 <0>         0.1160
     27 H9          1.5561   10.0129   -1.7504 H         1 <0>         0.1147
     28 H10         1.0647    9.6490    0.6348 H         1 <0>         0.1161
     29 H11         2.4254    8.0694    1.9451 H         1 <0>         0.1185
     30 H12         6.2763    4.5712    1.3615 H         1 <0>         0.0958
     31 H13         4.8353    4.1066    2.2975 H         1 <0>         0.0880
     32 H14         6.0129    1.8134    1.2795 H         1 <0>         0.0819
     33 H15         3.3195    2.9474   -0.3688 H         1 <0>         0.4083
     34 H16        -0.5188    3.3153   -1.2245 H         1 <0>         0.0686
     35 H17         0.5644    4.7277   -1.2273 H         1 <0>         0.0464
     36 H18         1.0130    3.2604   -2.1295 H         1 <0>         0.0458
     37 O3         -0.0110    0.9628    0.0073 O.co2     1 <0>        -0.7633
@<TRIPOS>BOND
     1    1    2 1
     2    1   22 1
     3    1   23 1
     4    1   24 1
     5    2    3 1
     6    2    4 1
     7    2   10 1
     8    4    9 ar
     9    4    5 ar
    10    5    6 ar
    11    5   25 1
    12    6    7 ar
    13    6   26 1
    14    7    8 ar
    15    7   27 1
    16    8    9 ar
    17    8   28 1
    18    9   29 1
    19   10   11 1
    20   10   12 1
    21   10   14 1
    22   12   13 1
    23   12   30 1
    24   12   31 1
    25   13   32 1
    26   14   15 2
    27   14   16 am
    28   16   17 1
    29   16   33 1
    30   17   18 1
    31   17   19 1
    32   17   20 1
    33   19   34 1
    34   19   35 1
    35   19   36 1
    36   20   21 2
    37   20   37 1
