@<TRIPOS>MOLECULE
ZINC00001341
   28    28     0     0     0
SMALL
USER_CHARGES

@<TRIPOS>ATOM
      1 C1          5.7182    3.6414   -3.4945 C.3       1 <0>        -0.1889
      2 C2          5.0345    3.3129   -2.1658 C.3       1 <0>        -0.0144
      3 N1          3.7210    2.7092   -2.4270 N.4       1 <0>        -0.2084
      4 C3          3.8951    1.4761   -3.2062 C.3       1 <0>        -0.0499
      5 C4          2.8899    3.6541   -3.1849 C.3       1 <0>        -0.0504
      6 C5          3.0963    2.4090   -1.2129 C.ar      1 <0>        -0.0241
      7 C6          3.7343    2.6922   -0.0191 C.ar      1 <0>        -0.1106
      8 C7          3.1190    2.3970    1.1831 C.ar      1 <0>        -0.0761
      9 C8          1.8626    1.8224    1.1947 C.ar      1 <0>        -0.1031
     10 C9          1.2228    1.5324   -0.0014 C.ar      1 <0>         0.1399
     11 C10         1.8423    1.8301   -1.2067 C.ar      1 <0>        -0.1269
     12 O1         -0.0110    0.9628    0.0073 O.3       1 <0>        -0.4871
     13 H1          6.6928    4.0893   -3.3007 H         1 <0>         0.1080
     14 H2          5.8473    2.7265   -4.0727 H         1 <0>         0.0827
     15 H3          5.1015    4.3425   -4.0568 H         1 <0>         0.0828
     16 H4          4.9054    4.2278   -1.5876 H         1 <0>         0.1314
     17 H5          5.6512    2.6118   -1.6034 H         1 <0>         0.1314
     18 H6          2.9205    1.0282   -3.4000 H         1 <0>         0.1209
     19 H7          4.3821    1.7102   -4.1528 H         1 <0>         0.1291
     20 H8          4.5118    0.7750   -2.6439 H         1 <0>         0.1232
     21 H9          2.7607    4.5691   -2.6067 H         1 <0>         0.1235
     22 H10         3.3769    3.8882   -4.1315 H         1 <0>         0.1292
     23 H11         1.9152    3.2062   -3.3787 H         1 <0>         0.1215
     24 H12         4.7147    3.1452   -0.0261 H         1 <0>         0.1520
     25 H13         3.6192    2.6195    2.1141 H         1 <0>         0.1546
     26 H14         1.3806    1.5957    2.1343 H         1 <0>         0.1528
     27 H15         1.3444    1.6091   -2.1393 H         1 <0>         0.1489
     28 H16         0.0021   -0.0041    0.0020 H         1 <0>         0.4079
@<TRIPOS>BOND
     1    1    2 1
     2    1   13 1
     3    1   14 1
     4    1   15 1
     5    2    3 1
     6    2   16 1
     7    2   17 1
     8    3    4 1
     9    3    5 1
    10    3    6 1
    11    4   18 1
    12    4   19 1
    13    4   20 1
    14    5   21 1
    15    5   22 1
    16    5   23 1
    17    6   11 ar
    18    6    7 ar
    19    7    8 ar
    20    7   24 1
    21    8    9 ar
    22    8   25 1
    23    9   10 ar
    24    9   26 1
    25   10   11 ar
    26   10   12 1
    27   11   27 1
    28   12   28 1
@<TRIPOS>MOLECULE
ZINC00001792
   35    35     0     0     0
SMALL
USER_CHARGES

@<TRIPOS>ATOM
      1 C1         -4.0300   -1.3063    2.3058 C.3       1 <0>         0.0943
      2 N1         -3.7451   -0.4856    1.1262 N.am      1 <0>        -0.5901
      3 C2         -4.6461   -0.5244   -0.0283 C.3       1 <0>         0.0742
      4 C3         -2.6540    0.3053    1.1030 C.2       1 <0>         0.6443
      5 O1         -1.9065    0.3375    2.0606 O.2       1 <0>        -0.5500
      6 O2         -2.3920    1.0598    0.0186 O.3       1 <0>        -0.3005
      7 C4         -1.2140    1.7380    0.0087 C.ar      1 <0>         0.1374
      8 C5         -0.0165    1.0490   -0.1185 C.ar      1 <0>        -0.0780
      9 C6          1.1788    1.7409   -0.1345 C.ar      1 <0>        -0.0757
     10 C7          1.1829    3.1190   -0.0188 C.ar      1 <0>        -0.0964
     11 C8         -0.0085    3.8073    0.1138 C.ar      1 <0>        -0.0289
     12 C9         -1.2069    3.1197    0.1304 C.ar      1 <0>        -0.0964
     13 N2         -0.0010    5.2004    0.2307 N.4       1 <0>        -0.2094
     14 C10         1.3839    5.6882    0.1850 C.3       1 <0>        -0.0508
     15 C11        -0.7642    5.7889   -0.8780 C.3       1 <0>        -0.0464
     16 C12        -0.6149    5.5880    1.5078 C.3       1 <0>        -0.0463
     17 H1         -4.6499   -0.7403    3.0011 H         1 <0>         0.0670
     18 H2         -4.5581   -2.2098    2.0008 H         1 <0>         0.0875
     19 H3         -3.0940   -1.5795    2.7930 H         1 <0>         0.0847
     20 H4         -4.3204   -1.3036   -0.7174 H         1 <0>         0.0673
     21 H5         -5.6602   -0.7387    0.3093 H         1 <0>         0.0849
     22 H6         -4.6283    0.4401   -0.5358 H         1 <0>         0.0786
     23 H7         -0.0192   -0.0272   -0.2093 H         1 <0>         0.1502
     24 H8          2.1110    1.2054   -0.2380 H         1 <0>         0.1589
     25 H9          2.1185    3.6583   -0.0323 H         1 <0>         0.1573
     26 H10        -2.1375    3.6579    0.2337 H         1 <0>         0.1514
     27 H11         1.8393    5.4006   -0.7626 H         1 <0>         0.1265
     28 H12         1.3897    6.7744    0.2762 H         1 <0>         0.1305
     29 H13         1.9501    5.2515    1.0077 H         1 <0>         0.1264
     30 H14        -1.7918    5.4270   -0.8442 H         1 <0>         0.1206
     31 H15        -0.7584    6.8751   -0.7869 H         1 <0>         0.1286
     32 H16        -0.3088    5.5013   -1.8256 H         1 <0>         0.1245
     33 H17        -0.0486    5.1513    2.3304 H         1 <0>         0.1247
     34 H18        -0.6090    6.6742    1.5989 H         1 <0>         0.1288
     35 H19        -1.6425    5.2261    1.5416 H         1 <0>         0.1202
@<TRIPOS>BOND
     1    1    2 1
     2    1   17 1
     3    1   18 1
     4    1   19 1
     5    2    3 1
     6    2    4 am
     7    3   20 1
     8    3   21 1
     9    3   22 1
    10    4    5 2
    11    4    6 1
    12    6    7 1
    13    7   12 ar
    14    7    8 ar
    15    8    9 ar
    16    8   23 1
    17    9   10 ar
    18    9   24 1
    19   10   11 ar
    20   10   25 1
    21   11   12 ar
    22   11   13 1
    23   12   26 1
    24   13   14 1
    25   13   15 1
    26   13   16 1
    27   14   27 1
    28   14   28 1
    29   14   29 1
    30   15   30 1
    31   15   31 1
    32   15   32 1
    33   16   33 1
    34   16   34 1
    35   16   35 1
@<TRIPOS>MOLECULE
ZINC01530756
   39    39     0     0     0
SMALL
USER_CHARGES

@<TRIPOS>ATOM
      1 C1          4.0440   -5.6252   -2.3243 C.3       1 <0>        -0.1866
      2 C2          3.3189   -6.4678   -1.2731 C.3       1 <0>        -0.0168
      3 C3          5.3387   -6.7092    0.0400 C.3       1 <0>        -0.0110
      4 C4          5.3775   -8.2383    0.0025 C.3       1 <0>        -0.1890
      5 C5          3.8466   -4.8460    0.4456 C.3       1 <0>        -0.0236
      6 C6          2.3790   -4.4795    0.6752 C.3       1 <0>         0.0976
      7 N1          2.2840   -3.0746    1.0796 N.am      1 <0>        -0.7360
      8 C7          1.0796   -2.5275    1.3375 C.2       1 <0>         0.5767
      9 O1          0.0718   -3.2000    1.2345 O.2       1 <0>        -0.5319
     10 C8          0.9840   -1.1129    1.7447 C.ar      1 <0>        -0.2173
     11 C9         -0.2646   -0.5440    2.0125 C.ar      1 <0>         0.0003
     12 C10        -0.3505    0.7758    2.3926 C.ar      1 <0>        -0.2087
     13 C11         0.8044    1.5443    2.5105 C.ar      1 <0>         0.2566
     14 C12         2.0493    0.9807    2.2445 C.ar      1 <0>        -0.2103
     15 C13         2.1418   -0.3386    1.8640 C.ar      1 <0>        -0.0310
     16 N2          0.7143    2.8776    2.8947 N.pl3     1 <0>        -0.8616
     17 H1          3.5672   -5.7655   -3.2945 H         1 <0>         0.1076
     18 H2          3.9946   -4.5731   -2.0439 H         1 <0>         0.0795
     19 H3          5.0868   -5.9369   -2.3836 H         1 <0>         0.0812
     20 H4          3.3882   -7.5220   -1.5414 H         1 <0>         0.1329
     21 H5          2.2706   -6.1720   -1.2303 H         1 <0>         0.1313
     22 H6          5.8503   -6.3112   -0.8363 H         1 <0>         0.1337
     23 H7          5.8360   -6.3553    0.9431 H         1 <0>         0.1297
     24 H8          6.4141   -8.5755   -0.0003 H         1 <0>         0.1072
     25 H9          4.8683   -8.6363    0.8802 H         1 <0>         0.0813
     26 H10         4.8778   -8.5924   -0.8992 H         1 <0>         0.0803
     27 H11         4.2606   -4.2132   -0.3394 H         1 <0>         0.1398
     28 H12         4.4075   -4.6947    1.3679 H         1 <0>         0.1365
     29 H13         1.9650   -5.1123    1.4602 H         1 <0>         0.0885
     30 H14         1.8182   -4.6308   -0.2471 H         1 <0>         0.0886
     31 H15         3.0880   -2.5382    1.1618 H         1 <0>         0.4055
     32 H16        -1.1608   -1.1397    1.9215 H         1 <0>         0.1369
     33 H17        -1.3151    1.2171    2.5953 H         1 <0>         0.1322
     34 H18         2.9433    1.5795    2.3365 H         1 <0>         0.1296
     35 H19         3.1078   -0.7753    1.6581 H         1 <0>         0.1206
     36 H20        -0.1525    3.2713    3.0803 H         1 <0>         0.4058
     37 H21         1.5183    3.4139    2.9772 H         1 <0>         0.4046
     38 N3          3.9274   -6.2704    0.0593 N.4       1 <0>        -0.3918
     39 H22         3.4128   -6.8323    0.7476 H         1 <0>         0.4313
@<TRIPOS>BOND
     1    1    2 1
     2    1   17 1
     3    1   18 1
     4    1   19 1
     5    2   20 1
     6    2   21 1
     7    2   38 1
     8    3    4 1
     9    3   22 1
    10    3   23 1
    11    3   38 1
    12    4   24 1
    13    4   25 1
    14    4   26 1
    15    5    6 1
    16    5   27 1
    17    5   28 1
    18    5   38 1
    19    6    7 1
    20    6   29 1
    21    6   30 1
    22    7    8 am
    23    7   31 1
    24    8    9 2
    25    8   10 1
    26   10   15 ar
    27   10   11 ar
    28   11   12 ar
    29   11   32 1
    30   12   13 ar
    31   12   33 1
    32   13   14 ar
    33   13   16 1
    34   14   15 ar
    35   14   34 1
    36   15   35 1
    37   16   36 1
    38   16   37 1
    39   38   39 1
@<TRIPOS>MOLECULE
ZINC01532339
   56    55     0     0     0
SMALL
USER_CHARGES

@<TRIPOS>ATOM
      1 C1          0.0021   -0.0041    0.0020 C.3       1 <0>        -0.0508
      2 N1         -0.0178    1.4648    0.0101 N.4       1 <0>        -0.2714
      3 C2          1.3603    1.9732   -0.0003 C.3       1 <0>        -0.0508
      4 C3         -0.7283    1.9514   -1.1800 C.3       1 <0>        -0.0459
      5 C4         -0.7054    1.9385    1.2187 C.3       1 <0>        -0.0093
      6 C5          0.0346    1.4317    2.4582 C.3       1 <0>        -0.1511
      7 C6         -0.6816    1.9251    3.7170 C.3       1 <0>        -0.1183
      8 C7          0.0584    1.4183    4.9566 C.3       1 <0>        -0.1213
      9 C8         -0.6577    1.9117    6.2154 C.3       1 <0>        -0.1222
     10 C9          0.0823    1.4048    7.4549 C.3       1 <0>        -0.1222
     11 C10        -0.6339    1.8983    8.7137 C.3       1 <0>        -0.1213
     12 C11         0.1061    1.3914    9.9532 C.3       1 <0>        -0.1183
     13 C12        -0.6100    1.8848   11.2120 C.3       1 <0>        -0.1511
     14 C13         0.1300    1.3780   12.4516 C.3       1 <0>        -0.0093
     15 N2         -0.5576    1.8517   13.6602 N.4       1 <0>        -0.2715
     16 C14        -1.9358    1.3433   13.6706 C.3       1 <0>        -0.0508
     17 C15         0.1529    1.3651   14.8503 C.3       1 <0>        -0.0458
     18 C16        -0.5775    3.3206   13.6682 C.3       1 <0>        -0.0508
     19 H1          0.5293   -0.3651    0.8851 H         1 <0>         0.1221
     20 H2         -1.0205   -0.3814    0.0098 H         1 <0>         0.1218
     21 H3          0.5123   -0.3556   -0.8948 H         1 <0>         0.1235
     22 H4          1.8705    1.6217   -0.8971 H         1 <0>         0.1235
     23 H5          1.3455    3.0631    0.0057 H         1 <0>         0.1218
     24 H6          1.8875    1.6122    0.8827 H         1 <0>         0.1221
     25 H7         -1.7509    1.5741   -1.1723 H         1 <0>         0.1217
     26 H8         -0.7431    3.0413   -1.1740 H         1 <0>         0.1217
     27 H9         -0.2181    1.5999   -2.0768 H         1 <0>         0.1238
     28 H10        -0.7202    3.0284    1.2247 H         1 <0>         0.1279
     29 H11        -1.7280    1.5612    1.2264 H         1 <0>         0.1279
     30 H12         0.0493    0.3418    2.4522 H         1 <0>         0.0874
     31 H13         1.0572    1.8090    2.4505 H         1 <0>         0.0874
     32 H14        -0.6964    3.0150    3.7230 H         1 <0>         0.0735
     33 H15        -1.7042    1.5478    3.7248 H         1 <0>         0.0735
     34 H16         0.0732    0.3284    4.9506 H         1 <0>         0.0662
     35 H17         1.0810    1.7955    4.9488 H         1 <0>         0.0662
     36 H18        -0.6725    3.0016    6.2214 H         1 <0>         0.0647
     37 H19        -1.6803    1.5344    6.2231 H         1 <0>         0.0647
     38 H20         0.0970    0.3150    7.4489 H         1 <0>         0.0647
     39 H21         1.1049    1.7821    7.4472 H         1 <0>         0.0647
     40 H22        -0.6487    2.9881    8.7197 H         1 <0>         0.0662
     41 H23        -1.6565    1.5210    8.7214 H         1 <0>         0.0662
     42 H24         0.1209    0.3015    9.9472 H         1 <0>         0.0735
     43 H25         1.1287    1.7687    9.9455 H         1 <0>         0.0735
     44 H26        -0.6248    2.9747   11.2180 H         1 <0>         0.0874
     45 H27        -1.6326    1.5076   11.2198 H         1 <0>         0.0874
     46 H28         0.1447    0.2881   12.4456 H         1 <0>         0.1279
     47 H29         1.1526    1.7553   12.4438 H         1 <0>         0.1279
     48 H30        -1.9210    0.2534   13.6646 H         1 <0>         0.1218
     49 H31        -2.4460    1.6948   14.5674 H         1 <0>         0.1235
     50 H32        -2.4630    1.7044   12.7875 H         1 <0>         0.1221
     51 H33         1.1755    1.7424   14.8425 H         1 <0>         0.1217
     52 H34        -0.3573    1.7166   15.7471 H         1 <0>         0.1238
     53 H35         0.1677    0.2752   14.8443 H         1 <0>         0.1217
     54 H36        -1.1047    3.6817   12.7852 H         1 <0>         0.1221
     55 H37        -1.0877    3.6721   14.5650 H         1 <0>         0.1234
     56 H38         0.4451    3.6979   13.6605 H         1 <0>         0.1218
@<TRIPOS>BOND
     1    1    2 1
     2    1   19 1
     3    1   20 1
     4    1   21 1
     5    2    3 1
     6    2    4 1
     7    2    5 1
     8    3   22 1
     9    3   23 1
    10    3   24 1
    11    4   25 1
    12    4   26 1
    13    4   27 1
    14    5    6 1
    15    5   28 1
    16    5   29 1
    17    6    7 1
    18    6   30 1
    19    6   31 1
    20    7    8 1
    21    7   32 1
    22    7   33 1
    23    8    9 1
    24    8   34 1
    25    8   35 1
    26    9   10 1
    27    9   36 1
    28    9   37 1
    29   10   11 1
    30   10   38 1
    31   10   39 1
    32   11   12 1
    33   11   40 1
    34   11   41 1
    35   12   13 1
    36   12   42 1
    37   12   43 1
    38   13   14 1
    39   13   44 1
    40   13   45 1
    41   14   15 1
    42   14   46 1
    43   14   47 1
    44   15   16 1
    45   15   17 1
    46   15   18 1
    47   16   48 1
    48   16   49 1
    49   16   50 1
    50   17   51 1
    51   17   52 1
    52   17   53 1
    53   18   54 1
    54   18   55 1
    55   18   56 1
@<TRIPOS>MOLECULE
ZINC01592424
   29    30     0     0     0
SMALL
USER_CHARGES

@<TRIPOS>ATOM
      1 C1          7.3459    1.5359   -2.8575 C.3       1 <0>        -0.0428
      2 C2          5.4075    1.9681   -1.4724 C.3       1 <0>        -0.0052
      3 C3          4.9367    2.1666   -0.0303 C.3       1 <0>        -0.0607
      4 C4          3.4494    2.4096   -0.0163 C.2       1 <0>        -0.2081
      5 C5          2.8357    3.6034   -0.0038 C.2       1 <0>         0.0909
      6 N1          1.4787    3.4304    0.0072 N.pl3     1 <0>        -0.5869
      7 H1          0.8254    4.1474    0.0173 H         1 <0>         0.4246
      8 C6          1.1781    2.0845    0.0020 C.ar      1 <0>         0.0864
      9 C7          2.3998    1.3876   -0.0130 C.ar      1 <0>        -0.0840
     10 C8          2.4068   -0.0087   -0.0205 C.ar      1 <0>        -0.1138
     11 C9          1.2097   -0.6968   -0.0132 C.ar      1 <0>         0.0946
     12 C10         0.0021   -0.0041    0.0020 C.ar      1 <0>        -0.1182
     13 C11        -0.0166    1.3730    0.0096 C.ar      1 <0>        -0.1026
     14 O1          1.2102   -2.0567   -0.0205 O.3       1 <0>        -0.4958
     15 H2          7.1315    2.4255   -3.4498 H         1 <0>         0.1216
     16 H3          8.4218    1.3626   -2.8386 H         1 <0>         0.1247
     17 H4          6.8469    0.6747   -3.3018 H         1 <0>         0.1217
     18 H5          4.8951    1.1099   -1.9071 H         1 <0>         0.1299
     19 H6          5.1797    2.8607   -2.0551 H         1 <0>         0.1300
     20 H7          5.4491    3.0249    0.4044 H         1 <0>         0.0922
     21 H8          5.1645    1.2741    0.5524 H         1 <0>         0.0920
     22 H9          3.3388    4.5591   -0.0030 H         1 <0>         0.1749
     23 H10         3.3428   -0.5472   -0.0324 H         1 <0>         0.1254
     24 H11        -0.9287   -0.5517    0.0083 H         1 <0>         0.1387
     25 H12        -0.9591    1.9003    0.0169 H         1 <0>         0.1313
     26 H13         1.2020   -2.4452   -0.9060 H         1 <0>         0.3919
     27 N2          6.8634    1.7310   -1.4772 N.4       1 <0>        -0.5210
     28 H14         7.3398    2.5409   -1.0632 H         1 <0>         0.4340
     29 H15         7.0717    0.8917   -0.9238 H         1 <0>         0.4345
@<TRIPOS>BOND
     1    1   15 1
     2    1   16 1
     3    1   17 1
     4    1   27 1
     5    2    3 1
     6    2   18 1
     7    2   19 1
     8    2   27 1
     9    3    4 1
    10    3   20 1
    11    3   21 1
    12    4    9 1
    13    4    5 2
    14    5    6 1
    15    5   22 1
    16    6    7 1
    17    6    8 1
    18    8   13 ar
    19    8    9 ar
    20    9   10 ar
    21   10   11 ar
    22   10   23 1
    23   11   12 ar
    24   11   14 1
    25   12   13 ar
    26   12   24 1
    27   13   25 1
    28   14   26 1
    29   27   28 1
    30   27   29 1
@<TRIPOS>MOLECULE
ZINC01663056
   41    44     0     0     0
SMALL
USER_CHARGES

@<TRIPOS>ATOM
      1 C1          0.5619   -2.7321   -1.6786 C.3       1 <0>        -0.1446
      2 C2          0.9006   -2.2190   -0.2776 C.3       1 <0>        -0.0988
      3 C3          1.0358   -0.7184   -0.3113 C.2       1 <0>        -0.0992
      4 C4          0.0021   -0.0041    0.0020 C.2       1 <0>        -0.1692
      5 C5         -0.0183    1.4948    0.0103 C.3       1 <0>        -0.0497
      6 H1         -0.5369    1.8459    0.9024 H         1 <0>         0.1089
      7 C6         -0.7403    2.0129   -1.2336 C.3       1 <0>        -0.1080
      8 C7          0.0678    1.7043   -2.4750 C.ar      1 <0>         0.2806
      9 C8          1.4152    1.3945   -2.4107 C.ar      1 <0>        -0.1976
     10 C9          2.1159    1.1243   -3.5825 C.ar      1 <0>         0.3719
     11 C10         1.4188    1.1733   -4.8101 C.ar      1 <0>        -0.1379
     12 C11         2.0583    0.9101   -6.0293 C.ar      1 <0>        -0.0386
     13 C12         1.3463    0.9669   -7.1894 C.ar      1 <0>        -0.1123
     14 C13        -0.0107    1.2852   -7.1789 C.ar      1 <0>         0.0445
     15 C14        -0.6614    1.5471   -6.0108 C.ar      1 <0>        -0.1517
     16 C15         0.0410    1.4964   -4.7947 C.ar      1 <0>         0.2010
     17 Cl1        -0.8854    1.3484   -8.6771 Cl        1 <0>        -0.0132
     18 N1          3.4668    0.8147   -3.5457 N.pl3     1 <0>        -0.7935
     19 C16         2.1776    1.3313   -1.1142 C.3       1 <0>        -0.0370
     20 H2          3.1539    1.7986   -1.2431 H         1 <0>         0.0969
     21 C17         1.4107    2.0484   -0.0004 C.3       1 <0>        -0.1175
     22 C18         2.3618   -0.1345   -0.7069 C.3       1 <0>        -0.0880
     23 H3          1.3579   -2.4545   -2.3695 H         1 <0>         0.0488
     24 H4          0.4641   -3.8175   -1.6542 H         1 <0>         0.0634
     25 H5         -0.3777   -2.2900   -2.0101 H         1 <0>         0.0504
     26 H6          1.8401   -2.6611    0.0540 H         1 <0>         0.0743
     27 H7          0.1045   -2.4966    0.4134 H         1 <0>         0.0747
     28 H8         -0.9053   -0.5223    0.2750 H         1 <0>         0.1131
     29 H9         -1.7164    1.5338   -1.3102 H         1 <0>         0.1114
     30 H10        -0.8755    3.0912   -1.1497 H         1 <0>         0.1232
     31 H11         3.1094    0.6628   -6.0489 H         1 <0>         0.1563
     32 H12         1.8393    0.7632   -8.1284 H         1 <0>         0.1615
     33 H13        -1.7131    1.7924   -6.0195 H         1 <0>         0.1640
     34 H14         3.9346    0.7845   -2.6965 H         1 <0>         0.4269
     35 H15         3.9443    0.6283   -4.3693 H         1 <0>         0.4225
     36 H16         1.3903    3.1204   -0.1967 H         1 <0>         0.0811
     37 H17         1.8885    1.8568    0.9603 H         1 <0>         0.0924
     38 H18         3.0502   -0.1930    0.1363 H         1 <0>         0.0970
     39 H19         2.7695   -0.6962   -1.5473 H         1 <0>         0.0744
     40 N2         -0.6505    1.7655   -3.6340 N.ar      1 <0>        -0.5493
     41 H20        -1.6504    1.9990   -3.6404 H         1 <0>         0.4665
@<TRIPOS>BOND
     1    1    2 1
     2    1   23 1
     3    1   24 1
     4    1   25 1
     5    2    3 1
     6    2   26 1
     7    2   27 1
     8    3   22 1
     9    3    4 2
    10    4    5 1
    11    4   28 1
    12    5    6 1
    13    5   21 1
    14    5    7 1
    15    7    8 1
    16    7   29 1
    17    7   30 1
    18    8    9 ar
    19    8   40 ar
    20    9   10 ar
    21    9   19 1
    22   10   11 ar
    23   10   18 1
    24   11   16 ar
    25   11   12 ar
    26   12   13 ar
    27   12   31 1
    28   13   14 ar
    29   13   32 1
    30   14   15 ar
    31   14   17 1
    32   15   16 ar
    33   15   33 1
    34   16   40 ar
    35   18   34 1
    36   18   35 1
    37   19   20 1
    38   19   21 1
    39   19   22 1
    40   21   36 1
    41   21   37 1
    42   22   38 1
    43   22   39 1
    44   40   41 1
@<TRIPOS>MOLECULE
ZINC01717164
   29    29     0     0     0
SMALL
USER_CHARGES

@<TRIPOS>ATOM
      1 C1         -3.6612   11.4929   -0.5681 C.3       1 <0>        -0.1535
      2 C2         -3.8478    9.9778   -0.4655 C.3       1 <0>        -0.1216
      3 C3         -2.4794    9.3011   -0.3629 C.3       1 <0>        -0.1331
      4 C4         -2.6660    7.7860   -0.2603 C.3       1 <0>         0.1339
      5 N1         -1.3557    7.1382   -0.1620 N.am      1 <0>        -0.7063
      6 C5         -1.2731    5.7967   -0.0615 C.2       1 <0>         0.6418
      7 O1         -2.2854    5.1246   -0.0523 O.2       1 <0>        -0.5523
      8 O2         -0.0685    5.2011    0.0288 O.3       1 <0>        -0.3055
      9 C6         -0.0485    3.8422    0.0022 C.ar      1 <0>         0.1011
     10 C7          0.2752    3.1296    1.1475 C.ar      1 <0>        -0.1159
     11 C8          0.2953    1.7486    1.1178 C.ar      1 <0>        -0.1052
     12 C9         -0.0067    1.0766   -0.0522 C.ar      1 <0>        -0.1157
     13 C10        -0.3245    1.7848   -1.1965 C.ar      1 <0>        -0.1043
     14 C11        -0.3511    3.1657   -1.1705 C.ar      1 <0>        -0.1201
     15 H1         -3.1420   11.8559    0.3188 H         1 <0>         0.0553
     16 H2         -3.0726   11.7272   -1.4551 H         1 <0>         0.0553
     17 H3         -4.6361   11.9749   -0.6412 H         1 <0>         0.0577
     18 H4         -4.3671    9.6147   -1.3524 H         1 <0>         0.0668
     19 H5         -4.4364    9.7434    0.4215 H         1 <0>         0.0669
     20 H6         -1.9602    9.6642    0.5240 H         1 <0>         0.0729
     21 H7         -1.8908    9.5355   -1.2499 H         1 <0>         0.0728
     22 H8         -3.1853    7.4230   -1.1472 H         1 <0>         0.0734
     23 H9         -3.2546    7.5517    0.6267 H         1 <0>         0.0734
     24 H10        -0.5476    7.6747   -0.1694 H         1 <0>         0.4092
     25 H11         0.5115    3.6540    2.0616 H         1 <0>         0.1318
     26 H12         0.5476    1.1933    2.0092 H         1 <0>         0.1333
     27 H13         0.0099   -0.0030   -0.0736 H         1 <0>         0.1300
     28 H14        -0.5560    1.2577   -2.1103 H         1 <0>         0.1314
     29 H15        -0.6034    3.7183   -2.0635 H         1 <0>         0.1266
@<TRIPOS>BOND
     1    1    2 1
     2    1   15 1
     3    1   16 1
     4    1   17 1
     5    2    3 1
     6    2   18 1
     7    2   19 1
     8    3    4 1
     9    3   20 1
    10    3   21 1
    11    4    5 1
    12    4   22 1
    13    4   23 1
    14    5    6 am
    15    5   24 1
    16    6    7 2
    17    6    8 1
    18    8    9 1
    19    9   14 ar
    20    9   10 ar
    21   10   11 ar
    22   10   25 1
    23   11   12 ar
    24   11   26 1
    25   12   13 ar
    26   12   27 1
    27   13   14 ar
    28   13   28 1
    29   14   29 1
@<TRIPOS>MOLECULE
ZINC01903720
   31    31     0     0     0
SMALL
USER_CHARGES

@<TRIPOS>ATOM
      1 C1         -1.0287    1.8811   -4.4154 C.3       1 <0>        -0.1661
      2 C2          0.3334    2.0643   -3.7429 C.3       1 <0>         0.1059
      3 C3          0.5674    3.5498   -3.4611 C.3       1 <0>        -0.1301
      4 C4          1.4336    1.5413   -4.6687 C.3       1 <0>        -0.1692
      5 N1          0.3601    1.3180   -2.4826 N.pl3     1 <0>        -0.1844
      6 C5          0.1830    0.0369   -2.4857 C.2       1 <0>         0.1743
      7 C6          0.0444   -0.6924   -1.2095 C.ar      1 <0>        -0.0147
      8 C7         -0.3279   -0.0107   -0.0491 C.ar      1 <0>        -0.0866
      9 C8         -0.4504   -0.6973    1.1410 C.ar      1 <0>        -0.1135
     10 C9         -0.2095   -2.0592    1.1857 C.ar      1 <0>        -0.1242
     11 C10         0.1550   -2.7415    0.0388 C.ar      1 <0>        -0.0503
     12 C11         0.2807   -2.0672   -1.1583 C.ar      1 <0>        -0.6311
     13 S1          0.7457   -2.9381   -2.6178 S.o2      1 <0>         2.6927
     14 O1          1.4684   -2.0196   -3.4260 O.2       1 <0>        -1.0556
     15 O2          1.2972   -4.1770   -2.1931 O.2       1 <0>        -1.0484
     16 O3          0.5798    1.9993   -1.2608 O.3       1 <0>        -0.5458
     17 H1         -1.8125    2.2537   -3.7559 H         1 <0>         0.0690
     18 H2         -1.0485    2.4364   -5.3531 H         1 <0>         0.0856
     19 H3         -1.1954    0.8228   -4.6161 H         1 <0>         0.0756
     20 H4          1.5377    3.6803   -2.9820 H         1 <0>         0.0702
     21 H5          0.5475    4.1050   -4.3989 H         1 <0>         0.0674
     22 H6         -0.2164    3.9223   -2.8016 H         1 <0>         0.0687
     23 H7          1.2669    0.4830   -4.8694 H         1 <0>         0.0864
     24 H8          1.4138    2.0966   -5.6064 H         1 <0>         0.0811
     25 H9          2.4040    1.6718   -4.1896 H         1 <0>         0.0701
     26 H10         0.1364   -0.4995   -3.4220 H         1 <0>         0.1947
     27 H11        -0.5158    1.0523   -0.0825 H         1 <0>         0.1654
     28 H12        -0.7346   -0.1706    2.0400 H         1 <0>         0.1216
     29 H13        -0.3062   -2.5918    2.1202 H         1 <0>         0.1222
     30 H14         0.3419   -3.8044    0.0807 H         1 <0>         0.1387
     31 O4         -0.5344   -3.2677   -3.3722 O.3       1 <0>        -1.0699
@<TRIPOS>BOND
     1    1    2 1
     2    1   17 1
     3    1   18 1
     4    1   19 1
     5    2    3 1
     6    2    4 1
     7    2    5 1
     8    3   20 1
     9    3   21 1
    10    3   22 1
    11    4   23 1
    12    4   24 1
    13    4   25 1
    14    5    6 2
    15    5   16 1
    16    6    7 1
    17    6   26 1
    18    7   12 ar
    19    7    8 ar
    20    8    9 ar
    21    8   27 1
    22    9   10 ar
    23    9   28 1
    24   10   11 ar
    25   10   29 1
    26   11   12 ar
    27   11   30 1
    28   12   13 1
    29   13   14 2
    30   13   15 2
    31   13   31 1
@<TRIPOS>MOLECULE
ZINC02012157
   29    30     0     0     0
SMALL
USER_CHARGES

@<TRIPOS>ATOM
      1 C1         -0.7527    1.5927   -1.2315 C.3       1 <0>        -0.1827
      2 C2         -0.0127    1.0858    0.0080 C.3       1 <0>         0.0359
      3 H1          0.0021   -0.0041    0.0020 H         1 <0>         0.1382
      4 C3         -0.7288    1.5792    1.2668 C.3       1 <0>        -0.0604
      5 C4         -0.0738    0.9805    2.4848 C.2       1 <0>        -0.2382
      6 C5         -0.4614   -0.1273    3.1364 C.2       1 <0>         0.1048
      7 N1          0.3760   -0.3651    4.1917 N.pl3     1 <0>        -0.5842
      8 H2          0.2985   -1.1102    4.8079 H         1 <0>         0.4271
      9 C6          1.3433    0.6159    4.2522 C.ar      1 <0>         0.0900
     10 C7          1.1029    1.5007    3.1855 C.ar      1 <0>        -0.1013
     11 C8          1.9345    2.6059    2.9944 C.ar      1 <0>        -0.1451
     12 C9          2.9905    2.8223    3.8573 C.ar      1 <0>         0.1085
     13 C10         3.2259    1.9447    4.9122 C.ar      1 <0>        -0.1192
     14 C11         2.4123    0.8512    5.1099 C.ar      1 <0>        -0.0923
     15 O1          3.8041    3.8968    3.6758 O.3       1 <0>        -0.4981
     16 H3         -0.2425    1.2411   -2.1283 H         1 <0>         0.0823
     17 H4         -1.7753    1.2154   -1.2238 H         1 <0>         0.1069
     18 H5         -0.7675    2.6825   -1.2255 H         1 <0>         0.0820
     19 H6         -0.6662    2.6662    1.3180 H         1 <0>         0.0940
     20 H7         -1.7755    1.2768    1.2315 H         1 <0>         0.1169
     21 H8         -1.3077   -0.7415    2.8659 H         1 <0>         0.1799
     22 H9          1.7527    3.2875    2.1766 H         1 <0>         0.1222
     23 H10         4.0545    2.1229    5.5816 H         1 <0>         0.1419
     24 H11         2.6045    0.1765    5.9310 H         1 <0>         0.1346
     25 H12         3.5151    4.6924    4.1433 H         1 <0>         0.3992
     26 H13         1.8793    1.2300   -0.7907 H         1 <0>         0.4351
     27 H14         1.3787    2.6032    0.0029 H         1 <0>         0.4313
     28 N2          1.3738    1.5847    0.0195 N.4       1 <0>        -0.6478
     29 H15         1.8417    1.2613    0.8743 H         1 <0>         0.4384
@<TRIPOS>BOND
     1    1    2 1
     2    1   16 1
     3    1   17 1
     4    1   18 1
     5    2    3 1
     6    2    4 1
     7    2   28 1
     8    4    5 1
     9    4   19 1
    10    4   20 1
    11    5   10 1
    12    5    6 2
    13    6    7 1
    14    6   21 1
    15    7    8 1
    16    7    9 1
    17    9   14 ar
    18    9   10 ar
    19   10   11 ar
    20   11   12 ar
    21   11   22 1
    22   12   13 ar
    23   12   15 1
    24   13   14 ar
    25   13   23 1
    26   14   24 1
    27   15   25 1
    28   26   28 1
    29   27   28 1
    30   28   29 1
@<TRIPOS>MOLECULE
ZINC02156329
   31    31     0     0     0
SMALL
USER_CHARGES

@<TRIPOS>ATOM
      1 C1          3.3522   11.5819    0.6871 C.3       1 <0>        -0.1537
      2 C2          3.5798   10.0735    0.5698 C.3       1 <0>        -0.1217
      3 C3          2.2303    9.3611    0.4605 C.3       1 <0>        -0.1333
      4 C4          2.4579    7.8526    0.3432 C.3       1 <0>         0.1323
      5 N1          1.1657    7.1705    0.2386 N.am      1 <0>        -0.7004
      6 C5          1.1194    5.8283    0.1250 C.2       1 <0>         0.6417
      7 O1          2.1496    5.1840    0.1095 O.2       1 <0>        -0.5489
      8 O2         -0.0685    5.2011    0.0288 O.3       1 <0>        -0.2974
      9 C6         -0.0517    3.8419    0.0423 C.ar      1 <0>         0.1105
     10 C7         -0.3561    3.1318   -1.1101 C.ar      1 <0>        -0.0638
     11 C8         -0.3388    1.7508   -1.0937 C.ar      1 <0>        -0.0991
     12 C9         -0.0184    1.0759    0.0700 C.ar      1 <0>        -0.0517
     13 C10         0.2801    1.7812    1.2209 C.ar      1 <0>        -0.0281
     14 C11         0.2693    3.1627    1.2083 C.ar      1 <0>        -0.0605
     15 N2          0.6171    1.0557    2.4663 N.pl3     1 <0>         0.0265
     16 O3          0.6313   -0.1622    2.4768 O.2       1 <0>        -0.1482
     17 O4          0.8802    1.6765    3.4806 O.3       1 <0>        -0.1537
     18 H1          4.3137   12.0895    0.7649 H         1 <0>         0.0583
     19 H2          2.8232   11.9393   -0.1964 H         1 <0>         0.0554
     20 H3          2.7576   11.7916    1.5762 H         1 <0>         0.0557
     21 H4          4.1089    9.7161    1.4533 H         1 <0>         0.0675
     22 H5          4.1745    9.8638   -0.3193 H         1 <0>         0.0671
     23 H6          1.7012    9.7184   -0.4230 H         1 <0>         0.0734
     24 H7          1.6357    9.5707    1.3496 H         1 <0>         0.0739
     25 H8          2.9869    7.4953    1.2267 H         1 <0>         0.0760
     26 H9          3.0525    7.6430   -0.5459 H         1 <0>         0.0754
     27 H10         0.3433    7.6847    0.2510 H         1 <0>         0.4113
     28 H11        -0.6067    3.6584   -2.0191 H         1 <0>         0.1543
     29 H12        -0.5760    1.1975   -1.9904 H         1 <0>         0.1609
     30 H13        -0.0058   -0.0040    0.0809 H         1 <0>         0.1622
     31 H14         0.5069    3.7133    2.1065 H         1 <0>         0.1581
@<TRIPOS>BOND
     1    1    2 1
     2    1   18 1
     3    1   19 1
     4    1   20 1
     5    2    3 1
     6    2   21 1
     7    2   22 1
     8    3    4 1
     9    3   23 1
    10    3   24 1
    11    4    5 1
    12    4   25 1
    13    4   26 1
    14    5    6 am
    15    5   27 1
    16    6    7 2
    17    6    8 1
    18    8    9 1
    19    9   14 ar
    20    9   10 ar
    21   10   11 ar
    22   10   28 1
    23   11   12 ar
    24   11   29 1
    25   12   13 ar
    26   12   30 1
    27   13   14 ar
    28   13   15 1
    29   14   31 1
    30   15   16 2
    31   15   17 1
@<TRIPOS>MOLECULE
ZINC02572146
   29    30     0     0     0
SMALL
USER_CHARGES

@<TRIPOS>ATOM
      1 C1         -1.2084   -2.3727    2.6104 C.3       1 <0>        -0.1070
      2 C2         -0.0288   -2.8299    1.7914 C.2       1 <0>         0.1196
      3 C3          0.8464   -2.0163    1.1798 C.2       1 <0>        -0.2093
      4 C4          1.8288   -2.8705    0.5079 C.ar      1 <0>        -0.0801
      5 C5          2.9608   -2.6186   -0.2705 C.ar      1 <0>        -0.1145
      6 C6          3.6941   -3.6761   -0.7699 C.ar      1 <0>         0.0954
      7 C7          3.3088   -4.9870   -0.5001 C.ar      1 <0>        -0.1189
      8 C8          2.1947   -5.2470    0.2660 C.ar      1 <0>        -0.1024
      9 C9          1.4424   -4.1952    0.7785 C.ar      1 <0>         0.0878
     10 N1          0.3068   -4.1356    1.5587 N.pl3     1 <0>        -0.5849
     11 H1         -0.1789   -4.9045    1.8957 H         1 <0>         0.4224
     12 O1          4.7969   -3.4370   -1.5287 O.3       1 <0>        -0.4975
     13 C10         0.8260   -0.5095    1.1880 C.3       1 <0>        -0.0615
     14 C11         0.0021   -0.0041    0.0020 C.3       1 <0>        -0.0044
     15 H2         -2.0796   -2.2655    1.9642 H         1 <0>         0.0837
     16 H3         -1.4196   -3.1090    3.3858 H         1 <0>         0.0795
     17 H4         -0.9791   -1.4130    3.0734 H         1 <0>         0.0864
     18 H5          3.2608   -1.6025   -0.4801 H         1 <0>         0.1257
     19 H6          3.8896   -5.8073   -0.8952 H         1 <0>         0.1386
     20 H7          1.9048   -6.2674    0.4687 H         1 <0>         0.1310
     21 H8          5.6162   -3.3647   -1.0202 H         1 <0>         0.3938
     22 H9          1.8454   -0.1318    1.1095 H         1 <0>         0.0923
     23 H10         0.3787   -0.1573    2.1176 H         1 <0>         0.0910
     24 H11        -1.0174   -0.3817    0.0806 H         1 <0>         0.1303
     25 H12         0.4494   -0.3563   -0.9275 H         1 <0>         0.1353
     26 H13         0.9191    1.8392    0.0032 H         1 <0>         0.4370
     27 H14        -0.5563    1.8234   -0.7642 H         1 <0>         0.4399
     28 N2         -0.0294    1.4689    0.0323 N.4       1 <0>        -0.6477
     29 H15        -0.4837    1.7790    0.8993 H         1 <0>         0.4382
@<TRIPOS>BOND
     1    1    2 1
     2    1   15 1
     3    1   16 1
     4    1   17 1
     5    2   10 1
     6    2    3 2
     7    3    4 1
     8    3   13 1
     9    4    9 ar
    10    4    5 ar
    11    5    6 ar
    12    5   18 1
    13    6    7 ar
    14    6   12 1
    15    7    8 ar
    16    7   19 1
    17    8    9 ar
    18    8   20 1
    19    9   10 1
    20   10   11 1
    21   12   21 1
    22   13   14 1
    23   13   22 1
    24   13   23 1
    25   14   24 1
    26   14   25 1
    27   14   28 1
    28   26   28 1
    29   27   28 1
    30   28   29 1
@<TRIPOS>MOLECULE
ZINC03779000
   58    61     0     0     0
SMALL
USER_CHARGES

@<TRIPOS>ATOM
      1 C1         -4.4674    4.9636    5.0061 C.3       1 <0>         0.0216
      2 O1         -3.5540    5.8412    4.3446 O.3       1 <0>        -0.2950
      3 C2         -2.8574    5.3304    3.2975 C.ar      1 <0>         0.1499
      4 C3         -3.0491    4.0100    2.9148 C.ar      1 <0>        -0.1809
      5 C4         -2.3444    3.4825    1.8521 C.ar      1 <0>        -0.0428
      6 C5         -1.4321    4.2771    1.1544 C.ar      1 <0>        -0.1981
      7 C6         -1.2405    5.6140    1.5442 C.ar      1 <0>        -0.1050
      8 C7         -1.9489    6.1324    2.6069 C.ar      1 <0>         0.0903
      9 O2         -1.7616    7.4261    2.9826 O.3       1 <0>        -0.3013
     10 C8         -0.8156    8.1893    2.2312 C.3       1 <0>         0.0222
     11 C9         -0.8015    3.5120    0.0698 C.2       1 <0>         0.4110
     12 O3          0.0302    3.9319   -0.7068 O.2       1 <0>        -0.4363
     13 C10        -1.3728    2.1151    0.0854 C.3       1 <0>        -0.1292
     14 H1         -0.6341    1.4544    0.2186 H         1 <0>         0.1029
     15 C11        -2.3724    2.0978    1.2500 C.3       1 <0>        -0.0748
     16 C12        -2.0878    1.8201   -1.2346 C.3       1 <0>        -0.1042
     17 C13        -2.5415    0.3590   -1.2535 C.3       1 <0>        -0.1000
     18 C14        -1.3150   -0.5575   -1.2675 C.3       1 <0>        -0.1469
     19 C15        -1.7744   -2.0150   -1.3495 C.3       1 <0>        -0.0062
     20 C16        -3.7785   -1.3772   -2.5533 C.3       1 <0>        -0.0010
     21 C17        -3.3789    0.0994   -2.5089 C.3       1 <0>        -0.1441
     22 C18        -2.9124   -3.6293   -2.7494 C.3       1 <0>         0.0491
     23 C19        -1.6554   -4.4205   -3.0042 C.ar      1 <0>        -0.1633
     24 C20        -1.2066   -4.6071   -4.2983 C.ar      1 <0>        -0.0944
     25 C21        -0.0506   -5.3284   -4.5317 C.ar      1 <0>        -0.1129
     26 C22         0.6503   -5.8727   -3.4718 C.ar      1 <0>        -0.0840
     27 C23         0.1986   -5.6906   -2.1781 C.ar      1 <0>        -0.1137
     28 C24        -0.9543   -4.9645   -1.9443 C.ar      1 <0>        -0.0970
     29 H2         -3.9238    4.1075    5.4057 H         1 <0>         0.0598
     30 H3         -4.9568    5.4961    5.8216 H         1 <0>         0.1082
     31 H4         -5.2182    4.6179    4.2956 H         1 <0>         0.0593
     32 H5         -3.7531    3.3920    3.4521 H         1 <0>         0.1434
     33 H6         -0.5371    6.2358    1.0104 H         1 <0>         0.1439
     34 H7          0.1658    7.7197    2.2988 H         1 <0>         0.0580
     35 H8         -1.1280    8.2296    1.1877 H         1 <0>         0.0577
     36 H9         -0.7629    9.2008    2.6341 H         1 <0>         0.1079
     37 H10        -2.0728    1.3597    1.9941 H         1 <0>         0.0931
     38 H11        -3.3719    1.8708    0.8791 H         1 <0>         0.0934
     39 H12        -2.9564    2.4715   -1.3308 H         1 <0>         0.0829
     40 H13        -1.4054    1.9994   -2.0655 H         1 <0>         0.0825
     41 H14        -3.1407    0.1522   -0.3668 H         1 <0>         0.0950
     42 H15        -0.6954   -0.3230   -2.1330 H         1 <0>         0.0900
     43 H16        -0.7382   -0.4075   -0.3549 H         1 <0>         0.1128
     44 H17        -2.3817   -2.2531   -0.4761 H         1 <0>         0.1299
     45 H18        -0.9031   -2.6694   -1.3753 H         1 <0>         0.1289
     46 H19        -4.3763   -1.6182   -1.6743 H         1 <0>         0.1309
     47 H20        -4.3626   -1.5685   -3.4534 H         1 <0>         0.1291
     48 H21        -4.2757    0.7185   -2.4826 H         1 <0>         0.1141
     49 H22        -2.7926    0.3446   -3.3945 H         1 <0>         0.0897
     50 H23        -3.4012   -4.0035   -1.8498 H         1 <0>         0.1360
     51 H24        -3.5864   -3.7343   -3.5995 H         1 <0>         0.1346
     52 H25        -1.7568   -4.1858   -5.1267 H         1 <0>         0.1309
     53 H26         0.3025   -5.4704   -5.5424 H         1 <0>         0.1361
     54 H27         1.5509   -6.4400   -3.6545 H         1 <0>         0.1359
     55 H28         0.7461   -6.1159   -1.3500 H         1 <0>         0.1360
     56 H29        -1.3074   -4.8225   -0.9336 H         1 <0>         0.1306
     57 N1         -2.5538   -2.2047   -2.5912 N.4       1 <0>        -0.3926
     58 H30        -1.9804   -1.9144   -3.3919 H         1 <0>         0.4260
@<TRIPOS>BOND
     1    1    2 1
     2    1   29 1
     3    1   30 1
     4    1   31 1
     5    2    3 1
     6    3    8 ar
     7    3    4 ar
     8    4    5 ar
     9    4   32 1
    10    5   15 1
    11    5    6 ar
    12    6    7 ar
    13    6   11 1
    14    7    8 ar
    15    7   33 1
    16    8    9 1
    17    9   10 1
    18   10   34 1
    19   10   35 1
    20   10   36 1
    21   11   12 2
    22   11   13 1
    23   13   14 1
    24   13   15 1
    25   13   16 1
    26   15   37 1
    27   15   38 1
    28   16   17 1
    29   16   39 1
    30   16   40 1
    31   17   21 1
    32   17   18 1
    33   17   41 1
    34   18   19 1
    35   18   42 1
    36   18   43 1
    37   19   44 1
    38   19   45 1
    39   19   57 1
    40   20   21 1
    41   20   46 1
    42   20   47 1
    43   20   57 1
    44   21   48 1
    45   21   49 1
    46   22   23 1
    47   22   50 1
    48   22   51 1
    49   22   57 1
    50   23   28 ar
    51   23   24 ar
    52   24   25 ar
    53   24   52 1
    54   25   26 ar
    55   25   53 1
    56   26   27 ar
    57   26   54 1
    58   27   28 ar
    59   27   55 1
    60   28   56 1
    61   57   58 1
@<TRIPOS>MOLECULE
ZINC03783976
   65    69     0     0     0
SMALL
USER_CHARGES

@<TRIPOS>ATOM
      1 C1        -10.7486    5.9527    1.5375 C.ar      1 <0>        -0.0839
      2 C2        -10.6958    4.9793    0.5574 C.ar      1 <0>        -0.1136
      3 C3        -10.3269    3.6880    0.8849 C.ar      1 <0>        -0.0969
      4 C4        -10.0111    3.3700    2.1926 C.ar      1 <0>        -0.1633
      5 C5        -10.0694    4.3421    3.1737 C.ar      1 <0>        -0.0945
      6 C6        -10.4328    5.6347    2.8452 C.ar      1 <0>        -0.1130
      7 C7         -9.6093    1.9621    2.5498 C.3       1 <0>         0.0490
      8 C8         -7.6962    0.5441    2.9852 C.3       1 <0>        -0.0008
      9 C9         -6.1667    0.4952    2.9680 C.3       1 <0>        -0.1426
     10 C10        -5.6723    0.6451    1.5266 C.3       1 <0>        -0.0954
     11 C11        -6.2015    1.9603    0.9481 C.3       1 <0>        -0.1478
     12 C12        -7.7300    1.9668    1.0238 C.3       1 <0>        -0.0060
     13 C13        -4.1424    0.6580    1.5096 C.3       1 <0>        -0.1352
     14 C14        -3.6487    0.6822    0.0616 C.3       1 <0>         0.1090
     15 N1         -2.1839    0.6945    0.0453 N.am      1 <0>        -0.5790
     16 C15        -1.4321    1.8098    0.0590 C.2       1 <0>         0.5808
     17 O1         -1.8545    2.9486    0.0814 O.2       1 <0>        -0.4634
     18 C16        -0.0092    1.4202    0.0323 C.ar      1 <0>        -0.1659
     19 C17         1.1868    2.1246    0.0294 C.ar      1 <0>        -0.0156
     20 C18         2.3880    1.4402    0.0081 C.ar      1 <0>        -0.1002
     21 C19         2.4054    0.0506   -0.0124 C.ar      1 <0>         0.1796
     22 C20         1.2101   -0.6680   -0.0101 C.ar      1 <0>        -0.0688
     23 C21         0.0045    0.0094    0.0120 C.ar      1 <0>        -0.1224
     24 C22        -1.4138   -0.4083    0.0213 C.2       1 <0>         0.5801
     25 O2         -1.8160   -1.5542    0.0087 O.2       1 <0>        -0.4581
     26 N2          3.6226   -0.6276   -0.0347 N.am      1 <0>        -0.6707
     27 C23         4.6686   -0.1129   -0.7111 C.2       1 <0>         0.5666
     28 O3          4.5763    0.9815   -1.2319 O.2       1 <0>        -0.5073
     29 C24         5.9278   -0.8792   -0.8196 C.ar      1 <0>        -0.1458
     30 C25         6.0389   -2.1339   -0.2178 C.ar      1 <0>        -0.0847
     31 C26         7.2151   -2.8464   -0.3278 C.ar      1 <0>        -0.1256
     32 C27         8.2870   -2.3151   -1.0229 C.ar      1 <0>        -0.0836
     33 C28         8.1854   -1.0695   -1.6169 C.ar      1 <0>        -0.1250
     34 C29         7.0130   -0.3490   -1.5194 C.ar      1 <0>        -0.0530
     35 H1        -11.0361    6.9618    1.2815 H         1 <0>         0.1359
     36 H2        -10.9425    5.2278   -0.4643 H         1 <0>         0.1361
     37 H3        -10.2857    2.9275    0.1192 H         1 <0>         0.1307
     38 H4         -9.8269    4.0926    4.1962 H         1 <0>         0.1308
     39 H5        -10.4737    6.3953    3.6109 H         1 <0>         0.1361
     40 H6        -10.1022    1.2616    1.8757 H         1 <0>         0.1362
     41 H7         -9.9067    1.7488    3.5765 H         1 <0>         0.1346
     42 H8         -8.0926   -0.2777    2.3889 H         1 <0>         0.1315
     43 H9         -8.0510    0.4520    4.0117 H         1 <0>         0.1295
     44 H10        -5.8286   -0.4594    3.3712 H         1 <0>         0.1141
     45 H11        -5.7697    1.3085    3.5754 H         1 <0>         0.0892
     46 H12        -6.0362   -0.1899    0.9280 H         1 <0>         0.0952
     47 H13        -5.8050    2.7967    1.5237 H         1 <0>         0.0911
     48 H14        -5.8883    2.0526   -0.0919 H         1 <0>         0.1130
     49 H15        -8.1262    1.1384    0.4367 H         1 <0>         0.1304
     50 H16        -8.1093    2.9080    0.6258 H         1 <0>         0.1296
     51 H17        -3.7660   -0.2360    2.0069 H         1 <0>         0.0828
     52 H18        -3.7807    1.5438    2.0317 H         1 <0>         0.0785
     53 H19        -4.0251    1.5762   -0.4357 H         1 <0>         0.0975
     54 H20        -4.0105   -0.2036   -0.4605 H         1 <0>         0.0997
     55 H21         1.1791    3.2045    0.0446 H         1 <0>         0.1490
     56 H22         3.3183    1.9888    0.0062 H         1 <0>         0.1612
     57 H23         1.2259   -1.7478   -0.0253 H         1 <0>         0.1481
     58 H24         3.7170   -1.4702    0.4366 H         1 <0>         0.4176
     59 H25         5.2047   -2.5477    0.3292 H         1 <0>         0.1256
     60 H26         7.3010   -3.8191    0.1335 H         1 <0>         0.1333
     61 H27         9.2070   -2.8752   -1.1025 H         1 <0>         0.1324
     62 H28         9.0257   -0.6606   -2.1583 H         1 <0>         0.1351
     63 H29         6.9351    0.6232   -1.9832 H         1 <0>         0.1392
     64 N3         -8.1408    1.8439    2.4386 N.4       1 <0>        -0.3927
     65 H30        -7.7036    2.5995    2.9791 H         1 <0>         0.4259
@<TRIPOS>BOND
     1    1    6 ar
     2    1    2 ar
     3    1   35 1
     4    2    3 ar
     5    2   36 1
     6    3    4 ar
     7    3   37 1
     8    4    5 ar
     9    4    7 1
    10    5    6 ar
    11    5   38 1
    12    6   39 1
    13    7   40 1
    14    7   41 1
    15    7   64 1
    16    8    9 1
    17    8   42 1
    18    8   43 1
    19    8   64 1
    20    9   10 1
    21    9   44 1
    22    9   45 1
    23   10   11 1
    24   10   13 1
    25   10   46 1
    26   11   12 1
    27   11   47 1
    28   11   48 1
    29   12   49 1
    30   12   50 1
    31   12   64 1
    32   13   14 1
    33   13   51 1
    34   13   52 1
    35   14   15 1
    36   14   53 1
    37   14   54 1
    38   15   24 am
    39   15   16 am
    40   16   17 2
    41   16   18 1
    42   18   23 ar
    43   18   19 ar
    44   19   20 ar
    45   19   55 1
    46   20   21 ar
    47   20   56 1
    48   21   22 ar
    49   21   26 1
    50   22   23 ar
    51   22   57 1
    52   23   24 1
    53   24   25 2
    54   26   27 am
    55   26   58 1
    56   27   28 2
    57   27   29 1
    58   29   34 ar
    59   29   30 ar
    60   30   31 ar
    61   30   59 1
    62   31   32 ar
    63   31   60 1
    64   32   33 ar
    65   32   61 1
    66   33   34 ar
    67   33   62 1
    68   34   63 1
    69   64   65 1
@<TRIPOS>MOLECULE
ZINC03789953
   60    63     0     0     0
SMALL
USER_CHARGES

@<TRIPOS>ATOM
      1 C1         -4.4674    4.9636    5.0061 C.3       1 <0>         0.0217
      2 O1         -3.5540    5.8412    4.3446 O.3       1 <0>        -0.2948
      3 C2         -2.8574    5.3304    3.2975 C.ar      1 <0>         0.1502
      4 C3         -3.0491    4.0100    2.9148 C.ar      1 <0>        -0.1808
      5 C4         -2.3444    3.4825    1.8521 C.ar      1 <0>        -0.0435
      6 C5         -1.4321    4.2771    1.1544 C.ar      1 <0>        -0.1981
      7 C6         -1.2405    5.6140    1.5442 C.ar      1 <0>        -0.1050
      8 C7         -1.9489    6.1324    2.6069 C.ar      1 <0>         0.0908
      9 O2         -1.7616    7.4261    2.9826 O.3       1 <0>        -0.3011
     10 C8         -0.8156    8.1893    2.2312 C.3       1 <0>         0.0221
     11 C9         -0.8015    3.5120    0.0698 C.2       1 <0>         0.4106
     12 O3          0.0302    3.9319   -0.7068 O.2       1 <0>        -0.4358
     13 C10        -1.3728    2.1151    0.0854 C.3       1 <0>        -0.1292
     14 H1         -0.6341    1.4544    0.2186 H         1 <0>         0.1025
     15 C11        -2.3724    2.0978    1.2500 C.3       1 <0>        -0.0744
     16 C12        -2.0878    1.8201   -1.2346 C.3       1 <0>        -0.1049
     17 C13        -2.5415    0.3590   -1.2535 C.3       1 <0>        -0.0999
     18 C14        -1.3150   -0.5575   -1.2675 C.3       1 <0>        -0.1479
     19 C15        -1.7744   -2.0150   -1.3495 C.3       1 <0>        -0.0078
     20 C16        -3.7785   -1.3772   -2.5533 C.3       1 <0>        -0.0007
     21 C17        -3.3789    0.0994   -2.5089 C.3       1 <0>        -0.1451
     22 C18        -2.9124   -3.6293   -2.7494 C.3       1 <0>         0.0500
     23 C19        -1.6554   -4.4205   -3.0042 C.ar      1 <0>        -0.1590
     24 C20        -0.9542   -4.9646   -1.9441 C.ar      1 <0>        -0.0495
     25 C21         0.1987   -5.6902   -2.1778 C.ar      1 <0>        -0.1063
     26 C22         0.6503   -5.8727   -3.4718 C.ar      1 <0>        -0.0236
     27 C23        -0.0513   -5.3296   -4.5316 C.ar      1 <0>        -0.0361
     28 C24        -1.2066   -4.6070   -4.2981 C.ar      1 <0>        -0.0343
     29 N1          0.4319   -5.5254   -5.9169 N.pl3     1 <0>         0.0165
     30 O4          1.4477   -6.1652   -6.1229 O.2       1 <0>        -0.1333
     31 O5         -0.1863   -5.0468   -6.8509 O.3       1 <0>        -0.1446
     32 H2         -3.9238    4.1075    5.4057 H         1 <0>         0.0597
     33 H3         -4.9568    5.4961    5.8216 H         1 <0>         0.1084
     34 H4         -5.2182    4.6179    4.2956 H         1 <0>         0.0593
     35 H5         -3.7532    3.3920    3.4521 H         1 <0>         0.1434
     36 H6         -0.5371    6.2358    1.0104 H         1 <0>         0.1440
     37 H7          0.1658    7.7197    2.2988 H         1 <0>         0.0581
     38 H8         -1.1280    8.2296    1.1877 H         1 <0>         0.0579
     39 H9         -0.7629    9.2008    2.6341 H         1 <0>         0.1081
     40 H10        -2.0728    1.3597    1.9941 H         1 <0>         0.0929
     41 H11        -3.3719    1.8708    0.8791 H         1 <0>         0.0933
     42 H12        -2.9564    2.4715   -1.3308 H         1 <0>         0.0839
     43 H13        -1.4054    1.9994   -2.0655 H         1 <0>         0.0828
     44 H14        -3.1407    0.1522   -0.3668 H         1 <0>         0.0962
     45 H15        -0.6954   -0.3230   -2.1330 H         1 <0>         0.0906
     46 H16        -0.7382   -0.4075   -0.3549 H         1 <0>         0.1148
     47 H17        -2.3817   -2.2531   -0.4761 H         1 <0>         0.1342
     48 H18        -0.9031   -2.6694   -1.3753 H         1 <0>         0.1251
     49 H19        -4.3763   -1.6182   -1.6743 H         1 <0>         0.1336
     50 H20        -4.3626   -1.5685   -3.4534 H         1 <0>         0.1319
     51 H21        -4.2757    0.7185   -2.4826 H         1 <0>         0.1165
     52 H22        -2.7929    0.3452   -3.3945 H         1 <0>         0.0909
     53 H23        -3.4012   -4.0035   -1.8498 H         1 <0>         0.1467
     54 H24        -3.5864   -3.7343   -3.5995 H         1 <0>         0.1432
     55 H25        -1.3071   -4.8223   -0.9334 H         1 <0>         0.1526
     56 H26         0.7467   -6.1149   -1.3497 H         1 <0>         0.1625
     57 H27         1.5509   -6.4400   -3.6545 H         1 <0>         0.1673
     58 H28        -1.7568   -4.1858   -5.1265 H         1 <0>         0.1621
     59 N2         -2.5538   -2.2047   -2.5912 N.4       1 <0>        -0.3957
     60 H29        -1.9804   -1.9144   -3.3919 H         1 <0>         0.4273
@<TRIPOS>BOND
     1    1    2 1
     2    1   32 1
     3    1   33 1
     4    1   34 1
     5    2    3 1
     6    3    8 ar
     7    3    4 ar
     8    4    5 ar
     9    4   35 1
    10    5   15 1
    11    5    6 ar
    12    6    7 ar
    13    6   11 1
    14    7    8 ar
    15    7   36 1
    16    8    9 1
    17    9   10 1
    18   10   37 1
    19   10   38 1
    20   10   39 1
    21   11   12 2
    22   11   13 1
    23   13   14 1
    24   13   15 1
    25   13   16 1
    26   15   40 1
    27   15   41 1
    28   16   17 1
    29   16   42 1
    30   16   43 1
    31   17   21 1
    32   17   18 1
    33   17   44 1
    34   18   19 1
    35   18   45 1
    36   18   46 1
    37   19   47 1
    38   19   48 1
    39   19   59 1
    40   20   21 1
    41   20   49 1
    42   20   50 1
    43   20   59 1
    44   21   51 1
    45   21   52 1
    46   22   23 1
    47   22   53 1
    48   22   54 1
    49   22   59 1
    50   23   28 ar
    51   23   24 ar
    52   24   25 ar
    53   24   55 1
    54   25   26 ar
    55   25   56 1
    56   26   27 ar
    57   26   57 1
    58   27   28 ar
    59   27   29 1
    60   28   58 1
    61   29   30 2
    62   29   31 1
    63   59   60 1
@<TRIPOS>MOLECULE
ZINC03795925
   30    32     0     0     0
SMALL
USER_CHARGES

@<TRIPOS>ATOM
      1 C1         -2.2590   -4.1734    0.7266 C.ar      1 <0>        -0.1151
      2 C2         -1.1015   -4.8453    0.3414 C.ar      1 <0>        -0.0282
      3 C3          0.0181   -4.1626   -0.0240 C.ar      1 <0>        -0.1547
      4 C4          0.0125   -2.7569   -0.0146 C.ar      1 <0>         0.1855
      5 C5         -1.1660   -2.0778    0.3770 C.ar      1 <0>        -0.1377
      6 C6         -2.3011   -2.8116    0.7474 C.ar      1 <0>        -0.0565
      7 C7         -1.1623   -0.6653    0.3817 C.ar      1 <0>         0.3675
      8 C8          0.0021   -0.0041    0.0020 C.ar      1 <0>        -0.2105
      9 C9          1.1175   -0.7361   -0.3646 C.ar      1 <0>         0.2712
     10 C10         2.4120   -0.0754   -0.7701 C.3       1 <0>        -0.1168
     11 C11         2.1762    1.3865   -1.1417 C.3       1 <0>        -0.1213
     12 C12         1.4039    2.0583   -0.0003 C.3       1 <0>        -0.1267
     13 C13        -0.0183    1.5015    0.0103 C.3       1 <0>        -0.0727
     14 N1         -2.2920    0.0458    0.7563 N.pl3     1 <0>        -0.7940
     15 H1         -3.1340   -4.7385    1.0119 H         1 <0>         0.1511
     16 H2         -1.0919   -5.9252    0.3327 H         1 <0>         0.1529
     17 H3          0.9072   -4.6991   -0.3207 H         1 <0>         0.1539
     18 H4         -3.2041   -2.3007    1.0473 H         1 <0>         0.1465
     19 H5          3.1167   -0.1260    0.0600 H         1 <0>         0.1184
     20 H6          2.8304   -0.6013   -1.6283 H         1 <0>         0.1086
     21 H7          3.1338    1.8881   -1.2812 H         1 <0>         0.0939
     22 H8          1.5929    1.4414   -2.0609 H         1 <0>         0.0797
     23 H9          1.3752    3.1361   -0.1607 H         1 <0>         0.0897
     24 H10         1.8906    1.8408    0.9505 H         1 <0>         0.0760
     25 H11        -0.5506    1.8586   -0.8713 H         1 <0>         0.0921
     26 H12        -0.5337    1.8490    0.9057 H         1 <0>         0.0852
     27 H13        -2.2768    1.0157    0.7558 H         1 <0>         0.4265
     28 H14        -3.0975   -0.4265    1.0190 H         1 <0>         0.4221
     29 N2          1.1637   -2.1007   -0.3898 N.ar      1 <0>        -0.5514
     30 H15         2.0097   -2.6092   -0.6727 H         1 <0>         0.4649
@<TRIPOS>BOND
     1    1    6 ar
     2    1    2 ar
     3    1   15 1
     4    2    3 ar
     5    2   16 1
     6    3    4 ar
     7    3   17 1
     8    4    5 ar
     9    4   29 ar
    10    5    6 ar
    11    5    7 ar
    12    6   18 1
    13    7    8 ar
    14    7   14 1
    15    8   13 1
    16    8    9 ar
    17    9   10 1
    18    9   29 ar
    19   10   11 1
    20   10   19 1
    21   10   20 1
    22   11   12 1
    23   11   21 1
    24   11   22 1
    25   12   13 1
    26   12   23 1
    27   12   24 1
    28   13   25 1
    29   13   26 1
    30   14   27 1
    31   14   28 1
    32   29   30 1
@<TRIPOS>MOLECULE
ZINC03814201
   68    69     0     0     0
SMALL
USER_CHARGES

@<TRIPOS>ATOM
      1 C1         -4.1017    3.0607    4.3930 C.3       1 <0>        -0.0467
      2 N1         -2.6669    2.9146    4.6724 N.4       1 <0>        -0.2060
      3 C2         -2.4759    1.9434    5.7579 C.3       1 <0>        -0.0448
      4 C3         -2.1114    4.2137    5.0743 C.3       1 <0>         0.0267
      5 C4         -2.8175    4.7002    6.3136 C.2       1 <0>        -0.2356
      6 C5         -2.1258    5.0150    7.3806 C.2       1 <0>        -0.1017
      7 C6         -2.0119    2.4632    3.5227 C.ar      1 <0>        -0.0455
      8 C7         -2.3665    1.2538    2.9550 C.ar      1 <0>        -0.0861
      9 C8         -1.7194    0.8079    1.8177 C.ar      1 <0>        -0.0941
     10 C9         -0.7181    1.5718    1.2479 C.ar      1 <0>        -0.0364
     11 C10        -0.3599    2.7788    1.8186 C.ar      1 <0>        -0.0947
     12 C11        -1.0099    3.2267    2.9534 C.ar      1 <0>        -0.0943
     13 C12        -0.0127    1.0858    0.0080 C.3       1 <0>        -0.0890
     14 C13        -0.7527    1.5927   -1.2315 C.3       1 <0>        -0.1568
     15 C14        -0.0473    1.1066   -2.4714 C.2       1 <0>         0.3522
     16 O1          0.9449    0.4252   -2.3737 O.2       1 <0>        -0.4366
     17 C15        -0.5801    1.4710   -3.8332 C.3       1 <0>        -0.1569
     18 C16         0.3136    0.8558   -4.9119 C.3       1 <0>        -0.0890
     19 C17        -0.2192    1.2202   -6.2736 C.ar      1 <0>        -0.0364
     20 C18        -1.1371    0.3976   -6.8995 C.ar      1 <0>        -0.0948
     21 C19        -1.6291    0.7341   -8.1467 C.ar      1 <0>        -0.0942
     22 C20        -1.1963    1.8884   -8.7720 C.ar      1 <0>        -0.0455
     23 C21        -0.2745    2.7083   -8.1485 C.ar      1 <0>        -0.0862
     24 C22         0.2143    2.3741   -6.8994 C.ar      1 <0>        -0.0941
     25 N2         -1.6913    2.2269  -10.0349 N.4       1 <0>        -0.2060
     26 C23        -2.3663    3.5297   -9.9632 C.3       1 <0>        -0.0467
     27 C24        -0.5797    2.3034  -10.9922 C.3       1 <0>        -0.0447
     28 C25        -2.6481    1.2034  -10.4763 C.3       1 <0>         0.0266
     29 C26        -3.1817    1.5683  -11.8376 C.2       1 <0>        -0.2356
     30 C27        -3.0895    0.7152  -12.8275 C.2       1 <0>        -0.1017
     31 H1         -4.5138    2.0967    4.0948 H         1 <0>         0.1204
     32 H2         -4.6124    3.4126    5.2894 H         1 <0>         0.1278
     33 H3         -4.2434    3.7813    3.5875 H         1 <0>         0.1214
     34 H4         -1.4113    1.8349    5.9652 H         1 <0>         0.1211
     35 H5         -2.9866    2.2953    6.6543 H         1 <0>         0.1274
     36 H6         -2.8880    0.9794    5.4597 H         1 <0>         0.1207
     37 H7         -1.0469    4.1053    5.2816 H         1 <0>         0.1304
     38 H8         -2.2532    4.9343    4.2688 H         1 <0>         0.1345
     39 H9         -3.8938    4.7894    6.3220 H         1 <0>         0.1355
     40 H10        -1.0496    4.9258    7.3722 H         1 <0>         0.1116
     41 H11        -2.6319    5.3636    8.2688 H         1 <0>         0.1254
     42 H12        -3.1493    0.6573    3.3998 H         1 <0>         0.1444
     43 H13        -1.9965   -0.1370    1.3742 H         1 <0>         0.1476
     44 H14         0.4255    3.3735    1.3760 H         1 <0>         0.1480
     45 H15        -0.7331    4.1718    3.3968 H         1 <0>         0.1493
     46 H16         0.0021   -0.0041    0.0020 H         1 <0>         0.0924
     47 H17         1.0099    1.4631    0.0003 H         1 <0>         0.0928
     48 H18        -1.6909    1.2466   -1.2244 H         1 <0>         0.0930
     49 H19        -0.7675    2.6825   -1.2255 H         1 <0>         0.1036
     50 H20        -1.5112    1.1199   -3.9317 H         1 <0>         0.0929
     51 H21        -0.5873    2.5555   -3.9423 H         1 <0>         0.1037
     52 H22         1.3286    1.2385   -4.8045 H         1 <0>         0.0929
     53 H23         0.3208   -0.2287   -4.8027 H         1 <0>         0.0923
     54 H24        -1.4724   -0.5062   -6.4125 H         1 <0>         0.1476
     55 H25        -2.3496    0.0937   -8.6337 H         1 <0>         0.1493
     56 H26         0.0637    3.6102   -8.6370 H         1 <0>         0.1445
     57 H27         0.9346    3.0146   -6.4122 H         1 <0>         0.1480
     58 H28        -1.6564    4.2892   -9.6357 H         1 <0>         0.1205
     59 H29        -2.7522    3.7936  -10.9478 H         1 <0>         0.1278
     60 H30        -3.1911    3.4730   -9.2529 H         1 <0>         0.1214
     61 H31        -0.0789    1.3368  -11.0454 H         1 <0>         0.1211
     62 H32        -0.9656    2.5674  -11.9768 H         1 <0>         0.1274
     63 H33         0.1302    3.0629  -10.6646 H         1 <0>         0.1207
     64 H34        -2.1473    0.2367  -10.5295 H         1 <0>         0.1304
     65 H35        -3.4729    1.1466   -9.7660 H         1 <0>         0.1344
     66 H36        -3.6400    2.5331  -11.9971 H         1 <0>         0.1355
     67 H37        -2.6312   -0.2496  -12.6680 H         1 <0>         0.1116
     68 H38        -3.4719    0.9767  -13.8031 H         1 <0>         0.1254
@<TRIPOS>BOND
     1    1    2 1
     2    1   31 1
     3    1   32 1
     4    1   33 1
     5    2    3 1
     6    2    4 1
     7    2    7 1
     8    3   34 1
     9    3   35 1
    10    3   36 1
    11    4    5 1
    12    4   37 1
    13    4   38 1
    14    5    6 2
    15    5   39 1
    16    6   40 1
    17    6   41 1
    18    7   12 ar
    19    7    8 ar
    20    8    9 ar
    21    8   42 1
    22    9   10 ar
    23    9   43 1
    24   10   11 ar
    25   10   13 1
    26   11   12 ar
    27   11   44 1
    28   12   45 1
    29   13   14 1
    30   13   46 1
    31   13   47 1
    32   14   15 1
    33   14   48 1
    34   14   49 1
    35   15   16 2
    36   15   17 1
    37   17   18 1
    38   17   50 1
    39   17   51 1
    40   18   19 1
    41   18   52 1
    42   18   53 1
    43   19   24 ar
    44   19   20 ar
    45   20   21 ar
    46   20   54 1
    47   21   22 ar
    48   21   55 1
    49   22   23 ar
    50   22   25 1
    51   23   24 ar
    52   23   56 1
    53   24   57 1
    54   25   26 1
    55   25   27 1
    56   25   28 1
    57   26   58 1
    58   26   59 1
    59   26   60 1
    60   27   61 1
    61   27   62 1
    62   27   63 1
    63   28   29 1
    64   28   64 1
    65   28   65 1
    66   29   30 2
    67   29   66 1
    68   30   67 1
    69   30   68 1
@<TRIPOS>MOLECULE
ZINC03814203
   42    44     0     0     0
SMALL
USER_CHARGES

@<TRIPOS>ATOM
      1 C1          0.4253   -6.8929   -3.7568 C.3       1 <0>        -0.1324
      2 C2          1.7599   -6.2584   -3.3606 C.3       1 <0>        -0.0230
      3 C3          2.4105   -6.9152   -2.1262 C.3       1 <0>        -0.1452
      4 C4          3.8142   -7.3549   -2.5927 C.3       1 <0>        -0.0010
      5 C5          2.8390   -6.3564   -4.4767 C.3       1 <0>         0.1914
      6 H1          2.6646   -7.1793   -5.1699 H         1 <0>         0.1894
      7 N1          2.7591   -5.0323   -5.1240 N.pl3     1 <0>        -0.4501
      8 C6          2.2764   -4.1131   -4.1819 C.ar      1 <0>         0.0599
      9 C7          1.6578   -4.7650   -3.1229 C.ar      1 <0>        -0.1286
     10 C8          1.0945   -4.0444   -2.0903 C.ar      1 <0>        -0.0678
     11 C9          1.1495   -2.6581   -2.0993 C.ar      1 <0>         0.1096
     12 C10         1.7666   -2.0003   -3.1527 C.ar      1 <0>        -0.0774
     13 C11         2.3312   -2.7204   -4.1847 C.ar      1 <0>        -0.0967
     14 O1          0.5952   -1.9465   -1.0812 O.3       1 <0>        -0.3046
     15 C12        -0.5908   -1.3563   -1.3227 C.2       1 <0>         0.6415
     16 O2         -1.0742   -1.3973   -2.4368 O.2       1 <0>        -0.5491
     17 N2         -1.2416   -0.7200   -0.3287 N.am      1 <0>        -0.7035
     18 C13        -2.5319   -0.0779   -0.5914 C.3       1 <0>         0.0999
     19 C14         4.0709   -4.6182   -5.6393 C.3       1 <0>        -0.0151
     20 C15         5.1684   -7.0487   -4.5927 C.3       1 <0>        -0.0509
     21 H2          0.0556   -6.4225   -4.6679 H         1 <0>         0.0797
     22 H3          0.5674   -7.9596   -3.9306 H         1 <0>         0.0774
     23 H4         -0.2980   -6.7488   -2.9542 H         1 <0>         0.0826
     24 H5          2.4911   -6.1941   -1.3128 H         1 <0>         0.1054
     25 H6          1.8285   -7.7800   -1.8075 H         1 <0>         0.1206
     26 H7          4.5424   -7.2109   -1.7946 H         1 <0>         0.1405
     27 H8          3.8001   -8.3976   -2.9098 H         1 <0>         0.1390
     28 H9          0.6105   -4.5598   -1.2739 H         1 <0>         0.1415
     29 H10         1.8087   -0.9211   -3.1630 H         1 <0>         0.1454
     30 H11         2.8139   -2.2028   -5.0005 H         1 <0>         0.1417
     31 H12        -0.8558   -0.6873    0.5606 H         1 <0>         0.4131
     32 H13        -2.4075    0.6878   -1.3571 H         1 <0>         0.0687
     33 H14        -3.2459   -0.8252   -0.9376 H         1 <0>         0.0681
     34 H15        -2.9024    0.3815    0.3250 H         1 <0>         0.0921
     35 H16         4.8059   -4.6571   -4.8353 H         1 <0>         0.0397
     36 H17         4.3746   -5.2902   -6.4420 H         1 <0>         0.1028
     37 H18         4.0057   -3.6000   -6.0230 H         1 <0>         0.1093
     38 H19         5.2596   -6.4642   -5.5082 H         1 <0>         0.1279
     39 H20         6.1187   -7.0386   -4.0589 H         1 <0>         0.1287
     40 H21         4.9029   -8.0760   -4.8424 H         1 <0>         0.1258
     41 N3          4.0891   -6.4720   -3.7313 N.4       1 <0>        -0.4221
     42 H22         4.3836   -5.5475   -3.3956 H         1 <0>         0.4259
@<TRIPOS>BOND
     1    1    2 1
     2    1   21 1
     3    1   22 1
     4    1   23 1
     5    2    5 1
     6    2    9 1
     7    2    3 1
     8    3    4 1
     9    3   24 1
    10    3   25 1
    11    4   26 1
    12    4   27 1
    13    4   41 1
    14    5    6 1
    15    5    7 1
    16    5   41 1
    17    7    8 1
    18    7   19 1
    19    8   13 ar
    20    8    9 ar
    21    9   10 ar
    22   10   11 ar
    23   10   28 1
    24   11   12 ar
    25   11   14 1
    26   12   13 ar
    27   12   29 1
    28   13   30 1
    29   14   15 1
    30   15   16 2
    31   15   17 am
    32   17   18 1
    33   17   31 1
    34   18   32 1
    35   18   33 1
    36   18   34 1
    37   19   35 1
    38   19   36 1
    39   19   37 1
    40   20   38 1
    41   20   39 1
    42   20   40 1
    43   20   41 1
    44   41   42 1
@<TRIPOS>MOLECULE
ZINC03814205
   33    33     0     0     0
SMALL
USER_CHARGES

@<TRIPOS>ATOM
      1 C1          4.8102   -8.3262   -0.7512 C.3       1 <0>        -0.1535
      2 C2          4.9990   -6.8122   -0.6370 C.3       1 <0>        -0.1216
      3 C3          3.6329   -6.1367   -0.5010 C.3       1 <0>        -0.1331
      4 C4          3.8217   -4.6227   -0.3867 C.3       1 <0>         0.1340
      5 N1          2.5137   -3.9759   -0.2565 N.am      1 <0>        -0.7068
      6 C5          2.4332   -2.6356   -0.1408 C.2       1 <0>         0.6392
      7 O1          3.4456   -1.9635   -0.1446 O.2       1 <0>        -0.5531
      8 O2          1.2309   -2.0411   -0.0211 O.3       1 <0>        -0.3011
      9 C6          1.2104   -0.6812   -0.0337 C.ar      1 <0>         0.0630
     10 C7          1.4909    0.0057   -1.2055 C.ar      1 <0>        -0.0778
     11 C8          1.4702    1.3867   -1.2184 C.ar      1 <0>        -0.1361
     12 C9          1.1684    2.0866   -0.0594 C.ar      1 <0>         0.1335
     13 C10         0.8875    1.3995    1.1124 C.ar      1 <0>        -0.1947
     14 C11         0.9087    0.0185    1.1252 C.ar      1 <0>        -0.0728
     15 O3          1.1485    3.4460   -0.0719 O.3       1 <0>        -0.3138
     16 C12         0.8299    4.1015    1.1573 C.3       1 <0>         0.0245
     17 H1          4.2045   -8.5516   -1.6289 H         1 <0>         0.0553
     18 H2          5.7834   -8.8074   -0.8481 H         1 <0>         0.0576
     19 H3          4.3083   -8.6981    0.1420 H         1 <0>         0.0552
     20 H4          5.5009   -6.4402   -1.5302 H         1 <0>         0.0669
     21 H5          5.6048   -6.5867    0.2407 H         1 <0>         0.0668
     22 H6          3.1310   -6.5087    0.3922 H         1 <0>         0.0726
     23 H7          3.0272   -6.3621   -1.3786 H         1 <0>         0.0728
     24 H8          4.3236   -4.2507   -1.2799 H         1 <0>         0.0733
     25 H9          4.4275   -4.3973    0.4910 H         1 <0>         0.0730
     26 H10         1.7055   -4.5124   -0.2535 H         1 <0>         0.4089
     27 H11         1.7258   -0.5392   -2.1079 H         1 <0>         0.1347
     28 H12         1.6932    1.9217   -2.1297 H         1 <0>         0.1404
     29 H13         0.6530    1.9444    2.0149 H         1 <0>         0.1385
     30 H14         0.6900   -0.5164    2.0376 H         1 <0>         0.1354
     31 H15         0.8487    5.1811    1.0089 H         1 <0>         0.1033
     32 H16        -0.1642    3.7969    1.4845 H         1 <0>         0.0580
     33 H17         1.5623    3.8263    1.9163 H         1 <0>         0.0579
@<TRIPOS>BOND
     1    1    2 1
     2    1   17 1
     3    1   18 1
     4    1   19 1
     5    2    3 1
     6    2   20 1
     7    2   21 1
     8    3    4 1
     9    3   22 1
    10    3   23 1
    11    4    5 1
    12    4   24 1
    13    4   25 1
    14    5    6 am
    15    5   26 1
    16    6    7 2
    17    6    8 1
    18    8    9 1
    19    9   14 ar
    20    9   10 ar
    21   10   11 ar
    22   10   27 1
    23   11   12 ar
    24   11   28 1
    25   12   13 ar
    26   12   15 1
    27   13   14 ar
    28   13   29 1
    29   14   30 1
    30   15   16 1
    31   16   31 1
    32   16   32 1
    33   16   33 1
@<TRIPOS>MOLECULE
ZINC03814206
   63    66     0     0     0
SMALL
USER_CHARGES

@<TRIPOS>ATOM
      1 C1          8.2060   -0.8569    5.0908 C.3       1 <0>        -0.1909
      2 C2          7.9224   -0.6099    3.6078 C.3       1 <0>        -0.0145
      3 N1          6.5397   -0.1415    3.4450 N.4       1 <0>        -0.2657
      4 C3          5.6139   -1.1605    3.9573 C.3       1 <0>        -0.0572
      5 C4          6.3549    1.1088    4.1937 C.3       1 <0>        -0.0240
      6 C5          7.2827    2.1850    3.6264 C.3       1 <0>        -0.1900
      7 C6          6.2675    0.0957    2.0210 C.3       1 <0>        -0.0073
      8 C7          4.8485    0.6440    1.8575 C.3       1 <0>        -0.1742
      9 C8          4.5702    0.9049    0.3758 C.3       1 <0>         0.0345
     10 N2          3.2548    1.5330    0.2292 N.ar      1 <0>        -0.3396
     11 C9          3.1751    2.8699    0.3090 C.ar      1 <0>         0.0617
     12 C10         4.3329    3.6345    0.5286 C.ar      1 <0>        -0.1252
     13 C11         4.2468    4.9925    0.6094 C.ar      1 <0>        -0.0727
     14 C12         3.0243    5.6403    0.4770 C.ar      1 <0>        -0.0742
     15 C13         1.8789    4.9271    0.2628 C.ar      1 <0>        -0.0852
     16 C14         1.9349    3.5355    0.1758 C.ar      1 <0>        -0.0117
     17 C15         0.7265    2.7360   -0.0539 C.ar      1 <0>        -0.0390
     18 C16        -0.5345    3.3123   -0.1962 C.ar      1 <0>        -0.0619
     19 C17        -1.6235    2.5161   -0.4075 C.ar      1 <0>        -0.1087
     20 C18        -1.4886    1.1287   -0.4881 C.ar      1 <0>         0.2442
     21 C19        -0.2491    0.5322   -0.3449 C.ar      1 <0>        -0.1600
     22 C20         0.8743    1.3313   -0.1285 C.ar      1 <0>        -0.0545
     23 C21         2.2142    0.7593    0.0260 C.ar      1 <0>         0.3359
     24 C22         2.3965   -0.7082   -0.0475 C.ar      1 <0>        -0.1345
     25 C23         3.2303   -1.2626   -1.0188 C.ar      1 <0>        -0.0921
     26 C24         3.4001   -2.6306   -1.0788 C.ar      1 <0>        -0.1067
     27 C25         2.7366   -3.4527   -0.1854 C.ar      1 <0>        -0.0697
     28 C26         1.9043   -2.9092    0.7768 C.ar      1 <0>        -0.1094
     29 C27         1.7306   -1.5425    0.8507 C.ar      1 <0>        -0.0712
     30 N3         -2.6162    0.3360   -0.7106 N.pl3     1 <0>        -0.8515
     31 H1          7.5191   -1.6130    5.4710 H         1 <0>         0.0831
     32 H2          9.2320   -1.2045    5.2116 H         1 <0>         0.1103
     33 H3          8.0688    0.0708    5.6464 H         1 <0>         0.0823
     34 H4          8.0596   -1.5376    3.0522 H         1 <0>         0.1316
     35 H5          8.6093    0.1462    3.2276 H         1 <0>         0.1327
     36 H6          5.7511   -2.0882    3.4018 H         1 <0>         0.1263
     37 H7          5.8159   -1.3365    5.0139 H         1 <0>         0.1313
     38 H8          4.5879   -0.8129    3.8365 H         1 <0>         0.1178
     39 H9          5.3194    1.4371    4.1028 H         1 <0>         0.1252
     40 H10         6.5921    0.9416    5.2443 H         1 <0>         0.1381
     41 H11         7.2066    3.0871    4.2333 H         1 <0>         0.1096
     42 H12         8.3107    1.8229    3.6410 H         1 <0>         0.0867
     43 H13         6.9918    2.4115    2.6006 H         1 <0>         0.0752
     44 H14         6.3603   -0.8415    1.4723 H         1 <0>         0.1386
     45 H15         6.9836    0.8183    1.6296 H         1 <0>         0.1389
     46 H16         4.7526    1.5759    2.4147 H         1 <0>         0.1072
     47 H17         4.1318   -0.0830    2.2393 H         1 <0>         0.1064
     48 H18         4.5845   -0.0395   -0.1684 H         1 <0>         0.1422
     49 H19         5.3362    1.5678   -0.0266 H         1 <0>         0.1355
     50 H20         5.2908    3.1466    0.6329 H         1 <0>         0.1419
     51 H21         5.1414    5.5734    0.7783 H         1 <0>         0.1517
     52 H22         2.9794    6.7173    0.5437 H         1 <0>         0.1535
     53 H23         0.9332    5.4387    0.1615 H         1 <0>         0.1556
     54 H24        -0.6498    4.3847   -0.1400 H         1 <0>         0.1550
     55 H25        -2.5997    2.9649   -0.5171 H         1 <0>         0.1534
     56 H26        -0.1509   -0.5416   -0.4044 H         1 <0>         0.1482
     57 H27         3.7452   -0.6222   -1.7196 H         1 <0>         0.1359
     58 H28         4.0488   -3.0608   -1.8275 H         1 <0>         0.1460
     59 H29         2.8693   -4.5232   -0.2392 H         1 <0>         0.1443
     60 H30         1.3896   -3.5562    1.4718 H         1 <0>         0.1459
     61 H31         1.0809   -1.1194    1.6026 H         1 <0>         0.1394
     62 H32        -2.5281   -0.6285   -0.7641 H         1 <0>         0.4111
     63 H33        -3.4877    0.7497   -0.8117 H         1 <0>         0.4147
@<TRIPOS>BOND
     1    1    2 1
     2    1   31 1
     3    1   32 1
     4    1   33 1
     5    2    3 1
     6    2   34 1
     7    2   35 1
     8    3    4 1
     9    3    5 1
    10    3    7 1
    11    4   36 1
    12    4   37 1
    13    4   38 1
    14    5    6 1
    15    5   39 1
    16    5   40 1
    17    6   41 1
    18    6   42 1
    19    6   43 1
    20    7    8 1
    21    7   44 1
    22    7   45 1
    23    8    9 1
    24    8   46 1
    25    8   47 1
    26    9   10 1
    27    9   48 1
    28    9   49 1
    29   10   23 ar
    30   10   11 ar
    31   11   16 ar
    32   11   12 ar
    33   12   13 ar
    34   12   50 1
    35   13   14 ar
    36   13   51 1
    37   14   15 ar
    38   14   52 1
    39   15   16 ar
    40   15   53 1
    41   16   17 ar
    42   17   22 ar
    43   17   18 ar
    44   18   19 ar
    45   18   54 1
    46   19   20 ar
    47   19   55 1
    48   20   21 ar
    49   20   30 1
    50   21   22 ar
    51   21   56 1
    52   22   23 ar
    53   23   24 1
    54   24   29 ar
    55   24   25 ar
    56   25   26 ar
    57   25   57 1
    58   26   27 ar
    59   26   58 1
    60   27   28 ar
    61   27   59 1
    62   28   29 ar
    63   28   60 1
    64   29   61 1
    65   30   62 1
    66   30   63 1
@<TRIPOS>MOLECULE
ZINC03814207
   33    33     0     0     0
SMALL
USER_CHARGES

@<TRIPOS>ATOM
      1 C1          9.5700    4.0841    0.5926 C.3       1 <0>        -0.1535
      2 C2          8.3752    3.1339    0.4908 C.3       1 <0>        -0.1216
      3 C3          7.0836    3.9477    0.3892 C.3       1 <0>        -0.1331
      4 C4          5.8887    2.9975    0.2874 C.3       1 <0>         0.1338
      5 N1          4.6520    3.7768    0.1902 N.am      1 <0>        -0.7054
      6 C5          3.4647    3.1469    0.0905 C.2       1 <0>         0.6430
      7 O1          3.4200    1.9326    0.0813 O.2       1 <0>        -0.5497
      8 O2          2.3277    3.8633    0.0010 O.3       1 <0>        -0.3031
      9 C6          1.1583    3.1709    0.0286 C.ar      1 <0>         0.1432
     10 C7          0.3808    3.0751   -1.1171 C.ar      1 <0>        -0.1525
     11 C8         -0.8079    2.3716   -1.0898 C.ar      1 <0>        -0.0637
     12 C9         -1.2288    1.7668    0.0794 C.ar      1 <0>        -0.2052
     13 C10        -0.4525    1.8553    1.2260 C.ar      1 <0>         0.1444
     14 C11         0.7411    2.5604    1.2009 C.ar      1 <0>        -0.1550
     15 O3         -0.8644    1.2560    2.3740 O.3       1 <0>        -0.3144
     16 C12        -2.1039    0.5465    2.3269 C.3       1 <0>         0.0259
     17 H1          9.6079    4.7165   -0.2944 H         1 <0>         0.0553
     18 H2          9.4633    4.7084    1.4797 H         1 <0>         0.0553
     19 H3         10.4902    3.5043    0.6650 H         1 <0>         0.0576
     20 H4          8.3373    2.5014    1.3778 H         1 <0>         0.0669
     21 H5          8.4820    2.5096   -0.3963 H         1 <0>         0.0669
     22 H6          7.1215    4.5801   -0.4978 H         1 <0>         0.0729
     23 H7          6.9768    4.5720    1.2763 H         1 <0>         0.0730
     24 H8          5.8509    2.3651    1.1744 H         1 <0>         0.0738
     25 H9          5.9955    2.3732   -0.5996 H         1 <0>         0.0737
     26 H10         4.6877    4.7461    0.1975 H         1 <0>         0.4095
     27 H11         0.7055    3.5507   -2.0308 H         1 <0>         0.1347
     28 H12        -1.4113    2.2979   -1.9824 H         1 <0>         0.1373
     29 H13        -2.1608    1.2214    0.0995 H         1 <0>         0.1353
     30 H14         1.3450    2.6336    2.0933 H         1 <0>         0.1353
     31 H15        -2.9049    1.2324    2.0509 H         1 <0>         0.0581
     32 H16        -2.0380   -0.2515    1.5874 H         1 <0>         0.0582
     33 H17        -2.3145    0.1175    3.3066 H         1 <0>         0.1032
@<TRIPOS>BOND
     1    1    2 1
     2    1   17 1
     3    1   18 1
     4    1   19 1
     5    2    3 1
     6    2   20 1
     7    2   21 1
     8    3    4 1
     9    3   22 1
    10    3   23 1
    11    4    5 1
    12    4   24 1
    13    4   25 1
    14    5    6 am
    15    5   26 1
    16    6    7 2
    17    6    8 1
    18    8    9 1
    19    9   14 ar
    20    9   10 ar
    21   10   11 ar
    22   10   27 1
    23   11   12 ar
    24   11   28 1
    25   12   13 ar
    26   12   29 1
    27   13   14 ar
    28   13   15 1
    29   14   30 1
    30   15   16 1
    31   16   31 1
    32   16   32 1
    33   16   33 1
@<TRIPOS>MOLECULE
ZINC03814208
   29    29     0     0     0
SMALL
USER_CHARGES

@<TRIPOS>ATOM
      1 C1          4.5890    9.8212    0.6700 C.3       1 <0>        -0.1537
      2 C2          4.8144    8.3125    0.5522 C.3       1 <0>        -0.1216
      3 C3          3.4638    7.6020    0.4425 C.3       1 <0>        -0.1332
      4 C4          3.6893    6.0933    0.3248 C.3       1 <0>         0.1336
      5 N1          2.3961    5.4131    0.2197 N.am      1 <0>        -0.7047
      6 C5          2.3479    4.0710    0.1057 C.2       1 <0>         0.6422
      7 O1          3.3772    3.4252    0.0901 O.2       1 <0>        -0.5507
      8 O2          1.1591    3.4456    0.0090 O.3       1 <0>        -0.3037
      9 C6          1.1740    2.0862    0.0221 C.ar      1 <0>         0.1082
     10 C7          1.4943    1.4064    1.1880 C.ar      1 <0>        -0.1073
     11 C8          1.5084    0.0251    1.1995 C.ar      1 <0>        -0.0937
     12 C9          1.2032   -0.6803    0.0489 C.ar      1 <0>        -0.0329
     13 C10         0.8835   -0.0040   -1.1151 C.ar      1 <0>        -0.0949
     14 C11         0.8683    1.3773   -1.1304 C.ar      1 <0>        -0.1025
     15 Cl1         1.2222   -2.4162    0.0656 Cl        1 <0>        -0.0597
     16 H1          3.9945   10.0315    1.5591 H         1 <0>         0.0554
     17 H2          5.5511   10.3274    0.7482 H         1 <0>         0.0578
     18 H3          4.0606   10.1797   -0.2135 H         1 <0>         0.0554
     19 H4          5.3428    7.9541    1.4357 H         1 <0>         0.0670
     20 H5          5.4089    8.1023   -0.3369 H         1 <0>         0.0670
     21 H6          2.9355    7.9605   -0.4410 H         1 <0>         0.0731
     22 H7          2.8694    7.8123    1.3316 H         1 <0>         0.0730
     23 H8          4.2176    5.7349    1.2082 H         1 <0>         0.0741
     24 H9          4.2838    5.8831   -0.5643 H         1 <0>         0.0741
     25 H10         1.5745    5.9285    0.2321 H         1 <0>         0.4098
     26 H11         1.7282    1.9566    2.0875 H         1 <0>         0.1374
     27 H12         1.7581   -0.5045    2.1070 H         1 <0>         0.1430
     28 H13         0.6459   -0.5562   -2.0123 H         1 <0>         0.1448
     29 H14         0.6190    1.9049   -2.0392 H         1 <0>         0.1428
@<TRIPOS>BOND
     1    1    2 1
     2    1   16 1
     3    1   17 1
     4    1   18 1
     5    2    3 1
     6    2   19 1
     7    2   20 1
     8    3    4 1
     9    3   21 1
    10    3   22 1
    11    4    5 1
    12    4   23 1
    13    4   24 1
    14    5    6 am
    15    5   25 1
    16    6    7 2
    17    6    8 1
    18    8    9 1
    19    9   14 ar
    20    9   10 ar
    21   10   11 ar
    22   10   26 1
    23   11   12 ar
    24   11   27 1
    25   12   13 ar
    26   12   15 1
    27   13   14 ar
    28   13   28 1
    29   14   29 1
@<TRIPOS>MOLECULE
ZINC03814209
   29    29     0     0     0
SMALL
USER_CHARGES

@<TRIPOS>ATOM
      1 C1         -9.6249    0.8284    0.7127 C.3       1 <0>        -0.1536
      2 C2         -8.4319    1.7802    0.6043 C.3       1 <0>        -0.1216
      3 C3         -7.1417    0.9682    0.4749 C.3       1 <0>        -0.1332
      4 C4         -5.9487    1.9200    0.3666 C.3       1 <0>         0.1335
      5 N1         -4.7133    1.1424    0.2427 N.am      1 <0>        -0.7045
      6 C5         -3.5277    1.7740    0.1329 C.2       1 <0>         0.6419
      7 O1         -3.4835    2.9883    0.1367 O.2       1 <0>        -0.5496
      8 O2         -2.3920    1.0591    0.0191 O.3       1 <0>        -0.3022
      9 C6         -1.2224    1.7517    0.0373 C.ar      1 <0>         0.1169
     10 C7         -0.4616    1.8610   -1.1179 C.ar      1 <0>        -0.1110
     11 C8          0.7237    2.5700   -1.0990 C.ar      1 <0>        -0.0905
     12 C9          1.1557    3.1662    0.0714 C.ar      1 <0>        -0.1066
     13 C10         0.4021    3.0541    1.2263 C.ar      1 <0>        -0.0202
     14 C11        -0.7849    2.3449    1.2120 C.ar      1 <0>        -0.1134
     15 Cl1         0.9472    3.8038    2.6942 Cl        1 <0>        -0.0575
     16 H1         -9.5051    0.1942    1.5911 H         1 <0>         0.0554
     17 H2        -10.5441    1.4069    0.8048 H         1 <0>         0.0578
     18 H3         -9.6754    0.2059   -0.1807 H         1 <0>         0.0554
     19 H4         -8.3814    2.4027    1.4977 H         1 <0>         0.0670
     20 H5         -8.5517    2.4144   -0.2741 H         1 <0>         0.0670
     21 H6         -7.1922    0.3457   -0.4184 H         1 <0>         0.0731
     22 H7         -7.0219    0.3340    1.3534 H         1 <0>         0.0731
     23 H8         -5.8982    2.5425    1.2599 H         1 <0>         0.0742
     24 H9         -6.0685    2.5541   -0.5118 H         1 <0>         0.0742
     25 H10        -4.7486    0.1731    0.2397 H         1 <0>         0.4099
     26 H11        -0.7982    1.3956   -2.0325 H         1 <0>         0.1398
     27 H12         1.3134    2.6591   -1.9994 H         1 <0>         0.1449
     28 H13         2.0826    3.7204    0.0839 H         1 <0>         0.1417
     29 H14        -1.3730    2.2571    2.1136 H         1 <0>         0.1382
@<TRIPOS>BOND
     1    1    2 1
     2    1   16 1
     3    1   17 1
     4    1   18 1
     5    2    3 1
     6    2   19 1
     7    2   20 1
     8    3    4 1
     9    3   21 1
    10    3   22 1
    11    4    5 1
    12    4   23 1
    13    4   24 1
    14    5    6 am
    15    5   25 1
    16    6    7 2
    17    6    8 1
    18    8    9 1
    19    9   14 ar
    20    9   10 ar
    21   10   11 ar
    22   10   26 1
    23   11   12 ar
    24   11   27 1
    25   12   13 ar
    26   12   28 1
    27   13   14 ar
    28   13   15 1
    29   14   29 1
@<TRIPOS>MOLECULE
ZINC03814210
   32    32     0     0     0
SMALL
USER_CHARGES

@<TRIPOS>ATOM
      1 C1         -6.0570   -5.1818   -0.6588 C.3       1 <0>        -0.1537
      2 C2         -4.6502   -4.5896   -0.5542 C.3       1 <0>        -0.1216
      3 C3         -4.7456   -3.0679   -0.4265 C.3       1 <0>        -0.1334
      4 C4         -3.3387   -2.4757   -0.3219 C.3       1 <0>         0.1333
      5 N1         -3.4301   -1.0187   -0.1997 N.am      1 <0>        -0.7036
      6 C5         -2.3080   -0.2797   -0.0933 C.2       1 <0>         0.6419
      7 O1         -1.2206   -0.8220   -0.0987 O.2       1 <0>        -0.5500
      8 O2         -2.3920    1.0598    0.0191 O.3       1 <0>        -0.3014
      9 C6         -1.2242    1.7553   -0.0026 C.ar      1 <0>         0.1049
     10 C7         -0.4929    1.8488   -1.1779 C.ar      1 <0>        -0.0871
     11 C8          0.6904    2.5609   -1.1989 C.ar      1 <0>        -0.1020
     12 C9          1.1492    3.1757   -0.0483 C.ar      1 <0>        -0.0678
     13 C10         0.4250    3.0796    1.1254 C.ar      1 <0>        -0.1694
     14 C11        -0.7595    2.3687    1.1513 C.ar      1 <0>        -0.0661
     15 C12         0.9276    3.7511    2.3774 C.3       1 <0>         0.5117
     16 F1          2.1345    4.4037    2.1041 F         1 <0>        -0.1735
     17 F2         -0.0175    4.6838    2.8179 F         1 <0>        -0.1737
     18 F3          1.1325    2.7892    3.3724 F         1 <0>        -0.1733
     19 H1         -5.9891   -6.2659   -0.7497 H         1 <0>         0.0579
     20 H2         -6.6259   -4.9272    0.2355 H         1 <0>         0.0555
     21 H3         -6.5584   -4.7743   -1.5366 H         1 <0>         0.0554
     22 H4         -4.0813   -4.8443   -1.4484 H         1 <0>         0.0670
     23 H5         -4.1488   -4.9971    0.3237 H         1 <0>         0.0671
     24 H6         -5.3144   -2.8133    0.4677 H         1 <0>         0.0733
     25 H7         -5.2470   -2.6604   -1.3044 H         1 <0>         0.0732
     26 H8         -2.7699   -2.7304   -1.2162 H         1 <0>         0.0745
     27 H9         -2.8373   -2.8832    0.5559 H         1 <0>         0.0745
     28 H10        -4.2981   -0.5858   -0.1954 H         1 <0>         0.4103
     29 H11        -0.8508    1.3688   -2.0768 H         1 <0>         0.1385
     30 H12         1.2576    2.6380   -2.1147 H         1 <0>         0.1463
     31 H13         2.0747    3.7320   -0.0666 H         1 <0>         0.1471
     32 H14        -1.3250    2.2940    2.0684 H         1 <0>         0.1440
@<TRIPOS>BOND
     1    1    2 1
     2    1   19 1
     3    1   20 1
     4    1   21 1
     5    2    3 1
     6    2   22 1
     7    2   23 1
     8    3    4 1
     9    3   24 1
    10    3   25 1
    11    4    5 1
    12    4   26 1
    13    4   27 1
    14    5    6 am
    15    5   28 1
    16    6    7 2
    17    6    8 1
    18    8    9 1
    19    9   14 ar
    20    9   10 ar
    21   10   11 ar
    22   10   29 1
    23   11   12 ar
    24   11   30 1
    25   12   13 ar
    26   12   31 1
    27   13   14 ar
    28   13   15 1
    29   14   32 1
    30   15   16 1
    31   15   17 1
    32   15   18 1
@<TRIPOS>MOLECULE
ZINC03814211
   32    32     0     0     0
SMALL
USER_CHARGES

@<TRIPOS>ATOM
      1 C1          4.8263   -8.3177   -0.7478 C.3       1 <0>        -0.1538
      2 C2          5.0121   -6.8033   -0.6340 C.3       1 <0>        -0.1216
      3 C3          3.6447   -6.1304   -0.4985 C.3       1 <0>        -0.1334
      4 C4          3.8305   -4.6160   -0.3847 C.3       1 <0>         0.1333
      5 N1          2.5211   -3.9718   -0.2548 N.am      1 <0>        -0.7034
      6 C5          2.4380   -2.6315   -0.1396 C.2       1 <0>         0.6441
      7 O1          3.4491   -1.9575   -0.1434 O.2       1 <0>        -0.5490
      8 O2          1.2344   -2.0393   -0.0203 O.3       1 <0>        -0.3052
      9 C6          1.2113   -0.6802   -0.0333 C.ar      1 <0>         0.1385
     10 C7          1.4905    0.0083   -1.2048 C.ar      1 <0>        -0.1219
     11 C8          1.4660    1.3895   -1.2155 C.ar      1 <0>        -0.0523
     12 C9          1.1635    2.0857   -0.0599 C.ar      1 <0>        -0.1823
     13 C10         0.8849    1.4018    1.1090 C.ar      1 <0>        -0.0535
     14 C11         0.9081    0.0206    1.1249 C.ar      1 <0>        -0.1165
     15 C12         1.1379    3.5924   -0.0743 C.3       1 <0>         0.5104
     16 F1         -0.1494    4.0338   -0.3987 F         1 <0>        -0.1740
     17 F2          1.4923    4.0769    1.1893 F         1 <0>        -0.1747
     18 F3          2.0469    4.0652   -1.0269 F         1 <0>        -0.1747
     19 H1          4.3249   -8.6904    0.1454 H         1 <0>         0.0555
     20 H2          4.2211   -8.5446   -1.6256 H         1 <0>         0.0554
     21 H3          5.8004   -8.7970   -0.8444 H         1 <0>         0.0580
     22 H4          5.5134   -6.4306   -1.5273 H         1 <0>         0.0671
     23 H5          5.6172   -6.5764    0.2437 H         1 <0>         0.0671
     24 H6          3.1433   -6.5031    0.3948 H         1 <0>         0.0733
     25 H7          3.0395   -6.3573   -1.3762 H         1 <0>         0.0733
     26 H8          4.3318   -4.2434   -1.2779 H         1 <0>         0.0748
     27 H9          4.4356   -4.3892    0.4931 H         1 <0>         0.0747
     28 H10         1.7140   -4.5098   -0.2518 H         1 <0>         0.4104
     29 H11         1.7272   -0.5351   -2.1076 H         1 <0>         0.1408
     30 H12         1.6877    1.9260   -2.1263 H         1 <0>         0.1459
     31 H13         0.6489    1.9479    2.0105 H         1 <0>         0.1477
     32 H14         0.6900   -0.5131    2.0381 H         1 <0>         0.1461
@<TRIPOS>BOND
     1    1    2 1
     2    1   19 1
     3    1   20 1
     4    1   21 1
     5    2    3 1
     6    2   22 1
     7    2   23 1
     8    3    4 1
     9    3   24 1
    10    3   25 1
    11    4    5 1
    12    4   26 1
    13    4   27 1
    14    5    6 am
    15    5   28 1
    16    6    7 2
    17    6    8 1
    18    8    9 1
    19    9   14 ar
    20    9   10 ar
    21   10   11 ar
    22   10   29 1
    23   11   12 ar
    24   11   30 1
    25   12   13 ar
    26   12   15 1
    27   13   14 ar
    28   13   31 1
    29   14   32 1
    30   15   16 1
    31   15   17 1
    32   15   18 1
@<TRIPOS>MOLECULE
ZINC03814212
   26    28     0     0     0
SMALL
USER_CHARGES

@<TRIPOS>ATOM
      1 C1         -2.6070   -0.1954    0.0117 C.3       1 <0>        -0.1267
      2 C2         -2.4371    1.3020    0.0193 C.ar      1 <0>         0.0466
      3 C3         -1.1343    1.7732    0.0163 C.ar      1 <0>         0.0579
      4 C4         -0.6633    3.1043    0.0238 C.ar      1 <0>         0.1525
      5 C5         -1.3888    4.3060    0.0367 C.ar      1 <0>        -0.0513
      6 C6         -2.7414    4.4943    0.0375 C.ar      1 <0>        -0.0316
      7 C7         -3.7494    3.5216    0.0366 C.ar      1 <0>         0.1298
      8 N1         -5.0660    3.7581    0.0433 N.ar      1 <0>        -0.5690
      9 C8         -5.7063    2.5958    0.0399 C.ar      1 <0>         0.5089
     10 N2         -4.8602    1.5760    0.0310 N.ar      1 <0>        -0.5803
     11 C9         -3.6107    2.0593    0.0283 C.ar      1 <0>         0.0799
     12 N3         -7.0888    2.4648    0.0446 N.pl3     1 <0>        -0.8229
     13 N4          0.6829    3.0450    0.0111 N.2       1 <0>        -0.5463
     14 C10         1.0743    1.7916    0.0014 C.2       1 <0>         0.5610
     15 N5         -0.0111    0.9658    0.0074 N.pl3     1 <0>        -0.6195
     16 H1          0.0025   -0.0341    0.0057 H         1 <0>         0.4346
     17 N6          2.3833    1.3740   -0.0126 N.pl3     1 <0>        -0.8194
     18 H2         -2.6435   -0.5622    1.0374 H         1 <0>         0.0848
     19 H3         -3.5345   -0.4532   -0.4996 H         1 <0>         0.0955
     20 H4         -1.7659   -0.6538   -0.5084 H         1 <0>         0.0594
     21 H5         -0.7942    5.2076    0.0364 H         1 <0>         0.1449
     22 H6         -3.0757    5.5213    0.0443 H         1 <0>         0.1424
     23 H7         -7.4924    1.5828    0.0413 H         1 <0>         0.4117
     24 H8         -7.6509    3.2553    0.0511 H         1 <0>         0.4120
     25 H9          2.5899    0.4263   -0.0191 H         1 <0>         0.4148
     26 H10         3.1007    2.0269   -0.0160 H         1 <0>         0.4301
@<TRIPOS>BOND
     1    1    2 1
     2    1   18 1
     3    1   19 1
     4    1   20 1
     5    2   11 ar
     6    2    3 ar
     7    3   15 1
     8    3    4 ar
     9    4    5 ar
    10    4   13 1
    11    5    6 ar
    12    5   21 1
    13    6    7 ar
    14    6   22 1
    15    7   11 1
    16    7    8 ar
    17    8    9 ar
    18    9   10 ar
    19    9   12 1
    20   10   11 ar
    21   12   23 1
    22   12   24 1
    23   13   14 2
    24   14   15 1
    25   14   17 1
    26   15   16 1
    27   17   25 1
    28   17   26 1
@<TRIPOS>MOLECULE
ZINC03814212
   26    28     0     0     0
SMALL
USER_CHARGES

@<TRIPOS>ATOM
      1 C1         -2.6070   -0.1954    0.0117 C.3       1 <0>        -0.1267
      2 C2         -2.4371    1.3020    0.0193 C.ar      1 <0>         0.0466
      3 C3         -1.1343    1.7732    0.0163 C.ar      1 <0>         0.0579
      4 C4         -0.6633    3.1043    0.0238 C.ar      1 <0>         0.1525
      5 C5         -1.3888    4.3060    0.0367 C.ar      1 <0>        -0.0513
      6 C6         -2.7414    4.4943    0.0375 C.ar      1 <0>        -0.0316
      7 C7         -3.7494    3.5216    0.0366 C.ar      1 <0>         0.1298
      8 N1         -5.0660    3.7581    0.0433 N.ar      1 <0>        -0.5690
      9 C8         -5.7063    2.5958    0.0399 C.ar      1 <0>         0.5089
     10 N2         -4.8602    1.5760    0.0310 N.ar      1 <0>        -0.5803
     11 C9         -3.6107    2.0593    0.0283 C.ar      1 <0>         0.0799
     12 N3         -7.0888    2.4648    0.0446 N.pl3     1 <0>        -0.8229
     13 N4          0.6829    3.0450    0.0111 N.2       1 <0>        -0.5463
     14 C10         1.0743    1.7916    0.0014 C.2       1 <0>         0.5610
     15 N5         -0.0111    0.9658    0.0074 N.pl3     1 <0>        -0.6195
     16 H1          0.0025   -0.0341    0.0057 H         1 <0>         0.4346
     17 N6          2.3833    1.3740   -0.0126 N.pl3     1 <0>        -0.8194
     18 H2         -2.6435   -0.5622    1.0374 H         1 <0>         0.0848
     19 H3         -3.5345   -0.4532   -0.4996 H         1 <0>         0.0955
     20 H4         -1.7659   -0.6538   -0.5084 H         1 <0>         0.0594
     21 H5         -0.7942    5.2076    0.0364 H         1 <0>         0.1449
     22 H6         -3.0757    5.5213    0.0443 H         1 <0>         0.1424
     23 H7         -7.4924    1.5828    0.0413 H         1 <0>         0.4117
     24 H8         -7.6509    3.2553    0.0511 H         1 <0>         0.4120
     25 H9          2.5899    0.4263   -0.0191 H         1 <0>         0.4148
     26 H10         3.1007    2.0269   -0.0160 H         1 <0>         0.4301
@<TRIPOS>BOND
     1    1    2 1
     2    1   18 1
     3    1   19 1
     4    1   20 1
     5    2   11 ar
     6    2    3 ar
     7    3   15 1
     8    3    4 ar
     9    4    5 ar
    10    4   13 1
    11    5    6 ar
    12    5   21 1
    13    6    7 ar
    14    6   22 1
    15    7   11 1
    16    7    8 ar
    17    8    9 ar
    18    9   10 ar
    19    9   12 1
    20   10   11 ar
    21   12   23 1
    22   12   24 1
    23   13   14 2
    24   14   15 1
    25   14   17 1
    26   15   16 1
    27   17   25 1
    28   17   26 1
@<TRIPOS>MOLECULE
ZINC03814212
   27    29     0     0     0
SMALL
USER_CHARGES

@<TRIPOS>ATOM
      1 C1         -2.6070   -0.1954    0.0117 C.3       1 <0>        -0.1309
      2 C2         -2.4371    1.3020    0.0193 C.ar      1 <0>         0.0131
      3 C3         -1.1343    1.7732    0.0163 C.ar      1 <0>         0.1295
      4 C4         -0.6633    3.1043    0.0238 C.ar      1 <0>         0.1044
      5 C5         -1.3888    4.3060    0.0367 C.ar      1 <0>        -0.0583
      6 C6         -2.7414    4.4943    0.0375 C.ar      1 <0>        -0.0120
      7 C7         -3.7494    3.5216    0.0366 C.ar      1 <0>         0.1557
      8 N1         -5.0660    3.7581    0.0433 N.ar      1 <0>        -0.5454
      9 C8         -5.7063    2.5958    0.0399 C.ar      1 <0>         0.5478
     10 N2         -4.8602    1.5760    0.0310 N.ar      1 <0>        -0.5661
     11 C9         -3.6107    2.0593    0.0283 C.ar      1 <0>         0.1364
     12 N3         -7.0888    2.4648    0.0446 N.pl3     1 <0>        -0.7932
     13 C10         1.0743    1.7916    0.0014 C.cat     1 <0>         0.6492
     14 N4         -0.0111    0.9658    0.0074 N.pl3     1 <0>        -0.5735
     15 H1          0.0025   -0.0341    0.0057 H         1 <0>         0.4715
     16 N5          2.3833    1.3740   -0.0126 N.pl3     1 <0>        -0.7886
     17 H2         -2.6435   -0.5622    1.0374 H         1 <0>         0.0961
     18 H3         -3.5345   -0.4532   -0.4996 H         1 <0>         0.1060
     19 H4         -1.7659   -0.6538   -0.5084 H         1 <0>         0.0655
     20 H5         -0.7942    5.2076    0.0364 H         1 <0>         0.1589
     21 H6         -3.0757    5.5213    0.0443 H         1 <0>         0.1627
     22 H7         -7.4924    1.5828    0.0413 H         1 <0>         0.4238
     23 H8         -7.6509    3.2553    0.0511 H         1 <0>         0.4239
     24 H9          2.5899    0.4263   -0.0191 H         1 <0>         0.4443
     25 H10         3.1007    2.0269   -0.0160 H         1 <0>         0.4444
     26 N6          0.6844    3.0470    0.0111 N.pl3     1 <0>        -0.5442
     27 H11         1.3108    3.8606    0.0093 H         1 <0>         0.4789
@<TRIPOS>BOND
     1    1    2 1
     2    1   17 1
     3    1   18 1
     4    1   19 1
     5    2   11 ar
     6    2    3 ar
     7    3   14 1
     8    3    4 ar
     9    4    5 ar
    10    4   26 1
    11    5    6 ar
    12    5   20 1
    13    6    7 ar
    14    6   21 1
    15    7   11 1
    16    7    8 ar
    17    8    9 ar
    18    9   10 ar
    19    9   12 1
    20   10   11 ar
    21   12   22 1
    22   12   23 1
    23   13   14 1
    24   13   16 1
    25   13   26 2
    26   14   15 1
    27   16   24 1
    28   16   25 1
    29   26   27 1
@<TRIPOS>MOLECULE
ZINC03814213
   31    31     0     0     0
SMALL
USER_CHARGES

@<TRIPOS>ATOM
      1 C1          4.5928    9.8193    0.6699 C.3       1 <0>        -0.1539
      2 C2          4.8176    8.3105    0.5522 C.3       1 <0>        -0.1216
      3 C3          3.4666    7.6006    0.4424 C.3       1 <0>        -0.1335
      4 C4          3.6914    6.0918    0.3247 C.3       1 <0>         0.1324
      5 N1          2.3979    5.4121    0.2196 N.am      1 <0>        -0.7003
      6 C5          2.3491    4.0701    0.1057 C.2       1 <0>         0.6457
      7 O1          3.3781    3.4239    0.0901 O.2       1 <0>        -0.5473
      8 O2          1.1600    3.4453    0.0090 O.3       1 <0>        -0.3041
      9 C6          1.1742    2.0860    0.0221 C.ar      1 <0>         0.1612
     10 C7          1.4942    1.4057    1.1879 C.ar      1 <0>        -0.1211
     11 C8          1.5075    0.0244    1.1988 C.ar      1 <0>        -0.0358
     12 C9          1.2022   -0.6801    0.0489 C.ar      1 <0>        -0.0449
     13 C10         0.8829   -0.0044   -1.1144 C.ar      1 <0>        -0.0370
     14 C11         0.8682    1.3769   -1.1303 C.ar      1 <0>        -0.1151
     15 N2          1.2177   -2.1602    0.0631 N.pl3     1 <0>         0.0268
     16 O3          1.4992   -2.7564    1.0872 O.2       1 <0>        -0.1535
     17 O4          0.9489   -2.7817   -0.9492 O.3       1 <0>        -0.1529
     18 H1          4.0646   10.1780   -0.2135 H         1 <0>         0.0556
     19 H2          3.9984   10.0298    1.5590 H         1 <0>         0.0556
     20 H3          5.5552   10.3250    0.7481 H         1 <0>         0.0584
     21 H4          5.3457    7.9518    1.4357 H         1 <0>         0.0673
     22 H5          5.4119    8.1000   -0.3369 H         1 <0>         0.0673
     23 H6          2.9385    7.9593   -0.4410 H         1 <0>         0.0738
     24 H7          2.8723    7.8112    1.3315 H         1 <0>         0.0737
     25 H8          4.2196    5.7332    1.2082 H         1 <0>         0.0761
     26 H9          4.2858    5.8813   -0.5644 H         1 <0>         0.0759
     27 H10         1.5765    5.9280    0.2321 H         1 <0>         0.4116
     28 H11         1.7284    1.9555    2.0875 H         1 <0>         0.1529
     29 H12         1.7562   -0.5057    2.1063 H         1 <0>         0.1633
     30 H13         0.6451   -0.5569   -2.0114 H         1 <0>         0.1651
     31 H14         0.6184    1.9043   -2.0391 H         1 <0>         0.1584
@<TRIPOS>BOND
     1    1    2 1
     2    1   18 1
     3    1   19 1
     4    1   20 1
     5    2    3 1
     6    2   21 1
     7    2   22 1
     8    3    4 1
     9    3   23 1
    10    3   24 1
    11    4    5 1
    12    4   25 1
    13    4   26 1
    14    5    6 am
    15    5   27 1
    16    6    7 2
    17    6    8 1
    18    8    9 1
    19    9   14 ar
    20    9   10 ar
    21   10   11 ar
    22   10   28 1
    23   11   12 ar
    24   11   29 1
    25   12   13 ar
    26   12   15 1
    27   13   14 ar
    28   13   30 1
    29   14   31 1
    30   15   16 2
    31   15   17 1
@<TRIPOS>MOLECULE
ZINC03814214
   69    69     0     0     0
SMALL
USER_CHARGES

@<TRIPOS>ATOM
      1 C1          0.2565    3.2200   -1.2140 C.3       1 <0>        -0.0573
      2 N1         -1.1401    2.7728   -1.1281 N.4       1 <0>        -0.2728
      3 C2         -1.9098    3.3551   -2.2355 C.3       1 <0>        -0.0493
      4 C3         -1.7161    3.2089    0.1510 C.3       1 <0>        -0.0560
      5 C4         -1.1911    1.3072   -1.2137 C.3       1 <0>        -0.0032
      6 C5         -0.4687    0.7005   -0.0092 C.3       1 <0>         0.0224
      7 O1         -1.2787    0.8523    1.1582 O.3       1 <0>        -0.3252
      8 C6         -0.7790    0.3628    2.3244 C.ar      1 <0>         0.1432
      9 C7          0.4646   -0.2505    2.3437 C.ar      1 <0>        -0.2134
     10 C8          0.9736   -0.7480    3.5287 C.ar      1 <0>        -0.0188
     11 C9          0.2460   -0.6365    4.6987 C.ar      1 <0>        -0.2131
     12 C10        -0.9983   -0.0246    4.6879 C.ar      1 <0>         0.1501
     13 C11        -1.5114    0.4816    3.4996 C.ar      1 <0>         0.0231
     14 O2         -2.7299    1.0874    3.4858 O.3       1 <0>        -0.3113
     15 C12        -3.8660    0.2542    3.2466 C.3       1 <0>         0.0220
     16 C13        -5.1367    1.1060    3.2679 C.3       1 <0>        -0.0034
     17 N2         -5.1355    2.0162    2.1148 N.4       1 <0>        -0.2680
     18 C14        -4.9430    1.2428    0.8807 C.3       1 <0>        -0.0619
     19 C15        -6.4189    2.7280    2.0514 C.3       1 <0>        -0.0506
     20 C16        -4.0432    2.9879    2.2591 C.3       1 <0>        -0.0612
     21 O3         -1.7136    0.0841    5.8394 O.3       1 <0>        -0.3114
     22 C17        -1.1223   -0.4541    7.0238 C.3       1 <0>         0.0234
     23 C18        -2.0669   -0.2399    8.2081 C.3       1 <0>        -0.0016
     24 N3         -3.2667   -1.0694    8.0338 N.4       1 <0>        -0.2716
     25 C19        -2.8879   -2.4886    8.0536 C.3       1 <0>        -0.0556
     26 C20        -4.2114   -0.7995    9.1259 C.3       1 <0>        -0.0481
     27 C21        -3.9005   -0.7496    6.7478 C.3       1 <0>        -0.0472
     28 H1          0.6839    2.8964   -2.1631 H         1 <0>         0.1323
     29 H2          0.2944    4.3075   -1.1505 H         1 <0>         0.1317
     30 H3          0.8276    2.7879   -0.3923 H         1 <0>         0.1211
     31 H4         -2.9461    3.0233   -2.1717 H         1 <0>         0.1192
     32 H5         -1.8719    4.4426   -2.1720 H         1 <0>         0.1297
     33 H6         -1.4824    3.0315   -3.1846 H         1 <0>         0.1310
     34 H7         -1.0745    2.8811    0.9690 H         1 <0>         0.1315
     35 H8         -1.7930    4.2961    0.1630 H         1 <0>         0.1265
     36 H9         -2.7080    2.7731    0.2702 H         1 <0>         0.1062
     37 H10        -0.7041    0.9797   -2.1323 H         1 <0>         0.1591
     38 H11        -2.2307    0.9794   -1.2168 H         1 <0>         0.1371
     39 H12        -0.2872   -0.3590   -0.1902 H         1 <0>         0.1193
     40 H13         0.4824    1.2118    0.1394 H         1 <0>         0.0980
     41 H14         1.0360   -0.3399    1.4316 H         1 <0>         0.1455
     42 H15         1.9426   -1.2248    3.5404 H         1 <0>         0.1508
     43 H16         0.6470   -1.0268    5.6224 H         1 <0>         0.1463
     44 H17        -3.7663   -0.2254    2.2729 H         1 <0>         0.0843
     45 H18        -3.9269   -0.5087    4.0228 H         1 <0>         0.0939
     46 H19        -6.0105    0.4564    3.2170 H         1 <0>         0.1491
     47 H20        -5.1692    1.6872    4.1894 H         1 <0>         0.1401
     48 H21        -5.7534    0.5218    0.7736 H         1 <0>         0.1308
     49 H22        -4.9420    1.9182    0.0252 H         1 <0>         0.1210
     50 H23        -3.9906    0.7147    0.9278 H         1 <0>         0.1222
     51 H24        -6.5618    3.3018    2.9670 H         1 <0>         0.1271
     52 H25        -6.4180    3.4033    1.1958 H         1 <0>         0.1265
     53 H26        -7.2294    2.0070    1.9443 H         1 <0>         0.1274
     54 H27        -3.0868    2.4813    2.1296 H         1 <0>         0.1369
     55 H28        -4.1473    3.7664    1.5034 H         1 <0>         0.1150
     56 H29        -4.0851    3.4368    3.2515 H         1 <0>         0.1279
     57 H30        -0.9450   -1.5211    6.8887 H         1 <0>         0.0945
     58 H31        -0.1755    0.0497    7.2184 H         1 <0>         0.1181
     59 H32        -1.5613   -0.5218    9.1317 H         1 <0>         0.1566
     60 H33        -2.3552    0.8101    8.2576 H         1 <0>         0.1430
     61 H34        -2.4176   -2.7259    9.0079 H         1 <0>         0.1306
     62 H35        -3.7781   -3.1041    7.9243 H         1 <0>         0.1288
     63 H36        -2.1868   -2.6889    7.2433 H         1 <0>         0.1177
     64 H37        -4.4925    0.2535    9.1112 H         1 <0>         0.1236
     65 H38        -5.1017   -1.4150    8.9965 H         1 <0>         0.1270
     66 H39        -3.7411   -1.0368   10.0801 H         1 <0>         0.1286
     67 H40        -3.2846   -1.1327    5.9340 H         1 <0>         0.1214
     68 H41        -4.8873   -1.2105    6.7045 H         1 <0>         0.1186
     69 H42        -3.9997    0.3315    6.6505 H         1 <0>         0.1207
@<TRIPOS>BOND
     1    1    2 1
     2    1   28 1
     3    1   29 1
     4    1   30 1
     5    2    3 1
     6    2    4 1
     7    2    5 1
     8    3   31 1
     9    3   32 1
    10    3   33 1
    11    4   34 1
    12    4   35 1
    13    4   36 1
    14    5    6 1
    15    5   37 1
    16    5   38 1
    17    6    7 1
    18    6   39 1
    19    6   40 1
    20    7    8 1
    21    8   13 ar
    22    8    9 ar
    23    9   10 ar
    24    9   41 1
    25   10   11 ar
    26   10   42 1
    27   11   12 ar
    28   11   43 1
    29   12   13 ar
    30   12   21 1
    31   13   14 1
    32   14   15 1
    33   15   16 1
    34   15   44 1
    35   15   45 1
    36   16   17 1
    37   16   46 1
    38   16   47 1
    39   17   18 1
    40   17   19 1
    41   17   20 1
    42   18   48 1
    43   18   49 1
    44   18   50 1
    45   19   51 1
    46   19   52 1
    47   19   53 1
    48   20   54 1
    49   20   55 1
    50   20   56 1
    51   21   22 1
    52   22   23 1
    53   22   57 1
    54   22   58 1
    55   23   24 1
    56   23   59 1
    57   23   60 1
    58   24   25 1
    59   24   26 1
    60   24   27 1
    61   25   61 1
    62   25   62 1
    63   25   63 1
    64   26   64 1
    65   26   65 1
    66   26   66 1
    67   27   67 1
    68   27   68 1
    69   27   69 1
@<TRIPOS>MOLECULE
ZINC03814215
   51    53     0     0     0
SMALL
USER_CHARGES

@<TRIPOS>ATOM
      1 C1          3.3417   -3.3244    4.3018 C.ar      1 <0>        -0.0843
      2 C2          2.0388   -3.0012    4.6315 C.ar      1 <0>        -0.1134
      3 C3          1.1680   -2.5577    3.6537 C.ar      1 <0>        -0.0949
      4 C4          1.6001   -2.4380    2.3461 C.ar      1 <0>        -0.1612
      5 C5          2.9015   -2.7667    2.0153 C.ar      1 <0>        -0.0963
      6 C6          3.7738   -3.2047    2.9941 C.ar      1 <0>        -0.1139
      7 C7          0.6507   -1.9551    1.2800 C.3       1 <0>         0.0485
      8 C8          0.0021   -0.0041    0.0020 C.3       1 <0>        -0.0006
      9 C9         -0.0187    1.5261    0.0104 C.3       1 <0>        -0.1424
     10 C10         1.4196    2.0513   -0.0005 C.3       1 <0>        -0.0960
     11 C11         2.1687    1.4902    1.2114 C.3       1 <0>        -0.1471
     12 C12         2.1260   -0.0390    1.1681 C.3       1 <0>        -0.0070
     13 C13         1.4064    3.5796    0.0693 C.3       1 <0>        -0.1299
     14 C14         2.8355    4.1088   -0.0671 C.3       1 <0>         0.1169
     15 N1          2.8229    5.5722   -0.0004 N.am      1 <0>        -0.7326
     16 C15         3.9770    6.2612   -0.0988 C.2       1 <0>         0.5629
     17 O1          5.0284    5.6685   -0.2430 O.2       1 <0>        -0.5321
     18 C16         3.9643    7.7381   -0.0314 C.ar      1 <0>        -0.1448
     19 C17         2.7581    8.4221    0.1283 C.ar      1 <0>        -0.0877
     20 C18         2.7538    9.8000    0.1957 C.ar      1 <0>        -0.1269
     21 C19         3.9403   10.5043    0.0943 C.ar      1 <0>        -0.0877
     22 C20         5.1388    9.8327   -0.0699 C.ar      1 <0>        -0.1247
     23 C21         5.1577    8.4547   -0.1331 C.ar      1 <0>        -0.0580
     24 H1          4.0222   -3.6702    5.0658 H         1 <0>         0.1359
     25 H2          1.7012   -3.0947    5.6531 H         1 <0>         0.1359
     26 H3          0.1501   -2.3052    3.9113 H         1 <0>         0.1305
     27 H4          3.2378   -2.6774    0.9929 H         1 <0>         0.1305
     28 H5          4.7919   -3.4569    2.7366 H         1 <0>         0.1363
     29 H6         -0.3666   -2.2477    1.5398 H         1 <0>         0.1340
     30 H7          0.9232   -2.3991    0.3226 H         1 <0>         0.1360
     31 H8         -1.0203   -0.3813    0.0242 H         1 <0>         0.1297
     32 H9          0.4992   -0.3556   -0.9021 H         1 <0>         0.1307
     33 H10        -0.5449    1.8878   -0.8730 H         1 <0>         0.1137
     34 H11        -0.5279    1.8782    0.9076 H         1 <0>         0.0892
     35 H12         1.9171    1.7318   -0.9162 H         1 <0>         0.0940
     36 H13         1.6939    1.8417    2.1274 H         1 <0>         0.0888
     37 H14         3.2053    1.8262    1.1860 H         1 <0>         0.1140
     38 H15         2.6463   -0.4415    2.0373 H         1 <0>         0.1320
     39 H16         2.6132   -0.3903    0.2586 H         1 <0>         0.1290
     40 H17         0.7937    3.9751   -0.7409 H         1 <0>         0.0827
     41 H18         0.9916    3.8961    1.0263 H         1 <0>         0.0778
     42 H19         3.4482    3.7133    0.7430 H         1 <0>         0.0696
     43 H20         3.2503    3.7923   -1.0241 H         1 <0>         0.0713
     44 H21         1.9839    6.0452    0.1147 H         1 <0>         0.4019
     45 H22         1.8307    7.8736    0.2031 H         1 <0>         0.1229
     46 H23         1.8217   10.3303    0.3238 H         1 <0>         0.1314
     47 H24         3.9311   11.5832    0.1439 H         1 <0>         0.1314
     48 H25         6.0615   10.3884   -0.1484 H         1 <0>         0.1339
     49 H26         6.0938    7.9316   -0.2612 H         1 <0>         0.1369
     50 N2          0.7156   -0.4809    1.2057 N.4       1 <0>        -0.3920
     51 H27         0.2646   -0.0849    2.0388 H         1 <0>         0.4252
@<TRIPOS>BOND
     1    1    6 ar
     2    1    2 ar
     3    1   24 1
     4    2    3 ar
     5    2   25 1
     6    3    4 ar
     7    3   26 1
     8    4    5 ar
     9    4    7 1
    10    5    6 ar
    11    5   27 1
    12    6   28 1
    13    7   29 1
    14    7   30 1
    15    7   50 1
    16    8    9 1
    17    8   31 1
    18    8   32 1
    19    8   50 1
    20    9   10 1
    21    9   33 1
    22    9   34 1
    23   10   11 1
    24   10   13 1
    25   10   35 1
    26   11   12 1
    27   11   36 1
    28   11   37 1
    29   12   38 1
    30   12   39 1
    31   12   50 1
    32   13   14 1
    33   13   40 1
    34   13   41 1
    35   14   15 1
    36   14   42 1
    37   14   43 1
    38   15   16 am
    39   15   44 1
    40   16   17 2
    41   16   18 1
    42   18   23 ar
    43   18   19 ar
    44   19   20 ar
    45   19   45 1
    46   20   21 ar
    47   20   46 1
    48   21   22 ar
    49   21   47 1
    50   22   23 ar
    51   22   48 1
    52   23   49 1
    53   50   51 1
@<TRIPOS>MOLECULE
ZINC03814216
   51    54     0     0     0
SMALL
USER_CHARGES

@<TRIPOS>ATOM
      1 C1          7.0830    0.4851    1.5662 C.ar      1 <0>        -0.0840
      2 C2          6.2730    1.3144    2.3192 C.ar      1 <0>        -0.1136
      3 C3          4.9488    0.9795    2.5324 C.ar      1 <0>        -0.0970
      4 C4          4.4348   -0.1848    1.9929 C.ar      1 <0>        -0.1632
      5 C5          5.2463   -1.0169    1.2446 C.ar      1 <0>        -0.0945
      6 C6          6.5690   -0.6792    1.0267 C.ar      1 <0>        -0.1130
      7 C7          2.9914   -0.5500    2.2256 C.3       1 <0>         0.0489
      8 C8          0.7933   -0.5053    1.2123 C.3       1 <0>        -0.0007
      9 C9          0.0021   -0.0041    0.0020 C.3       1 <0>        -0.1426
     10 C10        -0.0187    1.5270    0.0104 C.3       1 <0>        -0.0954
     11 C11         1.4207    2.0492   -0.0005 C.3       1 <0>        -0.1478
     12 C12         2.1708    1.4884    1.2098 C.3       1 <0>        -0.0058
     13 C13        -0.7564    2.0351   -1.2299 C.3       1 <0>        -0.1348
     14 C14        -0.8857    3.5580   -1.1582 C.3       1 <0>         0.1088
     15 N1         -1.5921    4.0446   -2.3458 N.am      1 <0>        -0.5797
     16 C15        -0.9910    4.4100   -3.4925 C.2       1 <0>         0.5784
     17 O1          0.2047    4.3886   -3.7042 O.2       1 <0>        -0.4630
     18 C16        -2.0297    4.8390   -4.4528 C.ar      1 <0>        -0.1476
     19 C17        -2.0081    5.3061   -5.7571 C.ar      1 <0>        -0.0412
     20 C18        -3.1972    5.6350   -6.3890 C.ar      1 <0>        -0.0911
     21 C19        -4.4031    5.5010   -5.7267 C.ar      1 <0>        -0.0903
     22 C20        -4.4400    5.0354   -4.4216 C.ar      1 <0>        -0.0410
     23 C21        -3.2593    4.7023   -3.7774 C.ar      1 <0>        -0.1462
     24 C22        -2.9267    4.1902   -2.4313 C.2       1 <0>         0.5766
     25 O2         -3.7247    3.9420   -1.5501 O.2       1 <0>        -0.4582
     26 H1          8.1173    0.7471    1.3990 H         1 <0>         0.1359
     27 H2          6.6746    2.2240    2.7407 H         1 <0>         0.1361
     28 H3          4.3160    1.6274    3.1207 H         1 <0>         0.1307
     29 H4          4.8459   -1.9288    0.8268 H         1 <0>         0.1308
     30 H5          7.2018   -1.3269    0.4380 H         1 <0>         0.1361
     31 H6          2.6667   -0.1529    3.1874 H         1 <0>         0.1363
     32 H7          2.8868   -1.6350    2.2265 H         1 <0>         0.1347
     33 H8          0.3110   -0.1640    2.1282 H         1 <0>         0.1315
     34 H9          0.8222   -1.5949    1.2014 H         1 <0>         0.1297
     35 H10        -1.0190   -0.3821    0.0528 H         1 <0>         0.1142
     36 H11         0.4761   -0.3565   -0.9140 H         1 <0>         0.0891
     37 H12        -0.5272    1.8794    0.9078 H         1 <0>         0.0953
     38 H13         1.9170    1.7290   -0.9166 H         1 <0>         0.0909
     39 H14         1.4131    3.1380    0.0485 H         1 <0>         0.1127
     40 H15         1.6820    1.8203    2.1258 H         1 <0>         0.1305
     41 H16         3.2001    1.8469    1.1972 H         1 <0>         0.1296
     42 H17        -0.1968    1.7597   -2.1238 H         1 <0>         0.0780
     43 H18        -1.7495    1.5877   -1.2707 H         1 <0>         0.0829
     44 H19        -1.4453    3.8334   -0.2643 H         1 <0>         0.0997
     45 H20         0.1074    4.0054   -1.1174 H         1 <0>         0.0972
     46 H21        -1.0688    5.4135   -6.2792 H         1 <0>         0.1441
     47 H22        -3.1814    5.9988   -7.4058 H         1 <0>         0.1468
     48 H23        -5.3228    5.7612   -6.2295 H         1 <0>         0.1470
     49 H24        -5.3850    4.9330   -3.9090 H         1 <0>         0.1447
     50 N2          2.1758    0.0123    1.1295 N.4       1 <0>        -0.3927
     51 H25         2.5841   -0.2709    0.2310 H         1 <0>         0.4259
@<TRIPOS>BOND
     1    1    6 ar
     2    1    2 ar
     3    1   26 1
     4    2    3 ar
     5    2   27 1
     6    3    4 ar
     7    3   28 1
     8    4    5 ar
     9    4    7 1
    10    5    6 ar
    11    5   29 1
    12    6   30 1
    13    7   31 1
    14    7   32 1
    15    7   50 1
    16    8    9 1
    17    8   33 1
    18    8   34 1
    19    8   50 1
    20    9   10 1
    21    9   35 1
    22    9   36 1
    23   10   11 1
    24   10   13 1
    25   10   37 1
    26   11   12 1
    27   11   38 1
    28   11   39 1
    29   12   40 1
    30   12   41 1
    31   12   50 1
    32   13   14 1
    33   13   42 1
    34   13   43 1
    35   14   15 1
    36   14   44 1
    37   14   45 1
    38   15   24 am
    39   15   16 am
    40   16   17 2
    41   16   18 1
    42   18   23 ar
    43   18   19 ar
    44   19   20 ar
    45   19   46 1
    46   20   21 ar
    47   20   47 1
    48   21   22 ar
    49   21   48 1
    50   22   23 ar
    51   22   49 1
    52   23   24 1
    53   24   25 2
    54   50   51 1
@<TRIPOS>MOLECULE
ZINC03814217
   53    56     0     0     0
SMALL
USER_CHARGES

@<TRIPOS>ATOM
      1 C1        -10.7848    5.8958    1.4631 C.ar      1 <0>        -0.0837
      2 C2        -10.7255    4.9144    0.4913 C.ar      1 <0>        -0.1135
      3 C3        -10.3501    3.6279    0.8302 C.ar      1 <0>        -0.0971
      4 C4        -10.0346    3.3226    2.1410 C.ar      1 <0>        -0.1636
      5 C5        -10.0994    4.3026    3.1138 C.ar      1 <0>        -0.0944
      6 C6        -10.4693    5.5905    2.7738 C.ar      1 <0>        -0.1129
      7 C7         -9.6258    1.9200    2.5106 C.3       1 <0>         0.0490
      8 C8         -7.7058    0.5159    2.9607 C.3       1 <0>        -0.0010
      9 C9         -6.1761    0.4749    2.9460 C.3       1 <0>        -0.1427
     10 C10        -5.6804    0.6154    1.5041 C.3       1 <0>        -0.0956
     11 C11        -6.2157    1.9228    0.9137 C.3       1 <0>        -0.1479
     12 C12        -7.7443    1.9218    0.9873 C.3       1 <0>        -0.0061
     13 C13        -4.1506    0.6362    1.4891 C.3       1 <0>        -0.1365
     14 C14        -3.6549    0.6509    0.0417 C.3       1 <0>         0.1083
     15 N1         -2.1901    0.6709    0.0273 N.am      1 <0>        -0.5746
     16 C15        -1.4440    1.7903    0.0314 C.2       1 <0>         0.5774
     17 O1         -1.8714    2.9270    0.0433 O.2       1 <0>        -0.4437
     18 C16        -0.0170    1.4052    0.0098 C.ar      1 <0>        -0.0960
     19 C17         1.1756    2.1106    0.0022 C.ar      1 <0>        -0.0397
     20 C18         2.3798    1.4243   -0.0131 C.ar      1 <0>        -0.0226
     21 C19         2.3986    0.0422   -0.0207 C.ar      1 <0>        -0.0214
     22 C20         1.2134   -0.6767   -0.0132 C.ar      1 <0>         0.0160
     23 C21         0.0021   -0.0041    0.0020 C.ar      1 <0>        -0.1421
     24 C22        -1.4140   -0.4278    0.0138 C.2       1 <0>         0.5812
     25 O2         -1.8104   -1.5758    0.0109 O.2       1 <0>        -0.4398
     26 N2          3.6932   -0.6752   -0.0364 N.pl3     1 <0>         0.0180
     27 O3          3.7146   -1.8930   -0.0427 O.2       1 <0>        -0.1357
     28 O4          4.7371   -0.0477   -0.0430 O.3       1 <0>        -0.1332
     29 H1        -11.0774    6.9011    1.1982 H         1 <0>         0.1361
     30 H2        -10.9720    5.1529   -0.5328 H         1 <0>         0.1362
     31 H3        -10.3038    2.8612    0.0710 H         1 <0>         0.1307
     32 H4         -9.8572    4.0631    4.1386 H         1 <0>         0.1309
     33 H5        -10.5153    6.3573    3.5330 H         1 <0>         0.1362
     34 H6        -10.1140    1.2111    1.8417 H         1 <0>         0.1365
     35 H7         -9.9236    1.7137    3.5386 H         1 <0>         0.1349
     36 H8         -8.0970   -0.3130    2.3708 H         1 <0>         0.1319
     37 H9         -8.0616    0.4305    3.9874 H         1 <0>         0.1301
     38 H10        -5.8335   -0.4744    3.3578 H         1 <0>         0.1146
     39 H11        -5.7843    1.2955    3.5471 H         1 <0>         0.0893
     40 H12        -6.0390   -0.2265    0.9120 H         1 <0>         0.0964
     41 H13        -5.8246    2.7662    1.4828 H         1 <0>         0.0912
     42 H14        -5.9015    2.0079   -0.1265 H         1 <0>         0.1125
     43 H15        -8.1353    1.0863    0.4066 H         1 <0>         0.1308
     44 H16        -8.1281    2.8575    0.5808 H         1 <0>         0.1301
     45 H17        -3.7701   -0.2515    1.9944 H         1 <0>         0.0844
     46 H18        -3.7943    1.5283    2.0042 H         1 <0>         0.0792
     47 H19        -4.0353    1.5386   -0.4636 H         1 <0>         0.1013
     48 H20        -4.0112   -0.2412   -0.4734 H         1 <0>         0.1043
     49 H21         1.1670    3.1906    0.0079 H         1 <0>         0.1708
     50 H22         3.3099    1.9733   -0.0190 H         1 <0>         0.1778
     51 H23         1.2341   -1.7565   -0.0195 H         1 <0>         0.1747
     52 N3         -8.1565    1.8085    2.4027 N.4       1 <0>        -0.3928
     53 H24        -7.7241    2.5709    2.9375 H         1 <0>         0.4259
@<TRIPOS>BOND
     1    1    6 ar
     2    1    2 ar
     3    1   29 1
     4    2    3 ar
     5    2   30 1
     6    3    4 ar
     7    3   31 1
     8    4    5 ar
     9    4    7 1
    10    5    6 ar
    11    5   32 1
    12    6   33 1
    13    7   34 1
    14    7   35 1
    15    7   52 1
    16    8    9 1
    17    8   36 1
    18    8   37 1
    19    8   52 1
    20    9   10 1
    21    9   38 1
    22    9   39 1
    23   10   11 1
    24   10   13 1
    25   10   40 1
    26   11   12 1
    27   11   41 1
    28   11   42 1
    29   12   43 1
    30   12   44 1
    31   12   52 1
    32   13   14 1
    33   13   45 1
    34   13   46 1
    35   14   15 1
    36   14   47 1
    37   14   48 1
    38   15   24 am
    39   15   16 am
    40   16   17 2
    41   16   18 1
    42   18   23 ar
    43   18   19 ar
    44   19   20 ar
    45   19   49 1
    46   20   21 ar
    47   20   50 1
    48   21   22 ar
    49   21   26 1
    50   22   23 ar
    51   22   51 1
    52   23   24 1
    53   24   25 2
    54   26   27 2
    55   26   28 1
    56   52   53 1
@<TRIPOS>MOLECULE
ZINC03814218
   57    60     0     0     0
SMALL
USER_CHARGES

@<TRIPOS>ATOM
      1 C1        -11.1929    8.1258    2.1840 C.3       1 <0>         0.0208
      2 O1        -11.1531    7.1625    1.1292 O.3       1 <0>        -0.3070
      3 C2        -10.7849    5.8975    1.4626 C.ar      1 <0>         0.1681
      4 C3        -10.7249    4.9117    0.4882 C.ar      1 <0>        -0.1502
      5 C4        -10.3500    3.6267    0.8296 C.ar      1 <0>        -0.0541
      6 C5        -10.0346    3.3226    2.1410 C.ar      1 <0>        -0.2076
      7 C6        -10.0991    4.3019    3.1149 C.ar      1 <0>        -0.0489
      8 C7        -10.4680    5.5898    2.7777 C.ar      1 <0>        -0.2085
      9 C8         -9.6258    1.9200    2.5106 C.3       1 <0>         0.0547
     10 C9         -7.7058    0.5159    2.9607 C.3       1 <0>        -0.0010
     11 C10        -6.1761    0.4749    2.9460 C.3       1 <0>        -0.1426
     12 C11        -5.6804    0.6154    1.5041 C.3       1 <0>        -0.0955
     13 C12        -6.2157    1.9228    0.9137 C.3       1 <0>        -0.1480
     14 C13        -7.7443    1.9218    0.9873 C.3       1 <0>        -0.0059
     15 C14        -4.1506    0.6362    1.4891 C.3       1 <0>        -0.1365
     16 C15        -3.6549    0.6509    0.0417 C.3       1 <0>         0.1082
     17 N1         -2.1901    0.6709    0.0273 N.am      1 <0>        -0.5745
     18 C16        -1.4440    1.7903    0.0314 C.2       1 <0>         0.5773
     19 O2         -1.8714    2.9270    0.0433 O.2       1 <0>        -0.4436
     20 C17        -0.0170    1.4052    0.0098 C.ar      1 <0>        -0.0959
     21 C18         1.1756    2.1106    0.0022 C.ar      1 <0>        -0.0398
     22 C19         2.3798    1.4243   -0.0131 C.ar      1 <0>        -0.0227
     23 C20         2.3986    0.0422   -0.0207 C.ar      1 <0>        -0.0215
     24 C21         1.2134   -0.6767   -0.0132 C.ar      1 <0>         0.0159
     25 C22         0.0021   -0.0041    0.0020 C.ar      1 <0>        -0.1420
     26 C23        -1.4140   -0.4278    0.0138 C.2       1 <0>         0.5812
     27 O3         -1.8104   -1.5758    0.0109 O.2       1 <0>        -0.4398
     28 N2          3.6932   -0.6752   -0.0364 N.pl3     1 <0>         0.0180
     29 O4          3.7146   -1.8930   -0.0427 O.2       1 <0>        -0.1357
     30 O5          4.7371   -0.0477   -0.0430 O.3       1 <0>        -0.1333
     31 H1        -11.9055    7.8039    2.9434 H         1 <0>         0.0631
     32 H2        -10.2026    8.2170    2.6303 H         1 <0>         0.0621
     33 H3        -11.5009    9.0913    1.7828 H         1 <0>         0.1118
     34 H4        -10.9715    5.1486   -0.5362 H         1 <0>         0.1441
     35 H5        -10.3028    2.8590    0.0714 H         1 <0>         0.1376
     36 H6         -9.8568    4.0608    4.1394 H         1 <0>         0.1334
     37 H7        -10.5139    6.3554    3.5380 H         1 <0>         0.1410
     38 H8        -10.1140    1.2111    1.8417 H         1 <0>         0.1356
     39 H9         -9.9236    1.7137    3.5386 H         1 <0>         0.1332
     40 H10        -8.0970   -0.3130    2.3708 H         1 <0>         0.1317
     41 H11        -8.0616    0.4305    3.9874 H         1 <0>         0.1296
     42 H12        -5.8335   -0.4744    3.3578 H         1 <0>         0.1140
     43 H13        -5.7843    1.2955    3.5471 H         1 <0>         0.0889
     44 H14        -6.0390   -0.2265    0.9120 H         1 <0>         0.0964
     45 H15        -5.8246    2.7662    1.4828 H         1 <0>         0.0908
     46 H16        -5.9015    2.0079   -0.1265 H         1 <0>         0.1123
     47 H17        -8.1353    1.0863    0.4066 H         1 <0>         0.1308
     48 H18        -8.1281    2.8575    0.5808 H         1 <0>         0.1301
     49 H19        -3.7701   -0.2515    1.9944 H         1 <0>         0.0841
     50 H20        -3.7943    1.5283    2.0042 H         1 <0>         0.0789
     51 H21        -4.0353    1.5386   -0.4636 H         1 <0>         0.1014
     52 H22        -4.0112   -0.2412   -0.4734 H         1 <0>         0.1044
     53 H23         1.1670    3.1906    0.0079 H         1 <0>         0.1707
     54 H24         3.3099    1.9733   -0.0190 H         1 <0>         0.1777
     55 H25         1.2341   -1.7565   -0.0195 H         1 <0>         0.1746
     56 N3         -8.1565    1.8085    2.4027 N.4       1 <0>        -0.3934
     57 H26        -7.7241    2.5709    2.9375 H         1 <0>         0.4251
@<TRIPOS>BOND
     1    1    2 1
     2    1   31 1
     3    1   32 1
     4    1   33 1
     5    2    3 1
     6    3    8 ar
     7    3    4 ar
     8    4    5 ar
     9    4   34 1
    10    5    6 ar
    11    5   35 1
    12    6    7 ar
    13    6    9 1
    14    7    8 ar
    15    7   36 1
    16    8   37 1
    17    9   38 1
    18    9   39 1
    19    9   56 1
    20   10   11 1
    21   10   40 1
    22   10   41 1
    23   10   56 1
    24   11   12 1
    25   11   42 1
    26   11   43 1
    27   12   13 1
    28   12   15 1
    29   12   44 1
    30   13   14 1
    31   13   45 1
    32   13   46 1
    33   14   47 1
    34   14   48 1
    35   14   56 1
    36   15   16 1
    37   15   49 1
    38   15   50 1
    39   16   17 1
    40   16   51 1
    41   16   52 1
    42   17   26 am
    43   17   18 am
    44   18   19 2
    45   18   20 1
    46   20   25 ar
    47   20   21 ar
    48   21   22 ar
    49   21   53 1
    50   22   23 ar
    51   22   54 1
    52   23   24 ar
    53   23   28 1
    54   24   25 ar
    55   24   55 1
    56   25   26 1
    57   26   27 2
    58   28   29 2
    59   28   30 1
    60   56   57 1
@<TRIPOS>MOLECULE
ZINC03814219
   53    56     0     0     0
SMALL
USER_CHARGES

@<TRIPOS>ATOM
      1 C1        -10.0994    4.3024    3.1140 C.ar      1 <0>        -0.0797
      2 C2        -10.4687    5.5904    2.7747 C.ar      1 <0>        -0.1061
      3 C3        -10.7846    5.8962    1.4629 C.ar      1 <0>        -0.0064
      4 C4        -10.7250    4.9139    0.4905 C.ar      1 <0>        -0.1068
      5 C5        -10.3501    3.6276    0.8301 C.ar      1 <0>        -0.0827
      6 C6        -10.0346    3.3226    2.1410 C.ar      1 <0>        -0.1618
      7 C7         -9.6258    1.9200    2.5106 C.3       1 <0>         0.0491
      8 C8         -7.7058    0.5159    2.9607 C.3       1 <0>        -0.0008
      9 C9         -6.1761    0.4749    2.9460 C.3       1 <0>        -0.1429
     10 C10        -5.6804    0.6154    1.5041 C.3       1 <0>        -0.0956
     11 C11        -6.2157    1.9228    0.9137 C.3       1 <0>        -0.1482
     12 C12        -7.7443    1.9218    0.9873 C.3       1 <0>        -0.0068
     13 C13        -4.1506    0.6362    1.4891 C.3       1 <0>        -0.1367
     14 C14        -3.6549    0.6509    0.0417 C.3       1 <0>         0.1082
     15 N1         -2.1901    0.6709    0.0273 N.am      1 <0>        -0.5746
     16 C15        -1.4440    1.7903    0.0314 C.2       1 <0>         0.5774
     17 O1         -1.8714    2.9270    0.0433 O.2       1 <0>        -0.4436
     18 C16        -0.0170    1.4052    0.0098 C.ar      1 <0>        -0.0961
     19 C17         1.1756    2.1106    0.0022 C.ar      1 <0>        -0.0396
     20 C18         2.3798    1.4243   -0.0131 C.ar      1 <0>        -0.0226
     21 C19         2.3986    0.0422   -0.0207 C.ar      1 <0>        -0.0214
     22 C20         1.2134   -0.6767   -0.0132 C.ar      1 <0>         0.0160
     23 C21         0.0021   -0.0041    0.0020 C.ar      1 <0>        -0.1422
     24 C22        -1.4140   -0.4278    0.0138 C.2       1 <0>         0.5813
     25 O2         -1.8104   -1.5758    0.0109 O.2       1 <0>        -0.4398
     26 N2          3.6932   -0.6752   -0.0364 N.pl3     1 <0>         0.0180
     27 O3          3.7146   -1.8930   -0.0427 O.2       1 <0>        -0.1357
     28 O4          4.7371   -0.0477   -0.0430 O.3       1 <0>        -0.1331
     29 Cl1       -11.2549    7.5121    1.0371 Cl        1 <0>        -0.0368
     30 H1         -9.8570    4.0625    4.1388 H         1 <0>         0.1413
     31 H2        -10.5150    6.3568    3.5342 H         1 <0>         0.1474
     32 H3        -10.9712    5.1521   -0.5337 H         1 <0>         0.1473
     33 H4        -10.3032    2.8607    0.0710 H         1 <0>         0.1409
     34 H5        -10.1140    1.2111    1.8417 H         1 <0>         0.1392
     35 H6         -9.9236    1.7137    3.5386 H         1 <0>         0.1377
     36 H7         -8.0970   -0.3130    2.3708 H         1 <0>         0.1326
     37 H8         -8.0616    0.4305    3.9874 H         1 <0>         0.1308
     38 H9         -5.8335   -0.4744    3.3578 H         1 <0>         0.1150
     39 H10        -5.7843    1.2955    3.5471 H         1 <0>         0.0896
     40 H11        -6.0390   -0.2265    0.9120 H         1 <0>         0.0966
     41 H12        -5.8246    2.7662    1.4828 H         1 <0>         0.0915
     42 H13        -5.9015    2.0079   -0.1265 H         1 <0>         0.1131
     43 H14        -8.1353    1.0863    0.4066 H         1 <0>         0.1320
     44 H15        -8.1281    2.8575    0.5808 H         1 <0>         0.1295
     45 H16        -3.7701   -0.2515    1.9944 H         1 <0>         0.0845
     46 H17        -3.7943    1.5283    2.0042 H         1 <0>         0.0793
     47 H18        -4.0353    1.5386   -0.4636 H         1 <0>         0.1012
     48 H19        -4.0112   -0.2412   -0.4734 H         1 <0>         0.1043
     49 H20         1.1670    3.1906    0.0079 H         1 <0>         0.1708
     50 H21         3.3099    1.9733   -0.0190 H         1 <0>         0.1778
     51 H22         1.2341   -1.7565   -0.0195 H         1 <0>         0.1747
     52 N3         -8.1565    1.8085    2.4027 N.4       1 <0>        -0.3935
     53 H23        -7.7241    2.5709    2.9375 H         1 <0>         0.4263
@<TRIPOS>BOND
     1    1    6 ar
     2    1    2 ar
     3    1   30 1
     4    2    3 ar
     5    2   31 1
     6    3    4 ar
     7    3   29 1
     8    4    5 ar
     9    4   32 1
    10    5    6 ar
    11    5   33 1
    12    6    7 1
    13    7   34 1
    14    7   35 1
    15    7   52 1
    16    8    9 1
    17    8   36 1
    18    8   37 1
    19    8   52 1
    20    9   10 1
    21    9   38 1
    22    9   39 1
    23   10   11 1
    24   10   13 1
    25   10   40 1
    26   11   12 1
    27   11   41 1
    28   11   42 1
    29   12   43 1
    30   12   44 1
    31   12   52 1
    32   13   14 1
    33   13   45 1
    34   13   46 1
    35   14   15 1
    36   14   47 1
    37   14   48 1
    38   15   24 am
    39   15   16 am
    40   16   17 2
    41   16   18 1
    42   18   23 ar
    43   18   19 ar
    44   19   20 ar
    45   19   49 1
    46   20   21 ar
    47   20   50 1
    48   21   22 ar
    49   21   26 1
    50   22   23 ar
    51   22   51 1
    52   23   24 1
    53   24   25 2
    54   26   27 2
    55   26   28 1
    56   52   53 1
@<TRIPOS>MOLECULE
ZINC03814220
   53    56     0     0     0
SMALL
USER_CHARGES

@<TRIPOS>ATOM
      1 C1        -10.7739    5.9146    1.4594 C.ar      1 <0>        -0.0841
      2 C2        -10.7161    4.9331    0.4876 C.ar      1 <0>        -0.1136
      3 C3        -10.3433    3.6459    0.8267 C.ar      1 <0>        -0.0969
      4 C4        -10.0288    3.3400    2.1376 C.ar      1 <0>        -0.1631
      5 C5        -10.0921    4.3202    3.1103 C.ar      1 <0>        -0.0945
      6 C6        -10.4594    5.6088    2.7702 C.ar      1 <0>        -0.1130
      7 C7         -9.6228    1.9366    2.5073 C.3       1 <0>         0.0490
      8 C8         -7.7056    0.5290    2.9581 C.3       1 <0>        -0.0007
      9 C9         -6.1759    0.4851    2.9440 C.3       1 <0>        -0.1426
     10 C10        -5.6795    0.6246    1.5022 C.3       1 <0>        -0.0954
     11 C11        -6.2122    1.9330    0.9116 C.3       1 <0>        -0.1475
     12 C12        -7.7408    1.9349    0.9847 C.3       1 <0>        -0.0060
     13 C13        -4.1496    0.6425    1.4877 C.3       1 <0>        -0.1349
     14 C14        -3.6535    0.6562    0.0405 C.3       1 <0>         0.1092
     15 N1         -2.1886    0.6734    0.0266 N.am      1 <0>        -0.5802
     16 C15        -1.4408    1.7913    0.0313 C.2       1 <0>         0.5834
     17 O1         -1.8674    2.9289    0.0432 O.2       1 <0>        -0.4739
     18 C16        -0.0171    1.4071    0.0098 C.ar      1 <0>        -0.2182
     19 C17         1.1766    2.1163    0.0022 C.ar      1 <0>         0.0163
     20 C18         2.3800    1.4369   -0.0121 C.ar      1 <0>        -0.1861
     21 C19         2.4030    0.0467   -0.0198 C.ar      1 <0>         0.2517
     22 C20         1.2098   -0.6769   -0.0127 C.ar      1 <0>        -0.1212
     23 C21         0.0021   -0.0041    0.0020 C.ar      1 <0>        -0.0905
     24 C22        -1.4148   -0.4270    0.0133 C.2       1 <0>         0.5774
     25 O2         -1.8129   -1.5743    0.0105 O.2       1 <0>        -0.4615
     26 N2          3.6202   -0.6255   -0.0342 N.pl3     1 <0>        -0.8564
     27 H1        -11.0645    6.9204    1.1943 H         1 <0>         0.1358
     28 H2        -10.9619    5.1721   -0.5365 H         1 <0>         0.1360
     29 H3        -10.2982    2.8791    0.0675 H         1 <0>         0.1307
     30 H4         -9.8506    4.0802    4.1353 H         1 <0>         0.1308
     31 H5        -10.5042    6.3756    3.5294 H         1 <0>         0.1360
     32 H6        -10.1121    1.2287    1.8384 H         1 <0>         0.1361
     33 H7         -9.9213    1.7310    3.5353 H         1 <0>         0.1345
     34 H8         -8.0981   -0.2992    2.3681 H         1 <0>         0.1313
     35 H9         -8.0619    0.4443    3.9847 H         1 <0>         0.1293
     36 H10        -5.8353   -0.4649    3.3558 H         1 <0>         0.1140
     37 H11        -5.7828    1.3049    3.5451 H         1 <0>         0.0891
     38 H12        -6.0395   -0.2167    0.9100 H         1 <0>         0.0949
     39 H13        -5.8196    2.7756    1.4808 H         1 <0>         0.0910
     40 H14        -5.8975    2.0175   -0.1285 H         1 <0>         0.1130
     41 H15        -8.1332    1.1001    0.4039 H         1 <0>         0.1303
     42 H16        -8.1227    2.8713    0.5780 H         1 <0>         0.1295
     43 H17        -3.7711   -0.2459    1.9932 H         1 <0>         0.0823
     44 H18        -3.7918    1.5339    2.0029 H         1 <0>         0.0782
     45 H19        -4.0321    1.5446   -0.4650 H         1 <0>         0.0965
     46 H20        -4.0113   -0.2352   -0.4748 H         1 <0>         0.0981
     47 H21         1.1646    3.1962    0.0078 H         1 <0>         0.1424
     48 H22         3.3081    1.9891   -0.0174 H         1 <0>         0.1420
     49 H23         1.2297   -1.7567   -0.0191 H         1 <0>         0.1417
     50 H24         3.6387   -1.5953   -0.0392 H         1 <0>         0.4073
     51 H25         4.4509   -0.1246   -0.0391 H         1 <0>         0.4091
     52 N3         -8.1537    1.8226    2.3997 N.4       1 <0>        -0.3927
     53 H26        -7.7201    2.5843    2.9345 H         1 <0>         0.4259
@<TRIPOS>BOND
     1    1    6 ar
     2    1    2 ar
     3    1   27 1
     4    2    3 ar
     5    2   28 1
     6    3    4 ar
     7    3   29 1
     8    4    5 ar
     9    4    7 1
    10    5    6 ar
    11    5   30 1
    12    6   31 1
    13    7   32 1
    14    7   33 1
    15    7   52 1
    16    8    9 1
    17    8   34 1
    18    8   35 1
    19    8   52 1
    20    9   10 1
    21    9   36 1
    22    9   37 1
    23   10   11 1
    24   10   13 1
    25   10   38 1
    26   11   12 1
    27   11   39 1
    28   11   40 1
    29   12   41 1
    30   12   42 1
    31   12   52 1
    32   13   14 1
    33   13   43 1
    34   13   44 1
    35   14   15 1
    36   14   45 1
    37   14   46 1
    38   15   24 am
    39   15   16 am
    40   16   17 2
    41   16   18 1
    42   18   23 ar
    43   18   19 ar
    44   19   20 ar
    45   19   47 1
    46   20   21 ar
    47   20   48 1
    48   21   22 ar
    49   21   26 1
    50   22   23 ar
    51   22   49 1
    52   23   24 1
    53   24   25 2
    54   26   50 1
    55   26   51 1
    56   52   53 1
@<TRIPOS>MOLECULE
ZINC03814221
   58    61     0     0     0
SMALL
USER_CHARGES

@<TRIPOS>ATOM
      1 C1          5.9533   -0.8949   -0.8203 C.3       1 <0>        -0.1748
      2 C2          4.6694   -0.1135   -0.7100 C.2       1 <0>         0.5146
      3 O1          4.5775    0.9785   -1.2296 O.2       1 <0>        -0.5162
      4 N1          3.6233   -0.6282   -0.0339 N.am      1 <0>        -0.6761
      5 C3          2.4054    0.0506   -0.0117 C.ar      1 <0>         0.1772
      6 C4          2.3881    1.4400    0.0078 C.ar      1 <0>        -0.1015
      7 C5          1.1869    2.1246    0.0297 C.ar      1 <0>        -0.0162
      8 C6         -0.0090    1.4204    0.0327 C.ar      1 <0>        -0.1665
      9 C7          0.0046    0.0097    0.0125 C.ar      1 <0>        -0.1229
     10 C8          1.2102   -0.6678   -0.0095 C.ar      1 <0>        -0.0695
     11 C9         -1.4138   -0.4080    0.0221 C.2       1 <0>         0.5799
     12 O2         -1.8160   -1.5538    0.0098 O.2       1 <0>        -0.4582
     13 N2         -2.1838    0.6949    0.0461 N.am      1 <0>        -0.5791
     14 C10        -1.4320    1.8101    0.0596 C.2       1 <0>         0.5806
     15 O3         -1.8544    2.9490    0.0824 O.2       1 <0>        -0.4637
     16 C11        -3.6487    0.6826    0.0618 C.3       1 <0>         0.1090
     17 C12        -4.1429    0.6579    1.5096 C.3       1 <0>        -0.1351
     18 C13        -5.6728    0.6451    1.5260 C.3       1 <0>        -0.0954
     19 C14        -6.2018    1.9605    0.9477 C.3       1 <0>        -0.1478
     20 C15        -7.7303    1.9670    1.0228 C.3       1 <0>        -0.0060
     21 C16        -7.6973    0.5437    2.9838 C.3       1 <0>        -0.0008
     22 C17        -6.1678    0.4947    2.9671 C.3       1 <0>        -0.1426
     23 C18        -9.6102    1.9619    2.5480 C.3       1 <0>         0.0490
     24 C19       -10.0118    3.3699    2.1912 C.ar      1 <0>        -0.1633
     25 C20       -10.0705    4.3417    3.1726 C.ar      1 <0>        -0.0945
     26 C21       -10.4337    5.6344    2.8443 C.ar      1 <0>        -0.1130
     27 C22       -10.7489    5.9529    1.5366 C.ar      1 <0>        -0.0839
     28 C23       -10.6958    4.9798    0.5562 C.ar      1 <0>        -0.1136
     29 C24       -10.3271    3.6883    0.8835 C.ar      1 <0>        -0.0969
     30 H1          5.7590   -1.8445   -1.3189 H         1 <0>         0.0965
     31 H2          6.6784   -0.3225   -1.3988 H         1 <0>         0.1021
     32 H3          6.3511   -1.0828    0.1769 H         1 <0>         0.0967
     33 H4          3.7175   -1.4708    0.4373 H         1 <0>         0.4197
     34 H5          3.3185    1.9884    0.0060 H         1 <0>         0.1602
     35 H6          1.1794    3.2045    0.0444 H         1 <0>         0.1485
     36 H7          1.2259   -1.7476   -0.0254 H         1 <0>         0.1479
     37 H8         -4.0248    1.5767   -0.4353 H         1 <0>         0.0975
     38 H9         -4.0102   -0.2030   -0.4607 H         1 <0>         0.0997
     39 H10        -3.7668   -0.2362    2.0067 H         1 <0>         0.0828
     40 H11        -3.7814    1.5435    2.0321 H         1 <0>         0.0784
     41 H12        -6.0366   -0.1897    0.9269 H         1 <0>         0.0953
     42 H13        -5.8055    2.7967    1.5237 H         1 <0>         0.0911
     43 H14        -5.8881    2.0531   -0.0921 H         1 <0>         0.1129
     44 H15        -8.1263    1.1388    0.4353 H         1 <0>         0.1305
     45 H16        -8.1094    2.9083    0.6249 H         1 <0>         0.1296
     46 H17        -8.0935   -0.2779    2.3870 H         1 <0>         0.1315
     47 H18        -8.0525    0.4512    4.0101 H         1 <0>         0.1295
     48 H19        -5.8299   -0.4601    3.3702 H         1 <0>         0.1141
     49 H20        -5.7710    1.3078    3.5750 H         1 <0>         0.0892
     50 H21       -10.1029    1.2616    1.8735 H         1 <0>         0.1362
     51 H22        -9.9080    1.7482    3.5745 H         1 <0>         0.1346
     52 H23        -9.8285    4.0918    4.1950 H         1 <0>         0.1308
     53 H24       -10.4749    6.3947    3.6102 H         1 <0>         0.1361
     54 H25       -11.0364    6.9620    1.2808 H         1 <0>         0.1359
     55 H26       -10.9421    5.2286   -0.4655 H         1 <0>         0.1361
     56 H27       -10.2856    2.9281    0.1175 H         1 <0>         0.1307
     57 N3         -8.1416    1.8437    2.4374 N.4       1 <0>        -0.3928
     58 H28        -7.7046    2.5991    2.9783 H         1 <0>         0.4259
@<TRIPOS>BOND
     1    1    2 1
     2    1   30 1
     3    1   31 1
     4    1   32 1
     5    2    3 2
     6    2    4 am
     7    4    5 1
     8    4   33 1
     9    5   10 ar
    10    5    6 ar
    11    6    7 ar
    12    6   34 1
    13    7    8 ar
    14    7   35 1
    15    8   14 1
    16    8    9 ar
    17    9   10 ar
    18    9   11 1
    19   10   36 1
    20   11   12 2
    21   11   13 am
    22   13   14 am
    23   13   16 1
    24   14   15 2
    25   16   17 1
    26   16   37 1
    27   16   38 1
    28   17   18 1
    29   17   39 1
    30   17   40 1
    31   18   22 1
    32   18   19 1
    33   18   41 1
    34   19   20 1
    35   19   42 1
    36   19   43 1
    37   20   44 1
    38   20   45 1
    39   20   57 1
    40   21   22 1
    41   21   46 1
    42   21   47 1
    43   21   57 1
    44   22   48 1
    45   22   49 1
    46   23   24 1
    47   23   50 1
    48   23   51 1
    49   23   57 1
    50   24   29 ar
    51   24   25 ar
    52   25   26 ar
    53   25   52 1
    54   26   27 ar
    55   26   53 1
    56   27   28 ar
    57   27   54 1
    58   28   29 ar
    59   28   55 1
    60   29   56 1
    61   57   58 1
@<TRIPOS>MOLECULE
ZINC03814222
   54    56     0     0     0
SMALL
USER_CHARGES

@<TRIPOS>ATOM
      1 C1          2.9821    6.4588   -1.1651 C.3       1 <0>         0.0700
      2 N1          2.9618    5.6114    0.0298 N.am      1 <0>        -0.6143
      3 C2          2.9664    4.1528   -0.1064 C.3       1 <0>         0.1140
      4 C3          1.5258    3.6428   -0.1798 C.3       1 <0>        -0.1331
      5 C4          1.5306    2.1195   -0.3221 C.3       1 <0>        -0.0956
      6 C5          0.0970    1.6195   -0.5208 C.3       1 <0>        -0.1426
      7 C6          0.1015    0.0913   -0.6015 C.3       1 <0>         0.0002
      8 C7          2.0575   -0.0356    0.8234 C.3       1 <0>        -0.0064
      9 C8          2.1115    1.4889    0.9466 C.3       1 <0>        -0.1451
     10 C9          0.5586   -1.9288    0.6518 C.3       1 <0>         0.0486
     11 C10         1.3577   -2.4780    1.8055 C.ar      1 <0>        -0.1607
     12 C11         2.6869   -2.8134    1.6280 C.ar      1 <0>        -0.0964
     13 C12         3.4213   -3.3121    2.6876 C.ar      1 <0>        -0.1143
     14 C13         2.8235   -3.4858    3.9218 C.ar      1 <0>        -0.0845
     15 C14         1.4927   -3.1558    4.0978 C.ar      1 <0>        -0.1130
     16 C15         0.7599   -2.6517    3.0397 C.ar      1 <0>        -0.0946
     17 C16         2.9389    6.1738    1.2544 C.2       1 <0>         0.5660
     18 O1          2.8392    5.4735    2.2430 O.2       1 <0>        -0.5330
     19 C17         3.0351    7.6423    1.3954 C.ar      1 <0>        -0.1400
     20 C18         3.8197    8.1996    2.4063 C.ar      1 <0>        -0.0657
     21 C19         3.9093    9.5707    2.5291 C.ar      1 <0>        -0.1228
     22 C20         3.2147   10.3930    1.6598 C.ar      1 <0>        -0.0915
     23 C21         2.4306    9.8471    0.6591 C.ar      1 <0>        -0.1252
     24 C22         2.3370    8.4775    0.5218 C.ar      1 <0>        -0.0946
     25 H1          1.9627    6.7429   -1.4264 H         1 <0>         0.0617
     26 H2          3.5691    7.3551   -0.9649 H         1 <0>         0.0820
     27 H3          3.4295    5.9088   -1.9930 H         1 <0>         0.0755
     28 H4          3.4655    3.7090    0.7550 H         1 <0>         0.0848
     29 H5          3.4972    3.8746   -1.0169 H         1 <0>         0.0809
     30 H6          1.0267    4.0866   -1.0413 H         1 <0>         0.0756
     31 H7          0.9951    3.9210    0.7307 H         1 <0>         0.0756
     32 H8          2.1380    1.8349   -1.1813 H         1 <0>         0.0905
     33 H9         -0.3072    2.0316   -1.4454 H         1 <0>         0.1122
     34 H10        -0.5192    1.9378    0.3201 H         1 <0>         0.0884
     35 H11        -0.9195   -0.2686   -0.7286 H         1 <0>         0.1288
     36 H12         0.7066   -0.2258   -1.4508 H         1 <0>         0.1300
     37 H13         2.4572   -0.4877    1.7311 H         1 <0>         0.1312
     38 H14         2.6535   -0.3521   -0.0327 H         1 <0>         0.1278
     39 H15         1.5270    1.8051    1.8105 H         1 <0>         0.0897
     40 H16         3.1465    1.8076    1.0703 H         1 <0>         0.1120
     41 H17        -0.4869   -2.2156    0.7648 H         1 <0>         0.1336
     42 H18         0.9468   -2.3318   -0.2836 H         1 <0>         0.1356
     43 H19         3.1528   -2.6818    0.6625 H         1 <0>         0.1301
     44 H20         4.4611   -3.5697    2.5502 H         1 <0>         0.1360
     45 H21         3.3963   -3.8790    4.7487 H         1 <0>         0.1358
     46 H22         1.0257   -3.2915    5.0621 H         1 <0>         0.1359
     47 H23        -0.2799   -2.3938    3.1772 H         1 <0>         0.1306
     48 H24         4.3588    7.5587    3.0884 H         1 <0>         0.1303
     49 H25         4.5196   10.0032    3.3081 H         1 <0>         0.1327
     50 H26         3.2852   11.4658    1.7625 H         1 <0>         0.1307
     51 H27         1.8910   10.4944   -0.0163 H         1 <0>         0.1315
     52 H28         1.7246    8.0526   -0.2598 H         1 <0>         0.1317
     53 N2          0.6493   -0.4541    0.6588 N.4       1 <0>        -0.3923
     54 H29         0.0996   -0.0901    1.4459 H         1 <0>         0.4258
@<TRIPOS>BOND
     1    1    2 1
     2    1   25 1
     3    1   26 1
     4    1   27 1
     5    2    3 1
     6    2   17 am
     7    3    4 1
     8    3   28 1
     9    3   29 1
    10    4    5 1
    11    4   30 1
    12    4   31 1
    13    5    9 1
    14    5    6 1
    15    5   32 1
    16    6    7 1
    17    6   33 1
    18    6   34 1
    19    7   35 1
    20    7   36 1
    21    7   53 1
    22    8    9 1
    23    8   37 1
    24    8   38 1
    25    8   53 1
    26    9   39 1
    27    9   40 1
    28   10   11 1
    29   10   41 1
    30   10   42 1
    31   10   53 1
    32   11   16 ar
    33   11   12 ar
    34   12   13 ar
    35   12   43 1
    36   13   14 ar
    37   13   44 1
    38   14   15 ar
    39   14   45 1
    40   15   16 ar
    41   15   46 1
    42   16   47 1
    43   17   18 2
    44   17   19 1
    45   19   24 ar
    46   19   20 ar
    47   20   21 ar
    48   20   48 1
    49   21   22 ar
    50   21   49 1
    51   22   23 ar
    52   22   50 1
    53   23   24 ar
    54   23   51 1
    55   24   52 1
    56   53   54 1
@<TRIPOS>MOLECULE
ZINC03814223
   55    58     0     0     0
SMALL
USER_CHARGES

@<TRIPOS>ATOM
      1 C1          4.7734    0.1897   -0.0409 C.3       1 <0>         0.0201
      2 O1          3.5897   -0.6109   -0.0343 O.3       1 <0>        -0.3031
      3 C2          2.4020    0.0455   -0.0198 C.ar      1 <0>         0.1643
      4 C3          2.3800    1.4336   -0.0117 C.ar      1 <0>        -0.1923
      5 C4          1.1762    2.1147    0.0022 C.ar      1 <0>         0.0057
      6 C5         -0.0171    1.4065    0.0098 C.ar      1 <0>        -0.1925
      7 C6          0.0021   -0.0041    0.0020 C.ar      1 <0>        -0.1028
      8 C7          1.2108   -0.6769   -0.0127 C.ar      1 <0>        -0.0736
      9 C8         -1.4146   -0.4272    0.0133 C.2       1 <0>         0.5794
     10 O2         -1.8122   -1.5747    0.0105 O.2       1 <0>        -0.4546
     11 N1         -2.1891    0.6727    0.0266 N.am      1 <0>        -0.5789
     12 C9         -1.4417    1.7910    0.0313 C.2       1 <0>         0.5830
     13 O3         -1.8684    2.9283    0.0432 O.2       1 <0>        -0.4668
     14 C10        -3.6539    0.6548    0.0400 C.3       1 <0>         0.1091
     15 C11        -4.1505    0.6405    1.4871 C.3       1 <0>        -0.1354
     16 C12        -5.6803    0.6218    1.5011 C.3       1 <0>        -0.0954
     17 C13        -6.2135    1.9301    0.9107 C.3       1 <0>        -0.1477
     18 C14        -7.7421    1.9313    0.9833 C.3       1 <0>        -0.0059
     19 C15        -7.7068    0.5249    2.9564 C.3       1 <0>        -0.0007
     20 C16        -6.1771    0.4818    2.9427 C.3       1 <0>        -0.1426
     21 C17        -9.6246    1.9318    2.5053 C.3       1 <0>         0.0489
     22 C18       -10.0312    3.3350    2.1358 C.ar      1 <0>        -0.1631
     23 C19       -10.0953    4.3150    3.1087 C.ar      1 <0>        -0.0945
     24 C20       -10.4631    5.6034    2.7688 C.ar      1 <0>        -0.1130
     25 C21       -10.7774    5.9094    1.4579 C.ar      1 <0>        -0.0840
     26 C22       -10.7188    4.9281    0.4860 C.ar      1 <0>        -0.1136
     27 C23       -10.3455    3.6410    0.8249 C.ar      1 <0>        -0.0969
     28 H1          4.7947    0.8141    0.8523 H         1 <0>         0.0641
     29 H2          5.6500   -0.4580   -0.0524 H         1 <0>         0.1113
     30 H3          4.7783    0.8236   -0.9275 H         1 <0>         0.0644
     31 H4          3.3086    1.9850   -0.0166 H         1 <0>         0.1506
     32 H5          1.1651    3.1946    0.0077 H         1 <0>         0.1471
     33 H6          1.2309   -1.7567   -0.0191 H         1 <0>         0.1534
     34 H7         -4.0328    1.5431   -0.4654 H         1 <0>         0.0976
     35 H8         -4.0111   -0.2367   -0.4755 H         1 <0>         0.0999
     36 H9         -3.7716   -0.2478    1.9925 H         1 <0>         0.0831
     37 H10        -3.7933    1.5320    2.0026 H         1 <0>         0.0783
     38 H11        -6.0398   -0.2195    0.9086 H         1 <0>         0.0954
     39 H12        -5.8215    2.7728    1.4802 H         1 <0>         0.0910
     40 H13        -5.8985    2.0150   -0.1294 H         1 <0>         0.1129
     41 H14        -8.1339    1.0964    0.4022 H         1 <0>         0.1304
     42 H15        -8.1243    2.8676    0.5767 H         1 <0>         0.1295
     43 H16        -8.0988   -0.3033    2.3661 H         1 <0>         0.1315
     44 H17        -8.0634    0.4398    3.9829 H         1 <0>         0.1295
     45 H18        -5.8362   -0.4681    3.3545 H         1 <0>         0.1142
     46 H19        -5.7846    1.3017    3.5442 H         1 <0>         0.0891
     47 H20       -10.1134    1.2237    1.8361 H         1 <0>         0.1362
     48 H21        -9.9233    1.7257    3.5332 H         1 <0>         0.1347
     49 H22        -9.8540    4.0748    4.1337 H         1 <0>         0.1308
     50 H23       -10.5085    6.3701    3.5281 H         1 <0>         0.1360
     51 H24       -11.0683    6.9151    1.1930 H         1 <0>         0.1359
     52 H25       -10.9643    5.1672   -0.5382 H         1 <0>         0.1360
     53 H26       -10.2997    2.8744    0.0655 H         1 <0>         0.1307
     54 N2         -8.1554    1.8184    2.3981 N.4       1 <0>        -0.3927
     55 H27        -7.7223    2.5802    2.9333 H         1 <0>         0.4259
@<TRIPOS>BOND
     1    1    2 1
     2    1   28 1
     3    1   29 1
     4    1   30 1
     5    2    3 1
     6    3    8 ar
     7    3    4 ar
     8    4    5 ar
     9    4   31 1
    10    5    6 ar
    11    5   32 1
    12    6   12 1
    13    6    7 ar
    14    7    8 ar
    15    7    9 1
    16    8   33 1
    17    9   10 2
    18    9   11 am
    19   11   12 am
    20   11   14 1
    21   12   13 2
    22   14   15 1
    23   14   34 1
    24   14   35 1
    25   15   16 1
    26   15   36 1
    27   15   37 1
    28   16   20 1
    29   16   17 1
    30   16   38 1
    31   17   18 1
    32   17   39 1
    33   17   40 1
    34   18   41 1
    35   18   42 1
    36   18   54 1
    37   19   20 1
    38   19   43 1
    39   19   44 1
    40   19   54 1
    41   20   45 1
    42   20   46 1
    43   21   22 1
    44   21   47 1
    45   21   48 1
    46   21   54 1
    47   22   27 ar
    48   22   23 ar
    49   23   24 ar
    50   23   49 1
    51   24   25 ar
    52   24   50 1
    53   25   26 ar
    54   25   51 1
    55   26   27 ar
    56   26   52 1
    57   27   53 1
    58   54   55 1
@<TRIPOS>MOLECULE
ZINC03814224
   68    72     0     0     0
SMALL
USER_CHARGES

@<TRIPOS>ATOM
      1 C1          9.3304    2.1591   -0.0747 C.ar      1 <0>        -0.1074
      2 C2          8.8253    1.6936    1.1249 C.ar      1 <0>        -0.1209
      3 C3          7.7922    0.7751    1.1299 C.ar      1 <0>        -0.0999
      4 C4          7.2646    0.3217   -0.0646 C.ar      1 <0>        -0.1176
      5 C5          7.7736    0.7829   -1.2643 C.ar      1 <0>        -0.0996
      6 C6          8.8029    1.7057   -1.2692 C.ar      1 <0>        -0.1206
      7 C7          6.1387   -0.6799   -0.0592 C.3       1 <0>         0.1613
      8 N1          4.8559    0.0274   -0.0436 N.am      1 <0>        -0.7169
      9 C8          3.7022   -0.6693   -0.0364 C.2       1 <0>         0.5553
     10 O1          3.7261   -1.8844   -0.0427 O.2       1 <0>        -0.5190
     11 C9          2.4061    0.0453   -0.0207 C.ar      1 <0>        -0.1036
     12 C10         2.3806    1.4397   -0.0129 C.ar      1 <0>        -0.0594
     13 C11         1.1728    2.1163    0.0022 C.ar      1 <0>        -0.0459
     14 C12        -0.0170    1.4057    0.0098 C.ar      1 <0>        -0.1214
     15 C13         0.0021   -0.0041    0.0020 C.ar      1 <0>        -0.1487
     16 C14         1.2107   -0.6788   -0.0131 C.ar      1 <0>         0.0141
     17 C15        -1.4141   -0.4281    0.0132 C.2       1 <0>         0.5781
     18 O2         -1.8099   -1.5763    0.0102 O.2       1 <0>        -0.4502
     19 N2         -2.1910    0.6697    0.0266 N.am      1 <0>        -0.5777
     20 C16        -1.4466    1.7900    0.0314 C.2       1 <0>         0.5779
     21 O3         -1.8752    2.9261    0.0439 O.2       1 <0>        -0.4571
     22 C17        -3.6558    0.6481    0.0400 C.3       1 <0>         0.1087
     23 C18        -4.1524    0.6326    1.4871 C.3       1 <0>        -0.1357
     24 C19        -5.6822    0.6100    1.5011 C.3       1 <0>        -0.0955
     25 C20        -6.2186    1.9169    0.9107 C.3       1 <0>        -0.1476
     26 C21        -7.7473    1.9142    0.9832 C.3       1 <0>        -0.0060
     27 C22        -7.7084    0.5079    2.9563 C.3       1 <0>        -0.0009
     28 C23        -6.1786    0.4687    2.9427 C.3       1 <0>        -0.1426
     29 C24        -9.6298    1.9099    2.5053 C.3       1 <0>         0.0489
     30 C25       -10.0399    3.3122    2.1358 C.ar      1 <0>        -0.1632
     31 C26       -10.1064    4.2919    3.1087 C.ar      1 <0>        -0.0945
     32 C27       -10.4775    5.5794    2.7688 C.ar      1 <0>        -0.1130
     33 C28       -10.7926    5.8846    1.4579 C.ar      1 <0>        -0.0840
     34 C29       -10.7315    4.9035    0.4860 C.ar      1 <0>        -0.1136
     35 C30       -10.3549    3.6174    0.8249 C.ar      1 <0>        -0.0969
     36 H1         10.1371    2.8772   -0.0786 H         1 <0>         0.1257
     37 H2          9.2374    2.0478    2.0582 H         1 <0>         0.1261
     38 H3          7.3975    0.4114    2.0672 H         1 <0>         0.1246
     39 H4          7.3644    0.4254   -2.1976 H         1 <0>         0.1249
     40 H5          9.1973    2.0696   -2.2065 H         1 <0>         0.1263
     41 H6          6.2171   -1.3098    0.8270 H         1 <0>         0.0827
     42 H7          6.2004   -1.3008   -0.9529 H         1 <0>         0.0829
     43 H8          4.8368    0.9972   -0.0386 H         1 <0>         0.4023
     44 H9          3.3073    1.9943   -0.0184 H         1 <0>         0.1484
     45 H10         1.1578    3.1962    0.0078 H         1 <0>         0.1528
     46 H11         1.2298   -1.7587   -0.0195 H         1 <0>         0.1585
     47 H12        -4.0369    1.5355   -0.4654 H         1 <0>         0.0983
     48 H13        -4.0108   -0.2442   -0.4756 H         1 <0>         0.1014
     49 H14        -3.7713   -0.2548    1.9925 H         1 <0>         0.0837
     50 H15        -3.7974    1.5249    2.0026 H         1 <0>         0.0784
     51 H16        -6.0395   -0.2322    0.9086 H         1 <0>         0.0957
     52 H17        -5.8288    2.7606    1.4802 H         1 <0>         0.0909
     53 H18        -5.9038    2.0026   -0.1294 H         1 <0>         0.1127
     54 H19        -8.1370    1.0784    0.4022 H         1 <0>         0.1306
     55 H20        -8.1318    2.8496    0.5767 H         1 <0>         0.1296
     56 H21        -8.0983   -0.3213    2.3660 H         1 <0>         0.1317
     57 H22        -8.0648    0.4219    3.9828 H         1 <0>         0.1297
     58 H23        -5.8353   -0.4804    3.3544 H         1 <0>         0.1144
     59 H24        -5.7882    1.2896    3.5442 H         1 <0>         0.0892
     60 H25       -10.1167    1.2007    1.8360 H         1 <0>         0.1363
     61 H26        -9.9279    1.7031    3.5331 H         1 <0>         0.1347
     62 H27        -9.8646    4.0524    4.1337 H         1 <0>         0.1308
     63 H28       -10.5249    6.3460    3.5281 H         1 <0>         0.1361
     64 H29       -11.0861    6.8896    1.1930 H         1 <0>         0.1359
     65 H30       -10.9776    5.1420   -0.5382 H         1 <0>         0.1361
     66 H31       -10.3072    2.8509    0.0655 H         1 <0>         0.1307
     67 N3         -8.1602    1.8003    2.3981 N.4       1 <0>        -0.3927
     68 H32        -7.7291    2.5632    2.9332 H         1 <0>         0.4258
@<TRIPOS>BOND
     1    1    6 ar
     2    1    2 ar
     3    1   36 1
     4    2    3 ar
     5    2   37 1
     6    3    4 ar
     7    3   38 1
     8    4    5 ar
     9    4    7 1
    10    5    6 ar
    11    5   39 1
    12    6   40 1
    13    7    8 1
    14    7   41 1
    15    7   42 1
    16    8    9 am
    17    8   43 1
    18    9   10 2
    19    9   11 1
    20   11   16 ar
    21   11   12 ar
    22   12   13 ar
    23   12   44 1
    24   13   14 ar
    25   13   45 1
    26   14   20 1
    27   14   15 ar
    28   15   16 ar
    29   15   17 1
    30   16   46 1
    31   17   18 2
    32   17   19 am
    33   19   20 am
    34   19   22 1
    35   20   21 2
    36   22   23 1
    37   22   47 1
    38   22   48 1
    39   23   24 1
    40   23   49 1
    41   23   50 1
    42   24   28 1
    43   24   25 1
    44   24   51 1
    45   25   26 1
    46   25   52 1
    47   25   53 1
    48   26   54 1
    49   26   55 1
    50   26   67 1
    51   27   28 1
    52   27   56 1
    53   27   57 1
    54   27   67 1
    55   28   58 1
    56   28   59 1
    57   29   30 1
    58   29   60 1
    59   29   61 1
    60   29   67 1
    61   30   35 ar
    62   30   31 ar
    63   31   32 ar
    64   31   62 1
    65   32   33 ar
    66   32   63 1
    67   33   34 ar
    68   33   64 1
    69   34   35 ar
    70   34   65 1
    71   35   66 1
    72   67   68 1
@<TRIPOS>MOLECULE
ZINC03814225
   63    67     0     0     0
SMALL
USER_CHARGES

@<TRIPOS>ATOM
      1 C1         17.1503   -2.0102   -0.0254 C.ar      1 <0>        -0.0839
      2 C2         16.9517   -1.0222   -0.9715 C.ar      1 <0>        -0.1135
      3 C3         16.5566    0.2426   -0.5777 C.ar      1 <0>        -0.0969
      4 C4         16.3606    0.5195    0.7624 C.ar      1 <0>        -0.1634
      5 C5         16.5647   -0.4670    1.7091 C.ar      1 <0>        -0.0945
      6 C6         16.9543   -1.7334    1.3147 C.ar      1 <0>        -0.1129
      7 C7         15.9303    1.8984    1.1919 C.3       1 <0>         0.0490
      8 C8         14.0058    3.2104    1.8515 C.3       1 <0>        -0.0008
      9 C9         12.4819    3.1832    1.9895 C.3       1 <0>        -0.1426
     10 C10        11.8512    3.0362    0.6020 C.3       1 <0>        -0.0954
     11 C11        12.3811    1.7603   -0.0583 C.3       1 <0>        -0.1480
     12 C12        13.9080    1.8288   -0.1369 C.3       1 <0>        -0.0059
     13 C13        10.3299    2.9472    0.7387 C.3       1 <0>        -0.1354
     14 C14         9.6933    2.9258   -0.6524 C.3       1 <0>         0.1085
     15 N1          8.2366    2.8406   -0.5216 N.am      1 <0>        -0.5778
     16 C15         7.4166    3.9038   -0.4410 C.2       1 <0>         0.5760
     17 O1          7.7607    5.0680   -0.4651 O.2       1 <0>        -0.4516
     18 C16         6.0240    3.4164   -0.3190 C.ar      1 <0>        -0.1196
     19 C17         4.7907    4.0387   -0.2041 C.ar      1 <0>        -0.0475
     20 C18         3.6391    3.2767   -0.1108 C.ar      1 <0>        -0.0577
     21 C19         3.7141    1.8831   -0.1212 C.ar      1 <0>        -0.1251
     22 C20         4.9548    1.2476   -0.2368 C.ar      1 <0>         0.0066
     23 C21         6.1064    2.0088   -0.3354 C.ar      1 <0>        -0.1506
     24 C22         7.5438    1.6891   -0.4667 C.2       1 <0>         0.5800
     25 O2          8.0198    0.5728   -0.5161 O.2       1 <0>        -0.4563
     26 C23         2.4787    1.0766   -0.0158 C.2       1 <0>         0.4380
     27 O3          2.3924    0.0174   -0.6052 O.2       1 <0>        -0.4285
     28 C24         1.3498    1.5587    0.8059 C.ar      1 <0>        -0.1688
     29 C25         0.1269    0.8837    0.7834 C.ar      1 <0>        -0.0557
     30 C26        -0.9246    1.3427    1.5487 C.ar      1 <0>        -0.1277
     31 C27        -0.7673    2.4634    2.3454 C.ar      1 <0>        -0.0809
     32 C28         0.4415    3.1368    2.3730 C.ar      1 <0>        -0.1297
     33 C29         1.4999    2.6921    1.6088 C.ar      1 <0>        -0.0857
     34 H1         17.4582   -2.9986   -0.3332 H         1 <0>         0.1360
     35 H2         17.1048   -1.2385   -2.0185 H         1 <0>         0.1361
     36 H3         16.4014    1.0145   -1.3169 H         1 <0>         0.1307
     37 H4         16.4158   -0.2495    2.7564 H         1 <0>         0.1308
     38 H5         17.1091   -2.5054    2.0539 H         1 <0>         0.1361
     39 H6         16.3181    2.6355    0.4886 H         1 <0>         0.1363
     40 H7         16.3200    2.1068    2.1883 H         1 <0>         0.1347
     41 H8         14.2998    4.0622    1.2383 H         1 <0>         0.1316
     42 H9         14.4583    3.3007    2.8391 H         1 <0>         0.1297
     43 H10        12.1413    4.1118    2.4475 H         1 <0>         0.1142
     44 H11        12.1880    2.3396    2.6141 H         1 <0>         0.0892
     45 H12        12.1121    3.8995   -0.0101 H         1 <0>         0.0956
     46 H13        12.0857    0.8943    0.5340 H         1 <0>         0.0911
     47 H14        11.9686    1.6724   -1.0634 H         1 <0>         0.1128
     48 H15        14.2024    2.6871   -0.7408 H         1 <0>         0.1305
     49 H16        14.2894    0.9156   -0.5936 H         1 <0>         0.1298
     50 H17         9.9637    3.8115    1.2926 H         1 <0>         0.0834
     51 H18        10.0659    2.0346    1.2731 H         1 <0>         0.0786
     52 H19        10.0595    2.0615   -1.2064 H         1 <0>         0.0985
     53 H20         9.9573    3.8384   -1.1869 H         1 <0>         0.1011
     54 H21         4.7282    5.1168   -0.1919 H         1 <0>         0.1544
     55 H22         2.6783    3.7626   -0.0259 H         1 <0>         0.1594
     56 H23         5.0137    0.1693   -0.2494 H         1 <0>         0.1526
     57 H24         0.0038    0.0070    0.1647 H         1 <0>         0.1369
     58 H25        -1.8718    0.8243    1.5292 H         1 <0>         0.1342
     59 H26        -1.5928    2.8163    2.9456 H         1 <0>         0.1318
     60 H27         0.5561    4.0128    2.9941 H         1 <0>         0.1329
     61 H28         2.4425    3.2190    1.6307 H         1 <0>         0.1359
     62 N2         14.4541    1.9453    1.2321 N.4       1 <0>        -0.3928
     63 H29        14.1108    1.1586    1.7956 H         1 <0>         0.4260
@<TRIPOS>BOND
     1    1    6 ar
     2    1    2 ar
     3    1   34 1
     4    2    3 ar
     5    2   35 1
     6    3    4 ar
     7    3   36 1
     8    4    5 ar
     9    4    7 1
    10    5    6 ar
    11    5   37 1
    12    6   38 1
    13    7   39 1
    14    7   40 1
    15    7   62 1
    16    8    9 1
    17    8   41 1
    18    8   42 1
    19    8   62 1
    20    9   10 1
    21    9   43 1
    22    9   44 1
    23   10   11 1
    24   10   13 1
    25   10   45 1
    26   11   12 1
    27   11   46 1
    28   11   47 1
    29   12   48 1
    30   12   49 1
    31   12   62 1
    32   13   14 1
    33   13   50 1
    34   13   51 1
    35   14   15 1
    36   14   52 1
    37   14   53 1
    38   15   24 am
    39   15   16 am
    40   16   17 2
    41   16   18 1
    42   18   23 ar
    43   18   19 ar
    44   19   20 ar
    45   19   54 1
    46   20   21 ar
    47   20   55 1
    48   21   22 ar
    49   21   26 1
    50   22   23 ar
    51   22   56 1
    52   23   24 1
    53   24   25 2
    54   26   27 2
    55   26   28 1
    56   28   33 ar
    57   28   29 ar
    58   29   30 ar
    59   29   57 1
    60   30   31 ar
    61   30   58 1
    62   31   32 ar
    63   31   59 1
    64   32   33 ar
    65   32   60 1
    66   33   61 1
    67   62   63 1
@<TRIPOS>MOLECULE
ZINC03814226
   53    56     0     0     0
SMALL
USER_CHARGES

@<TRIPOS>ATOM
      1 C1        -11.9861    8.1169    1.4233 C.ar      1 <0>        -0.0839
      2 C2        -11.9275    7.1347    0.4523 C.ar      1 <0>        -0.1136
      3 C3        -11.5611    5.8463    0.7938 C.ar      1 <0>        -0.0970
      4 C4        -11.2538    5.5399    2.1063 C.ar      1 <0>        -0.1633
      5 C5        -11.3180    6.5208    3.0782 C.ar      1 <0>        -0.0945
      6 C6        -11.6788    7.8106    2.7358 C.ar      1 <0>        -0.1130
      7 C7        -10.8549    4.1352    2.4786 C.3       1 <0>         0.0489
      8 C8         -8.9451    2.7206    2.9390 C.3       1 <0>        -0.0010
      9 C9         -7.4155    2.6709    2.9320 C.3       1 <0>        -0.1427
     10 C10        -6.9119    2.8078    1.4925 C.3       1 <0>        -0.0956
     11 C11        -7.4369    4.1179    0.8988 C.3       1 <0>        -0.1478
     12 C12        -8.9658    4.1256    0.9647 C.3       1 <0>        -0.0061
     13 C13        -5.3819    2.8200    1.4851 C.3       1 <0>        -0.1367
     14 C14        -4.8790    2.8310    0.0401 C.3       1 <0>         0.1096
     15 N1         -3.4141    2.8427    0.0330 N.am      1 <0>        -0.5755
     16 C15        -2.6616    3.9578    0.0472 C.2       1 <0>         0.5819
     17 O1         -3.0826    5.0969    0.0571 O.2       1 <0>        -0.4494
     18 C16        -1.2368    3.5647    0.0320 C.ar      1 <0>        -0.1390
     19 C17        -0.0402    4.2634    0.0248 C.ar      1 <0>         0.0004
     20 C18         1.1601    3.5704    0.0101 C.ar      1 <0>        -0.0849
     21 C19         1.1711    2.1882    0.0026 C.ar      1 <0>        -0.0343
     22 C20        -0.0180    1.4759    0.0102 C.ar      1 <0>         0.0228
     23 C21        -1.2256    2.1553    0.0195 C.ar      1 <0>        -0.0846
     24 C22        -2.6441    1.7396    0.0239 C.2       1 <0>         0.5622
     25 O2         -3.0470    0.5940    0.0196 O.2       1 <0>        -0.3980
     26 N2          0.0021   -0.0041    0.0020 N.pl3     1 <0>         0.0093
     27 O3          1.0650   -0.5986   -0.0113 O.2       1 <0>        -0.1489
     28 O4         -1.0443   -0.6274    0.0087 O.3       1 <0>        -0.1071
     29 H1        -12.2717    9.1237    1.1564 H         1 <0>         0.1359
     30 H2        -12.1676    7.3740   -0.5731 H         1 <0>         0.1361
     31 H3        -11.5153    5.0789    0.0352 H         1 <0>         0.1308
     32 H4        -11.0821    6.2805    4.1044 H         1 <0>         0.1308
     33 H5        -11.7243    8.5780    3.4943 H         1 <0>         0.1361
     34 H6        -11.3437    3.4287    1.8078 H         1 <0>         0.1365
     35 H7        -11.1589    3.9312    3.5053 H         1 <0>         0.1349
     36 H8         -9.3380    1.8935    2.3476 H         1 <0>         0.1321
     37 H9         -9.3064    2.6377    3.9640 H         1 <0>         0.1300
     38 H10        -7.0804    1.7199    3.3459 H         1 <0>         0.1149
     39 H11        -7.0221    3.4896    3.5346 H         1 <0>         0.0890
     40 H12        -7.2723    1.9675    0.8990 H         1 <0>         0.0968
     41 H13        -7.0438    4.9593    1.4694 H         1 <0>         0.0909
     42 H14        -7.1170    4.2006   -0.1399 H         1 <0>         0.1126
     43 H15        -9.3587    3.2920    0.3826 H         1 <0>         0.1309
     44 H16        -9.3423    5.0632    0.5558 H         1 <0>         0.1298
     45 H17        -5.0090    1.9304    1.9928 H         1 <0>         0.0847
     46 H18        -5.0232    3.7103    2.0015 H         1 <0>         0.0785
     47 H19        -5.2519    3.7206   -0.4675 H         1 <0>         0.1006
     48 H20        -5.2378    1.9407   -0.4763 H         1 <0>         0.1046
     49 H21        -0.0428    5.3434    0.0310 H         1 <0>         0.1650
     50 H22         2.0932    4.1141    0.0041 H         1 <0>         0.1718
     51 H23         2.1128    1.6595   -0.0088 H         1 <0>         0.1754
     52 N3         -9.3857    4.0154    2.3781 N.4       1 <0>        -0.3928
     53 H24        -8.9518    4.7757    2.9147 H         1 <0>         0.4257
@<TRIPOS>BOND
     1    1    6 ar
     2    1    2 ar
     3    1   29 1
     4    2    3 ar
     5    2   30 1
     6    3    4 ar
     7    3   31 1
     8    4    5 ar
     9    4    7 1
    10    5    6 ar
    11    5   32 1
    12    6   33 1
    13    7   34 1
    14    7   35 1
    15    7   52 1
    16    8    9 1
    17    8   36 1
    18    8   37 1
    19    8   52 1
    20    9   10 1
    21    9   38 1
    22    9   39 1
    23   10   11 1
    24   10   13 1
    25   10   40 1
    26   11   12 1
    27   11   41 1
    28   11   42 1
    29   12   43 1
    30   12   44 1
    31   12   52 1
    32   13   14 1
    33   13   45 1
    34   13   46 1
    35   14   15 1
    36   14   47 1
    37   14   48 1
    38   15   24 am
    39   15   16 am
    40   16   17 2
    41   16   18 1
    42   18   23 ar
    43   18   19 ar
    44   19   20 ar
    45   19   49 1
    46   20   21 ar
    47   20   50 1
    48   21   22 ar
    49   21   51 1
    50   22   23 ar
    51   22   26 1
    52   23   24 1
    53   24   25 2
    54   26   27 2
    55   26   28 1
    56   52   53 1
@<TRIPOS>MOLECULE
ZINC03814227
   53    56     0     0     0
SMALL
USER_CHARGES

@<TRIPOS>ATOM
      1 C1        -11.9798    8.0456    1.4216 C.ar      1 <0>        -0.0840
      2 C2        -11.9218    7.0639    0.4501 C.ar      1 <0>        -0.1136
      3 C3        -11.5571    5.7748    0.7910 C.ar      1 <0>        -0.0969
      4 C4        -11.2508    5.4673    2.1035 C.ar      1 <0>        -0.1632
      5 C5        -11.3143    6.4477    3.0759 C.ar      1 <0>        -0.0945
      6 C6        -11.6735    7.7381    2.7341 C.ar      1 <0>        -0.1130
      7 C7        -10.8537    4.0619    2.4751 C.3       1 <0>         0.0490
      8 C8         -8.9457    2.6448    2.9356 C.3       1 <0>        -0.0007
      9 C9         -7.4162    2.5934    2.9293 C.3       1 <0>        -0.1426
     10 C10        -6.9117    2.7306    1.4902 C.3       1 <0>        -0.0952
     11 C11        -7.4349    4.0416    0.8970 C.3       1 <0>        -0.1476
     12 C12        -8.9639    4.0510    0.9622 C.3       1 <0>        -0.0059
     13 C13        -5.3818    2.7410    1.4835 C.3       1 <0>        -0.1347
     14 C14        -4.8781    2.7524    0.0388 C.3       1 <0>         0.1095
     15 N1         -3.4131    2.7624    0.0325 N.am      1 <0>        -0.5792
     16 C15        -2.6594    3.8768    0.0474 C.2       1 <0>         0.5778
     17 O1         -3.0783    5.0168    0.0574 O.2       1 <0>        -0.4653
     18 C16        -1.2359    3.4799    0.0322 C.ar      1 <0>        -0.0961
     19 C17        -0.0387    4.1742    0.0249 C.ar      1 <0>        -0.0950
     20 C18         1.1642    3.4809    0.0101 C.ar      1 <0>        -0.0419
     21 C19         1.1800    2.1028    0.0021 C.ar      1 <0>        -0.1682
     22 C20        -0.0167    1.3829    0.0096 C.ar      1 <0>         0.3010
     23 C21        -1.2303    2.0687    0.0191 C.ar      1 <0>        -0.2560
     24 C22        -2.6445    1.6585    0.0231 C.2       1 <0>         0.5872
     25 O2         -3.0499    0.5130    0.0186 O.2       1 <0>        -0.4813
     26 N2          0.0021   -0.0041    0.0020 N.pl3     1 <0>        -0.8506
     27 H1        -12.2641    9.0528    1.1552 H         1 <0>         0.1359
     28 H2        -12.1611    7.3041   -0.5753 H         1 <0>         0.1360
     29 H3        -11.5118    5.0078    0.0320 H         1 <0>         0.1307
     30 H4        -11.0793    6.2065    4.1021 H         1 <0>         0.1308
     31 H5        -11.7185    8.5051    3.4930 H         1 <0>         0.1361
     32 H6        -11.3430    3.3564    1.8036 H         1 <0>         0.1361
     33 H7        -11.1584    3.8577    3.5015 H         1 <0>         0.1346
     34 H8         -9.3393    1.8186    2.3435 H         1 <0>         0.1313
     35 H9         -9.3077    2.5618    3.9604 H         1 <0>         0.1295
     36 H10        -7.0824    1.6418    3.3429 H         1 <0>         0.1138
     37 H11        -7.0222    3.4113    3.5326 H         1 <0>         0.0892
     38 H12        -7.2728    1.8911    0.8960 H         1 <0>         0.0948
     39 H13        -7.0412    4.8823    1.4683 H         1 <0>         0.0911
     40 H14        -7.1145    4.1247   -0.1415 H         1 <0>         0.1129
     41 H15        -9.3574    3.2182    0.3793 H         1 <0>         0.1303
     42 H16        -9.3390    4.9894    0.5536 H         1 <0>         0.1296
     43 H17        -5.0101    1.8507    1.9909 H         1 <0>         0.0822
     44 H18        -5.0222    3.6306    2.0007 H         1 <0>         0.0777
     45 H19        -5.2497    3.6427   -0.4685 H         1 <0>         0.0957
     46 H20        -5.2376    1.8628   -0.4783 H         1 <0>         0.0984
     47 H21        -0.0401    5.2542    0.0312 H         1 <0>         0.1408
     48 H22         2.0962    4.0266    0.0045 H         1 <0>         0.1462
     49 H23         2.1230    1.5766   -0.0098 H         1 <0>         0.1436
     50 H24         0.8486   -0.4776   -0.0086 H         1 <0>         0.4080
     51 H25        -0.8313   -0.5005    0.0073 H         1 <0>         0.4125
     52 N3         -9.3846    3.9406    2.3750 N.4       1 <0>        -0.3927
     53 H26        -8.9500    4.7001    2.9121 H         1 <0>         0.4259
@<TRIPOS>BOND
     1    1    6 ar
     2    1    2 ar
     3    1   27 1
     4    2    3 ar
     5    2   28 1
     6    3    4 ar
     7    3   29 1
     8    4    5 ar
     9    4    7 1
    10    5    6 ar
    11    5   30 1
    12    6   31 1
    13    7   32 1
    14    7   33 1
    15    7   52 1
    16    8    9 1
    17    8   34 1
    18    8   35 1
    19    8   52 1
    20    9   10 1
    21    9   36 1
    22    9   37 1
    23   10   11 1
    24   10   13 1
    25   10   38 1
    26   11   12 1
    27   11   39 1
    28   11   40 1
    29   12   41 1
    30   12   42 1
    31   12   52 1
    32   13   14 1
    33   13   43 1
    34   13   44 1
    35   14   15 1
    36   14   45 1
    37   14   46 1
    38   15   24 am
    39   15   16 am
    40   16   17 2
    41   16   18 1
    42   18   23 ar
    43   18   19 ar
    44   19   20 ar
    45   19   47 1
    46   20   21 ar
    47   20   48 1
    48   21   22 ar
    49   21   49 1
    50   22   23 ar
    51   22   26 1
    52   23   24 1
    53   24   25 2
    54   26   50 1
    55   26   51 1
    56   52   53 1
@<TRIPOS>MOLECULE
ZINC03814228
   65    69     0     0     0
SMALL
USER_CHARGES

@<TRIPOS>ATOM
      1 C1          8.0968   11.8106   -0.9777 C.ar      1 <0>        -0.0840
      2 C2          8.8832   11.2960    0.0360 C.ar      1 <0>        -0.1136
      3 C3          9.8909   10.3970   -0.2596 C.ar      1 <0>        -0.0969
      4 C4         10.1123   10.0130   -1.5689 C.ar      1 <0>        -0.1631
      5 C5          9.3296   10.5319   -2.5832 C.ar      1 <0>        -0.0945
      6 C6          8.3182   11.4265   -2.2870 C.ar      1 <0>        -0.1130
      7 C7         11.2111    9.0333   -1.8912 C.3       1 <0>         0.0489
      8 C8         11.6486    6.7018   -2.3741 C.3       1 <0>        -0.0010
      9 C9         11.0082    5.3133   -2.4387 C.3       1 <0>        -0.1424
     10 C10        10.5668    4.8943   -1.0337 C.3       1 <0>        -0.0956
     11 C11         9.5943    5.9393   -0.4798 C.3       1 <0>        -0.1473
     12 C12        10.2758    7.3096   -0.4719 C.3       1 <0>        -0.0060
     13 C13         9.8710    3.5333   -1.1010 C.3       1 <0>        -0.1346
     14 C14         9.5418    3.0582    0.3156 C.3       1 <0>         0.1090
     15 N1          8.8756    1.7551    0.2512 N.am      1 <0>        -0.5779
     16 C15         9.5144    0.5714    0.2773 C.2       1 <0>         0.5784
     17 O1         10.7163    0.4153    0.3567 O.2       1 <0>        -0.4553
     18 C16         8.5074   -0.5072    0.1938 C.ar      1 <0>        -0.1237
     19 C17         8.5705   -1.8901    0.1786 C.ar      1 <0>        -0.0531
     20 C18         7.4029   -2.6354    0.0896 C.ar      1 <0>        -0.0677
     21 C19         6.1757   -2.0112    0.0158 C.ar      1 <0>        -0.0992
     22 C20         6.0905   -0.6183    0.0297 C.ar      1 <0>         0.2353
     23 C21         7.2564    0.1400    0.1129 C.ar      1 <0>        -0.1934
     24 C22         7.5444    1.5845    0.1590 C.2       1 <0>         0.5860
     25 O2          6.7174    2.4736    0.1160 O.2       1 <0>        -0.4722
     26 N2          4.8513    0.0084   -0.0449 N.am      1 <0>        -0.6679
     27 C23         3.7756   -0.5538    0.5410 C.2       1 <0>         0.5662
     28 O3          3.8702   -1.6471    1.0637 O.2       1 <0>        -0.5062
     29 C24         2.4809    0.1591    0.5479 C.ar      1 <0>        -0.1452
     30 C25         1.3647   -0.4203    1.1538 C.ar      1 <0>        -0.0520
     31 C26         0.1594    0.2507    1.1571 C.ar      1 <0>        -0.1251
     32 C27         0.0552    1.4951    0.5612 C.ar      1 <0>        -0.0840
     33 C28         1.1576    2.0751   -0.0411 C.ar      1 <0>        -0.1268
     34 C29         2.3690    1.4151   -0.0511 C.ar      1 <0>        -0.0831
     35 H1          7.3091   12.5124   -0.7466 H         1 <0>         0.1359
     36 H2          8.7102   11.5960    1.0590 H         1 <0>         0.1360
     37 H3         10.5053    9.9950    0.5324 H         1 <0>         0.1307
     38 H4          9.5055   10.2352   -3.6067 H         1 <0>         0.1308
     39 H5          7.7036   11.8283   -3.0789 H         1 <0>         0.1361
     40 H6         12.0161    9.1379   -1.1638 H         1 <0>         0.1363
     41 H7         11.5961    9.2350   -2.8908 H         1 <0>         0.1348
     42 H8         12.5235    6.6683   -1.7247 H         1 <0>         0.1317
     43 H9         11.9511    7.0092   -3.3751 H         1 <0>         0.1297
     44 H10        11.7336    4.5955   -2.8216 H         1 <0>         0.1144
     45 H11        10.1413    5.3428   -3.0988 H         1 <0>         0.0890
     46 H12        11.4388    4.8258   -0.3832 H         1 <0>         0.0955
     47 H13         8.7052    5.9786   -1.1091 H         1 <0>         0.0907
     48 H14         9.3096    5.6686    0.5369 H         1 <0>         0.1126
     49 H15        11.1570    7.2732    0.1685 H         1 <0>         0.1305
     50 H16         9.5811    8.0584   -0.0914 H         1 <0>         0.1295
     51 H17        10.5308    2.8113   -1.5822 H         1 <0>         0.0833
     52 H18         8.9501    3.6241   -1.6770 H         1 <0>         0.0778
     53 H19         8.8820    3.7802    0.7968 H         1 <0>         0.0971
     54 H20        10.4627    2.9674    0.8916 H         1 <0>         0.1000
     55 H21         9.5270   -2.3883    0.2363 H         1 <0>         0.1476
     56 H22         7.4562   -3.7140    0.0776 H         1 <0>         0.1524
     57 H23         5.2753   -2.6036   -0.0528 H         1 <0>         0.1617
     58 H24         4.7612    0.8501   -0.5185 H         1 <0>         0.4194
     59 H25         1.4445   -1.3918    1.6187 H         1 <0>         0.1400
     60 H26        -0.7049   -0.1964    1.6255 H         1 <0>         0.1355
     61 H27        -0.8919    2.0140    0.5622 H         1 <0>         0.1321
     62 H28         1.0696    3.0467   -0.5045 H         1 <0>         0.1317
     63 H29         3.2286    1.8687   -0.5219 H         1 <0>         0.1249
     64 N3         10.6541    7.6653   -1.8562 N.4       1 <0>        -0.3926
     65 H30         9.8169    7.6309   -2.4496 H         1 <0>         0.4257
@<TRIPOS>BOND
     1    1    6 ar
     2    1    2 ar
     3    1   35 1
     4    2    3 ar
     5    2   36 1
     6    3    4 ar
     7    3   37 1
     8    4    5 ar
     9    4    7 1
    10    5    6 ar
    11    5   38 1
    12    6   39 1
    13    7   40 1
    14    7   41 1
    15    7   64 1
    16    8    9 1
    17    8   42 1
    18    8   43 1
    19    8   64 1
    20    9   10 1
    21    9   44 1
    22    9   45 1
    23   10   11 1
    24   10   13 1
    25   10   46 1
    26   11   12 1
    27   11   47 1
    28   11   48 1
    29   12   49 1
    30   12   50 1
    31   12   64 1
    32   13   14 1
    33   13   51 1
    34   13   52 1
    35   14   15 1
    36   14   53 1
    37   14   54 1
    38   15   24 am
    39   15   16 am
    40   16   17 2
    41   16   18 1
    42   18   23 ar
    43   18   19 ar
    44   19   20 ar
    45   19   55 1
    46   20   21 ar
    47   20   56 1
    48   21   22 ar
    49   21   57 1
    50   22   23 ar
    51   22   26 1
    52   23   24 1
    53   24   25 2
    54   26   27 am
    55   26   58 1
    56   27   28 2
    57   27   29 1
    58   29   34 ar
    59   29   30 ar
    60   30   31 ar
    61   30   59 1
    62   31   32 ar
    63   31   60 1
    64   32   33 ar
    65   32   61 1
    66   33   34 ar
    67   33   62 1
    68   34   63 1
    69   64   65 1
@<TRIPOS>MOLECULE
ZINC03814229
   50    53     0     0     0
SMALL
USER_CHARGES

@<TRIPOS>ATOM
      1 C1          1.9363   13.6850   -1.2691 C.ar      1 <0>        -0.0838
      2 C2          2.7946   13.1735   -0.3138 C.ar      1 <0>        -0.1136
      3 C3          3.7701   12.2640   -0.6771 C.ar      1 <0>        -0.0969
      4 C4          3.8876   11.8662   -1.9957 C.ar      1 <0>        -0.1634
      5 C5          3.0330   12.3820   -2.9520 C.ar      1 <0>        -0.0945
      6 C6          2.0538   13.2873   -2.5878 C.ar      1 <0>        -0.1129
      7 C7          4.9514   10.8750   -2.3918 C.3       1 <0>         0.0491
      8 C8          5.3338    8.5358   -2.8841 C.3       1 <0>        -0.0008
      9 C9          4.6804    7.1519   -2.8859 C.3       1 <0>        -0.1428
     10 C10         4.3452    6.7492   -1.4471 C.3       1 <0>        -0.0952
     11 C11         3.4257    7.8069   -0.8305 C.3       1 <0>        -0.1485
     12 C12         4.1155    9.1718   -0.8882 C.3       1 <0>        -0.0059
     13 C13         3.6366    5.3932   -1.4476 C.3       1 <0>        -0.1366
     14 C14         3.4137    4.9338   -0.0053 C.3       1 <0>         0.1098
     15 N1          2.7352    3.6354   -0.0058 N.am      1 <0>        -0.5746
     16 C15         3.3653    2.4467   -0.0177 C.2       1 <0>         0.5824
     17 O1          4.5684    2.2825   -0.0297 O.2       1 <0>        -0.4506
     18 C16         2.3488    1.3749   -0.0130 C.ar      1 <0>        -0.2015
     19 C17         2.3967   -0.0144   -0.0209 C.ar      1 <0>         0.0023
     20 C18         1.1940   -0.7088   -0.0131 C.ar      1 <0>        -0.1427
     21 C19         0.0021   -0.0041    0.0020 C.ar      1 <0>         0.1330
     22 N2         -0.0158    1.3146    0.0093 N.ar      1 <0>        -0.4249
     23 C20         1.0995    2.0209    0.0024 C.ar      1 <0>         0.0937
     24 C21         1.3999    3.4740    0.0066 C.2       1 <0>         0.5879
     25 O2          0.5782    4.3675    0.0186 O.2       1 <0>        -0.4376
     26 H1          1.1737   14.3951   -0.9852 H         1 <0>         0.1360
     27 H2          2.7028   13.4843    0.7164 H         1 <0>         0.1361
     28 H3          4.4407   11.8644    0.0693 H         1 <0>         0.1307
     29 H4          3.1276   12.0746   -3.9830 H         1 <0>         0.1308
     30 H5          1.3830   13.6866   -3.3341 H         1 <0>         0.1361
     31 H6          5.8106   10.9800   -1.7294 H         1 <0>         0.1363
     32 H7          5.2599   11.0645   -3.4199 H         1 <0>         0.1347
     33 H8          6.2557    8.5014   -2.3035 H         1 <0>         0.1316
     34 H9          5.5607    8.8316   -3.9083 H         1 <0>         0.1297
     35 H10         5.3691    6.4249   -3.3163 H         1 <0>         0.1143
     36 H11         3.7656    7.1822   -3.4778 H         1 <0>         0.0894
     37 H12         5.2640    6.6799   -0.8648 H         1 <0>         0.0960
     38 H13         2.4911    7.8475   -1.3900 H         1 <0>         0.0915
     39 H14         3.2179    7.5478    0.2077 H         1 <0>         0.1131
     40 H15         5.0430    9.1344   -0.3170 H         1 <0>         0.1306
     41 H16         3.4575    9.9296   -0.4629 H         1 <0>         0.1299
     42 H17         4.2523    4.6617   -1.9709 H         1 <0>         0.0840
     43 H18         2.6748    5.4860   -1.9521 H         1 <0>         0.0793
     44 H19         2.7980    5.6653    0.5180 H         1 <0>         0.1001
     45 H20         4.3755    4.8410    0.4992 H         1 <0>         0.1035
     46 H21         3.3411   -0.5382   -0.0331 H         1 <0>         0.1580
     47 H22         1.1884   -1.7887   -0.0193 H         1 <0>         0.1624
     48 H23        -0.9323   -0.5456    0.0077 H         1 <0>         0.1815
     49 N3          4.3890    9.5118   -2.3009 N.4       1 <0>        -0.3929
     50 H24         3.5084    9.4786   -2.8279 H         1 <0>         0.4260
@<TRIPOS>BOND
     1    1    6 ar
     2    1    2 ar
     3    1   26 1
     4    2    3 ar
     5    2   27 1
     6    3    4 ar
     7    3   28 1
     8    4    5 ar
     9    4    7 1
    10    5    6 ar
    11    5   29 1
    12    6   30 1
    13    7   31 1
    14    7   32 1
    15    7   49 1
    16    8    9 1
    17    8   33 1
    18    8   34 1
    19    8   49 1
    20    9   10 1
    21    9   35 1
    22    9   36 1
    23   10   11 1
    24   10   13 1
    25   10   37 1
    26   11   12 1
    27   11   38 1
    28   11   39 1
    29   12   40 1
    30   12   41 1
    31   12   49 1
    32   13   14 1
    33   13   42 1
    34   13   43 1
    35   14   15 1
    36   14   44 1
    37   14   45 1
    38   15   24 am
    39   15   16 am
    40   16   17 2
    41   16   18 1
    42   18   23 ar
    43   18   19 ar
    44   19   20 ar
    45   19   46 1
    46   20   21 ar
    47   20   47 1
    48   21   22 ar
    49   21   48 1
    50   22   23 ar
    51   23   24 1
    52   24   25 2
    53   49   50 1
@<TRIPOS>MOLECULE
ZINC03814230
   55    58     0     0     0
SMALL
USER_CHARGES

@<TRIPOS>ATOM
      1 C1        -11.2161    2.1328    1.6171 C.ar      1 <0>        -0.0843
      2 C2        -10.6882    1.2798    0.6660 C.ar      1 <0>        -0.1137
      3 C3         -9.7115    0.3683    1.0211 C.ar      1 <0>        -0.0969
      4 C4         -9.2629    0.3097    2.3273 C.ar      1 <0>        -0.1626
      5 C5         -9.7949    1.1588    3.2796 C.ar      1 <0>        -0.0947
      6 C6        -10.7676    2.0741    2.9233 C.ar      1 <0>        -0.1131
      7 C7         -8.1984   -0.6843    2.7145 C.3       1 <0>         0.0485
      8 C8         -5.8254   -0.9182    3.1328 C.3       1 <0>        -0.0013
      9 C9         -4.4828   -0.1865    3.0690 C.3       1 <0>        -0.1422
     10 C10        -4.1495    0.1322    1.6089 C.3       1 <0>        -0.0971
     11 C11        -5.2795    0.9724    1.0073 C.3       1 <0>        -0.1451
     12 C12        -6.5990    0.2071    1.1309 C.3       1 <0>        -0.0066
     13 C13        -2.8380    0.9173    1.5434 C.3       1 <0>        -0.1322
     14 C14        -2.4417    1.1270    0.0806 C.3       1 <0>         0.1116
     15 N1         -1.1858    1.8787    0.0178 N.am      1 <0>        -0.6140
     16 C15        -1.2254    3.3377   -0.0279 C.3       1 <0>         0.1166
     17 C16        -0.0851    3.9462    0.7852 C.3       1 <0>        -0.1006
     18 C17         1.2238    3.3226    0.3795 C.ar      1 <0>        -0.0542
     19 C18         2.3887    4.0581    0.3783 C.ar      1 <0>        -0.1245
     20 C19         3.5809    3.4630    0.0028 C.ar      1 <0>        -0.0851
     21 C20         3.6123    2.1314   -0.3722 C.ar      1 <0>        -0.1285
     22 C21         2.4515    1.3835   -0.3755 C.ar      1 <0>        -0.0544
     23 C22         1.2501    1.9781    0.0007 C.ar      1 <0>        -0.1441
     24 C23        -0.0144    1.2113    0.0087 C.2       1 <0>         0.5679
     25 O1          0.0021   -0.0041    0.0020 O.2       1 <0>        -0.5293
     26 H1        -11.9788    2.8454    1.3395 H         1 <0>         0.1358
     27 H2        -11.0387    1.3256   -0.3545 H         1 <0>         0.1360
     28 H3         -9.2990   -0.2981    0.2781 H         1 <0>         0.1308
     29 H4         -9.4475    1.1100    4.3011 H         1 <0>         0.1308
     30 H5        -11.1798    2.7409    3.6663 H         1 <0>         0.1360
     31 H6         -8.2755   -1.5657    2.0780 H         1 <0>         0.1362
     32 H7         -8.3345   -0.9752    3.7561 H         1 <0>         0.1346
     33 H8         -5.7570   -1.8519    2.5747 H         1 <0>         0.1312
     34 H9         -6.0725   -1.1338    4.1723 H         1 <0>         0.1289
     35 H10        -3.7026   -0.8203    3.4904 H         1 <0>         0.1131
     36 H11        -4.5463    0.7408    3.6385 H         1 <0>         0.0876
     37 H12        -4.0465   -0.7966    1.0478 H         1 <0>         0.0931
     38 H13        -5.3555    1.9178    1.5444 H         1 <0>         0.0881
     39 H14        -5.0684    1.1664   -0.0443 H         1 <0>         0.1122
     40 H15        -6.5270   -0.7320    0.5821 H         1 <0>         0.1300
     41 H16        -7.4079    0.8087    0.7163 H         1 <0>         0.1287
     42 H17        -2.0544    0.3590    2.0557 H         1 <0>         0.0788
     43 H18        -2.9696    1.8854    2.0266 H         1 <0>         0.0708
     44 H19        -3.2253    1.6852   -0.4317 H         1 <0>         0.0785
     45 H20        -2.3101    0.1588   -0.4026 H         1 <0>         0.0891
     46 H21        -2.1769    3.6842    0.3753 H         1 <0>         0.0865
     47 H22        -1.1374    3.6609   -1.0652 H         1 <0>         0.0707
     48 H23        -0.2595    3.7643    1.8456 H         1 <0>         0.0864
     49 H24        -0.0454    5.0205    0.6053 H         1 <0>         0.1001
     50 H25         2.3718    5.0979    0.6696 H         1 <0>         0.1317
     51 H26         4.4927    4.0419    0.0030 H         1 <0>         0.1317
     52 H27         4.5472    1.6759   -0.6634 H         1 <0>         0.1336
     53 H28         2.4753    0.3442   -0.6684 H         1 <0>         0.1358
     54 N2         -6.8743   -0.0470    2.5609 N.4       1 <0>        -0.3919
     55 H29        -6.8747    0.8480    3.0641 H         1 <0>         0.4251
@<TRIPOS>BOND
     1    1    6 ar
     2    1    2 ar
     3    1   26 1
     4    2    3 ar
     5    2   27 1
     6    3    4 ar
     7    3   28 1
     8    4    5 ar
     9    4    7 1
    10    5    6 ar
    11    5   29 1
    12    6   30 1
    13    7   31 1
    14    7   32 1
    15    7   54 1
    16    8    9 1
    17    8   33 1
    18    8   34 1
    19    8   54 1
    20    9   10 1
    21    9   35 1
    22    9   36 1
    23   10   11 1
    24   10   13 1
    25   10   37 1
    26   11   12 1
    27   11   38 1
    28   11   39 1
    29   12   40 1
    30   12   41 1
    31   12   54 1
    32   13   14 1
    33   13   42 1
    34   13   43 1
    35   14   15 1
    36   14   44 1
    37   14   45 1
    38   15   24 am
    39   15   16 1
    40   16   17 1
    41   16   46 1
    42   16   47 1
    43   17   18 1
    44   17   48 1
    45   17   49 1
    46   18   23 ar
    47   18   19 ar
    48   19   20 ar
    49   19   50 1
    50   20   21 ar
    51   20   51 1
    52   21   22 ar
    53   21   52 1
    54   22   23 ar
    55   22   53 1
    56   23   24 1
    57   24   25 2
    58   54   55 1
@<TRIPOS>MOLECULE
ZINC03814231
   55    58     0     0     0
SMALL
USER_CHARGES

@<TRIPOS>ATOM
      1 C1         -0.0167    1.3781    0.0096 C.ar      1 <0>        -0.0844
      2 C2          1.1709    2.0855    0.0021 C.ar      1 <0>        -0.1129
      3 C3          2.3773    1.4107   -0.0141 C.ar      1 <0>        -0.0949
      4 C4          2.3960    0.0285   -0.0212 C.ar      1 <0>        -0.1623
      5 C5          1.2084   -0.6789   -0.0136 C.ar      1 <0>        -0.0970
      6 C6          0.0021   -0.0041    0.0020 C.ar      1 <0>        -0.1136
      7 C7          3.7112   -0.7071   -0.0378 C.3       1 <0>         0.0484
      8 C8          3.1988   -1.8532   -2.1077 C.3       1 <0>        -0.0065
      9 C9          3.5757   -1.9566   -3.5873 C.3       1 <0>        -0.1455
     10 C10         5.0122   -2.4726   -3.7082 C.3       1 <0>        -0.0969
     11 C11         5.9506   -1.5287   -2.9513 C.3       1 <0>        -0.1421
     12 C12         5.5049   -1.4377   -1.4901 C.3       1 <0>        -0.0014
     13 C13         5.4158   -2.5205   -5.1832 C.3       1 <0>        -0.1306
     14 C14         4.5587   -3.5566   -5.9131 C.3       1 <0>         0.1075
     15 N1          4.9452   -3.6025   -7.3255 N.am      1 <0>        -0.6048
     16 C15         4.2562   -2.7241   -8.2550 C.3       1 <0>         0.1596
     17 C16         4.3502   -3.2137   -9.6707 C.ar      1 <0>        -0.1064
     18 C17         3.4112   -2.7697  -10.5906 C.ar      1 <0>        -0.1069
     19 C18         3.4610   -3.1989  -11.9013 C.ar      1 <0>        -0.1137
     20 C19         4.4519   -4.0761  -12.3016 C.ar      1 <0>        -0.1080
     21 C20         5.3872   -4.5186  -11.3879 C.ar      1 <0>        -0.1104
     22 C21         5.3372   -4.0885  -10.0705 C.ar      1 <0>        -0.0802
     23 C22         6.3737   -4.5944   -9.1052 C.3       1 <0>        -0.0984
     24 C23         5.9073   -4.4528   -7.6890 C.2       1 <0>         0.5254
     25 O1          6.4267   -5.1404   -6.8356 O.2       1 <0>        -0.5426
     26 H1         -0.9592    1.9054    0.0170 H         1 <0>         0.1358
     27 H2          1.1563    3.1654    0.0081 H         1 <0>         0.1360
     28 H3          3.3051    1.9634   -0.0204 H         1 <0>         0.1308
     29 H4          1.2231   -1.7588   -0.0196 H         1 <0>         0.1308
     30 H5         -0.9258   -0.5567    0.0079 H         1 <0>         0.1360
     31 H6          4.4677   -0.1105    0.4720 H         1 <0>         0.1346
     32 H7          3.5987   -1.6640    0.4720 H         1 <0>         0.1362
     33 H8          3.2593   -2.8395   -1.6477 H         1 <0>         0.1300
     34 H9          2.1814   -1.4725   -2.0178 H         1 <0>         0.1286
     35 H10         3.5021   -0.9730   -4.0512 H         1 <0>         0.0883
     36 H11         2.8975   -2.6475   -4.0881 H         1 <0>         0.1119
     37 H12         5.0774   -3.4725   -3.2791 H         1 <0>         0.0932
     38 H13         5.9144   -0.5384   -3.4052 H         1 <0>         0.0876
     39 H14         6.9693   -1.9139   -2.9977 H         1 <0>         0.1133
     40 H15         6.1625   -0.7552   -0.9516 H         1 <0>         0.1289
     41 H16         5.5546   -2.4260   -1.0330 H         1 <0>         0.1312
     42 H17         5.2628   -1.5399   -5.6338 H         1 <0>         0.0707
     43 H18         6.4671   -2.7972   -5.2634 H         1 <0>         0.0801
     44 H19         4.7118   -4.5373   -5.4625 H         1 <0>         0.0909
     45 H20         3.5075   -3.2800   -5.8329 H         1 <0>         0.0779
     46 H21         3.2062   -2.6595   -7.9695 H         1 <0>         0.0877
     47 H22         4.6993   -1.7298   -8.1976 H         1 <0>         0.0773
     48 H23         2.6366   -2.0846  -10.2791 H         1 <0>         0.1265
     49 H24         2.7272   -2.8505  -12.6130 H         1 <0>         0.1292
     50 H25         4.4944   -4.4139  -13.3266 H         1 <0>         0.1297
     51 H26         6.1616   -5.2033  -11.7005 H         1 <0>         0.1292
     52 H27         7.2936   -4.0248   -9.2373 H         1 <0>         0.1163
     53 H28         6.5715   -5.6460   -9.3130 H         1 <0>         0.1168
     54 N2          4.1241   -0.9119   -1.4416 N.4       1 <0>        -0.3920
     55 H29         4.0935   -0.0109   -1.9330 H         1 <0>         0.4251
@<TRIPOS>BOND
     1    1    6 ar
     2    1    2 ar
     3    1   26 1
     4    2    3 ar
     5    2   27 1
     6    3    4 ar
     7    3   28 1
     8    4    5 ar
     9    4    7 1
    10    5    6 ar
    11    5   29 1
    12    6   30 1
    13    7   31 1
    14    7   32 1
    15    7   54 1
    16    8    9 1
    17    8   33 1
    18    8   34 1
    19    8   54 1
    20    9   10 1
    21    9   35 1
    22    9   36 1
    23   10   11 1
    24   10   13 1
    25   10   37 1
    26   11   12 1
    27   11   38 1
    28   11   39 1
    29   12   40 1
    30   12   41 1
    31   12   54 1
    32   13   14 1
    33   13   42 1
    34   13   43 1
    35   14   15 1
    36   14   44 1
    37   14   45 1
    38   15   24 am
    39   15   16 1
    40   16   17 1
    41   16   46 1
    42   16   47 1
    43   17   22 ar
    44   17   18 ar
    45   18   19 ar
    46   18   48 1
    47   19   20 ar
    48   19   49 1
    49   20   21 ar
    50   20   50 1
    51   21   22 ar
    52   21   51 1
    53   22   23 1
    54   23   24 1
    55   23   52 1
    56   23   53 1
    57   24   25 2
    58   54   55 1
@<TRIPOS>MOLECULE
ZINC03814232
   54    57     0     0     0
SMALL
USER_CHARGES

@<TRIPOS>ATOM
      1 C1         -0.5039   -5.0582    6.5175 C.ar      1 <0>        -0.0842
      2 C2          0.6730   -4.6695    5.9054 C.ar      1 <0>        -0.1136
      3 C3          0.9985   -3.3286    5.8219 C.ar      1 <0>        -0.0968
      4 C4          0.1473   -2.3765    6.3509 C.ar      1 <0>        -0.1628
      5 C5         -1.0268   -2.7656    6.9681 C.ar      1 <0>        -0.0946
      6 C6         -1.3551   -4.1062    7.0466 C.ar      1 <0>        -0.1130
      7 C7          0.5023   -0.9147    6.2603 C.3       1 <0>         0.0488
      8 C8          0.0753    1.1089    5.0020 C.3       1 <0>        -0.0006
      9 C9         -0.6297    1.6667    3.7636 C.3       1 <0>        -0.1424
     10 C10         0.0111    1.0724    2.5063 C.3       1 <0>        -0.0946
     11 C11        -0.0816   -0.4547    2.5689 C.3       1 <0>        -0.1460
     12 C12         0.6076   -0.9510    3.8420 C.3       1 <0>        -0.0060
     13 C13        -0.7288    1.5792    1.2668 C.3       1 <0>        -0.1285
     14 C14        -0.0127    1.0858    0.0080 C.3       1 <0>         0.0888
     15 N1         -0.7213    1.5711   -1.1789 N.am      1 <0>        -0.5648
     16 C15        -1.6963    0.8061   -1.6992 C.2       1 <0>         0.5395
     17 O1         -1.9729   -0.2579   -1.1883 O.2       1 <0>        -0.4929
     18 C16        -2.4515    1.2805   -2.9219 C.3       1 <0>        -0.1187
     19 C17        -2.0509    2.6126   -3.5110 C.ar      1 <0>        -0.0430
     20 C18        -2.6744    3.1230   -4.6238 C.ar      1 <0>        -0.1196
     21 C19        -2.2768    4.3487   -5.1334 C.ar      1 <0>        -0.0706
     22 C20        -1.2558    5.0585   -4.5261 C.ar      1 <0>        -0.1281
     23 C21        -0.6236    4.5543   -3.4077 C.ar      1 <0>        -0.0410
     24 C22        -1.0181    3.3209   -2.8891 C.ar      1 <0>        -0.1558
     25 C23        -0.3624    2.7540   -1.6968 C.2       1 <0>         0.5715
     26 O2          0.5337    3.3799   -1.1661 O.2       1 <0>        -0.4930
     27 H1         -0.7585   -6.1058    6.5821 H         1 <0>         0.1358
     28 H2          1.3380   -5.4133    5.4921 H         1 <0>         0.1360
     29 H3          1.9179   -3.0249    5.3436 H         1 <0>         0.1307
     30 H4         -1.6897   -2.0220    7.3853 H         1 <0>         0.1308
     31 H5         -2.2747   -4.4099    7.5245 H         1 <0>         0.1360
     32 H6          1.5866   -0.8032    6.2649 H         1 <0>         0.1361
     33 H7          0.0789   -0.3844    7.1133 H         1 <0>         0.1346
     34 H8          1.1286    1.3884    4.9771 H         1 <0>         0.1313
     35 H9         -0.3880    1.5191    5.8993 H         1 <0>         0.1293
     36 H10        -0.5288    2.7519    3.7452 H         1 <0>         0.1136
     37 H11        -1.6860    1.3993    3.7948 H         1 <0>         0.0884
     38 H12         1.0576    1.3729    2.4541 H         1 <0>         0.0943
     39 H13        -1.1292   -0.7555    2.5813 H         1 <0>         0.0903
     40 H14         0.4109   -0.8852    1.6970 H         1 <0>         0.1125
     41 H15         1.6583   -0.6619    3.8225 H         1 <0>         0.1301
     42 H16         0.5309   -2.0369    3.8967 H         1 <0>         0.1292
     43 H17        -0.7436    2.6691    1.2728 H         1 <0>         0.0806
     44 H18        -1.7514    1.2020    1.2746 H         1 <0>         0.0750
     45 H19         0.0021   -0.0041    0.0020 H         1 <0>         0.0975
     46 H20         1.0099    1.4631    0.0003 H         1 <0>         0.1003
     47 H21        -3.5100    1.3322   -2.6669 H         1 <0>         0.1294
     48 H22        -2.3341    0.5231   -3.6970 H         1 <0>         0.1296
     49 H23        -3.4717    2.5711   -5.0993 H         1 <0>         0.1394
     50 H24        -2.7654    4.7515   -6.0083 H         1 <0>         0.1382
     51 H25        -0.9522    6.0132   -4.9295 H         1 <0>         0.1383
     52 H26         0.1725    5.1117   -2.9366 H         1 <0>         0.1416
     53 N2         -0.0713   -0.3623    5.0158 N.4       1 <0>        -0.3925
     54 H27        -1.0699   -0.5978    4.9757 H         1 <0>         0.4256
@<TRIPOS>BOND
     1    1    6 ar
     2    1    2 ar
     3    1   27 1
     4    2    3 ar
     5    2   28 1
     6    3    4 ar
     7    3   29 1
     8    4    5 ar
     9    4    7 1
    10    5    6 ar
    11    5   30 1
    12    6   31 1
    13    7   32 1
    14    7   33 1
    15    7   53 1
    16    8    9 1
    17    8   34 1
    18    8   35 1
    19    8   53 1
    20    9   10 1
    21    9   36 1
    22    9   37 1
    23   10   11 1
    24   10   13 1
    25   10   38 1
    26   11   12 1
    27   11   39 1
    28   11   40 1
    29   12   41 1
    30   12   42 1
    31   12   53 1
    32   13   14 1
    33   13   43 1
    34   13   44 1
    35   14   15 1
    36   14   45 1
    37   14   46 1
    38   15   25 am
    39   15   16 am
    40   16   17 2
    41   16   18 1
    42   18   19 1
    43   18   47 1
    44   18   48 1
    45   19   24 ar
    46   19   20 ar
    47   20   21 ar
    48   20   49 1
    49   21   22 ar
    50   21   50 1
    51   22   23 ar
    52   22   51 1
    53   23   24 ar
    54   23   52 1
    55   24   25 1
    56   25   26 2
    57   53   54 1
@<TRIPOS>MOLECULE
ZINC03814233
   54    57     0     0     0
SMALL
USER_CHARGES

@<TRIPOS>ATOM
      1 C1         12.5173   -0.1987    0.5939 C.ar      1 <0>        -0.0840
      2 C2         11.7512   -1.1189    1.2847 C.ar      1 <0>        -0.1136
      3 C3         10.8613   -1.9280    0.6032 C.ar      1 <0>        -0.0968
      4 C4         10.7379   -1.8171   -0.7691 C.ar      1 <0>        -0.1631
      5 C5         11.5081   -0.9009   -1.4606 C.ar      1 <0>        -0.0945
      6 C6         12.3938   -0.0879   -0.7785 C.ar      1 <0>        -0.1129
      7 C7          9.7681   -2.6995   -1.5122 C.3       1 <0>         0.0491
      8 C8          7.5590   -2.7487   -2.5011 C.3       1 <0>        -0.0008
      9 C9          6.2629   -1.9520   -2.6671 C.3       1 <0>        -0.1426
     10 C10         5.5986   -1.7766   -1.2987 C.3       1 <0>        -0.0954
     11 C11         6.5758   -1.0741   -0.3520 C.3       1 <0>        -0.1454
     12 C12         7.8628   -1.8962   -0.2532 C.3       1 <0>        -0.0059
     13 C13         4.3338   -0.9290   -1.4492 C.3       1 <0>        -0.1329
     14 C14         3.6044   -0.8583   -0.1062 C.3       1 <0>         0.1165
     15 N1          2.3933   -0.0466   -0.2503 N.am      1 <0>        -0.6320
     16 C15         1.1354   -0.6924   -0.6264 C.3       1 <0>         0.3571
     17 N2          0.0021   -0.0041    0.0020 N.pl3     1 <0>        -0.7568
     18 C16        -0.0168    1.3862    0.0097 C.ar      1 <0>         0.2320
     19 C17        -1.2039    2.0988    0.0305 C.ar      1 <0>        -0.1835
     20 C18        -1.1725    3.4799    0.0426 C.ar      1 <0>        -0.0466
     21 C19         0.0369    4.1571    0.0419 C.ar      1 <0>        -0.1701
     22 C20         1.2285    3.4624    0.0217 C.ar      1 <0>        -0.0197
     23 C21         1.2114    2.0695    0.0016 C.ar      1 <0>        -0.2105
     24 C22         2.4568    1.2825   -0.0337 C.2       1 <0>         0.5772
     25 O1          3.5317    1.8270    0.1302 O.2       1 <0>        -0.5344
     26 H1         13.2120    0.4339    1.1264 H         1 <0>         0.1359
     27 H2         11.8476   -1.2055    2.3569 H         1 <0>         0.1359
     28 H3         10.2628   -2.6469    1.1429 H         1 <0>         0.1305
     29 H4         11.4148   -0.8174   -2.5334 H         1 <0>         0.1308
     30 H5         12.9921    0.6313   -1.3181 H         1 <0>         0.1361
     31 H6          9.6637   -3.6484   -0.9860 H         1 <0>         0.1357
     32 H7         10.1415   -2.8819   -2.5198 H         1 <0>         0.1343
     33 H8          7.3307   -3.7324   -2.0911 H         1 <0>         0.1303
     34 H9          8.0418   -2.8630   -3.4717 H         1 <0>         0.1284
     35 H10         5.5880   -2.4898   -3.3330 H         1 <0>         0.1124
     36 H11         6.4890   -0.9732   -3.0900 H         1 <0>         0.0885
     37 H12         5.3361   -2.7538   -0.8933 H         1 <0>         0.0907
     38 H13         6.8068   -0.0814   -0.7385 H         1 <0>         0.0905
     39 H14         6.1244   -0.9845    0.6361 H         1 <0>         0.1122
     40 H15         7.6330   -2.8839    0.1463 H         1 <0>         0.1291
     41 H16         8.5662   -1.3914    0.4090 H         1 <0>         0.1285
     42 H17         3.6797   -1.3815   -2.1946 H         1 <0>         0.0757
     43 H18         4.6065    0.0771   -1.7680 H         1 <0>         0.0777
     44 H19         4.2585   -0.4057    0.6391 H         1 <0>         0.0851
     45 H20         3.3317   -1.8643    0.2126 H         1 <0>         0.0803
     46 H21         1.1519   -1.7323   -0.3002 H         1 <0>         0.0940
     47 H22         1.0238   -0.6560   -1.7101 H         1 <0>         0.0677
     48 H23        -0.7211   -0.5099    0.4046 H         1 <0>         0.4153
     49 H24        -2.1498    1.5774    0.0345 H         1 <0>         0.1319
     50 H25        -2.0979    4.0366    0.0555 H         1 <0>         0.1323
     51 H26         0.0465    5.2369    0.0571 H         1 <0>         0.1312
     52 H27         2.1682    3.9947    0.0211 H         1 <0>         0.1350
     53 N3          8.4655   -2.0076   -1.5987 N.4       1 <0>        -0.3926
     54 H28         8.6134   -1.0644   -1.9764 H         1 <0>         0.4261
@<TRIPOS>BOND
     1    1    6 ar
     2    1    2 ar
     3    1   26 1
     4    2    3 ar
     5    2   27 1
     6    3    4 ar
     7    3   28 1
     8    4    5 ar
     9    4    7 1
    10    5    6 ar
    11    5   29 1
    12    6   30 1
    13    7   31 1
    14    7   32 1
    15    7   53 1
    16    8    9 1
    17    8   33 1
    18    8   34 1
    19    8   53 1
    20    9   10 1
    21    9   35 1
    22    9   36 1
    23   10   11 1
    24   10   13 1
    25   10   37 1
    26   11   12 1
    27   11   38 1
    28   11   39 1
    29   12   40 1
    30   12   41 1
    31   12   53 1
    32   13   14 1
    33   13   42 1
    34   13   43 1
    35   14   15 1
    36   14   44 1
    37   14   45 1
    38   15   24 am
    39   15   16 1
    40   16   17 1
    41   16   46 1
    42   16   47 1
    43   17   18 1
    44   17   48 1
    45   18   23 ar
    46   18   19 ar
    47   19   20 ar
    48   19   49 1
    49   20   21 ar
    50   20   50 1
    51   21   22 ar
    52   21   51 1
    53   22   23 ar
    54   22   52 1
    55   23   24 1
    56   24   25 2
    57   53   54 1
@<TRIPOS>MOLECULE
ZINC03814234
   53    56     0     0     0
SMALL
USER_CHARGES

@<TRIPOS>ATOM
      1 C1          5.3425    4.9379    0.5431 C.ar      1 <0>        -0.0846
      2 C2          4.9391    4.5967   -0.7343 C.ar      1 <0>        -0.1132
      3 C3          3.6562    4.1307   -0.9527 C.ar      1 <0>        -0.0947
      4 C4          2.7764    4.0063    0.1063 C.ar      1 <0>        -0.1605
      5 C5          3.1779    4.3528    1.3828 C.ar      1 <0>        -0.0963
      6 C6          4.4627    4.8135    1.6021 C.ar      1 <0>        -0.1142
      7 C7          1.3776    3.4986   -0.1318 C.3       1 <0>         0.0484
      8 C8         -0.0187    1.5261    0.0104 C.3       1 <0>         0.0003
      9 C9          0.0021   -0.0041    0.0020 C.3       1 <0>        -0.1423
     10 C10         0.7612   -0.5061    1.2334 C.3       1 <0>        -0.0944
     11 C11         2.1767    0.0777    1.2237 C.3       1 <0>        -0.1459
     12 C12         2.0929    1.6055    1.1967 C.3       1 <0>        -0.0066
     13 C13         0.8380   -2.0338    1.1989 C.3       1 <0>        -0.1305
     14 C14         1.4858   -2.5411    2.4889 C.3       1 <0>         0.1077
     15 N1          1.5593   -4.0039    2.4559 N.am      1 <0>        -0.5587
     16 C15         0.5346   -4.7300    2.9531 C.2       1 <0>         0.5659
     17 O1         -0.4442   -4.1851    3.4259 O.2       1 <0>        -0.4894
     18 C16         0.6319   -6.1998    2.9041 C.ar      1 <0>        -0.2022
     19 C17        -0.3840   -7.0180    3.3926 C.ar      1 <0>        -0.0137
     20 C18        -0.2433   -8.3883    3.3269 C.ar      1 <0>        -0.1506
     21 C19         0.8998   -8.9511    2.7802 C.ar      1 <0>        -0.0406
     22 C20         1.9144   -8.1513    2.2934 C.ar      1 <0>        -0.1627
     23 C21         1.7906   -6.7715    2.3505 C.ar      1 <0>         0.1951
     24 N2          2.7862   -5.9320    1.8722 N.am      1 <0>        -0.6467
     25 H1          3.6161   -6.3240    1.4753 H         1 <0>         0.4440
     26 C22         2.6460   -4.5968    1.9372 C.2       1 <0>         0.7074
     27 O2          3.5418   -3.8961    1.5074 O.2       1 <0>        -0.5463
     28 H2          6.3451    5.3013    0.7138 H         1 <0>         0.1357
     29 H3          5.6265    4.6939   -1.5617 H         1 <0>         0.1358
     30 H4          3.3410    3.8641   -1.9507 H         1 <0>         0.1305
     31 H5          2.4892    4.2598    2.2095 H         1 <0>         0.1304
     32 H6          4.7779    5.0797    2.6001 H         1 <0>         0.1360
     33 H7          1.0559    3.7772   -1.1353 H         1 <0>         0.1337
     34 H8          0.7017    3.9384    0.6016 H         1 <0>         0.1360
     35 H9         -0.5461    1.8871   -0.8725 H         1 <0>         0.1295
     36 H10        -0.5291    1.8775    0.9071 H         1 <0>         0.1310
     37 H11        -1.0200   -0.3820    0.0255 H         1 <0>         0.1136
     38 H12         0.5002   -0.3563   -0.9012 H         1 <0>         0.0888
     39 H13         0.2410   -0.1878    2.1368 H         1 <0>         0.0944
     40 H14         2.7082   -0.2418    2.1201 H         1 <0>         0.1125
     41 H15         2.7091   -0.2732    0.3397 H         1 <0>         0.0907
     42 H16         1.5725    1.9565    2.0879 H         1 <0>         0.1288
     43 H17         3.0991    2.0241    1.1754 H         1 <0>         0.1318
     44 H18        -0.1671   -2.4462    1.1106 H         1 <0>         0.0805
     45 H19         1.4363   -2.3484    0.3438 H         1 <0>         0.0772
     46 H20         2.4909   -2.1287    2.5772 H         1 <0>         0.1012
     47 H21         0.8875   -2.2266    3.3440 H         1 <0>         0.1021
     48 H22        -1.2756   -6.5825    3.8191 H         1 <0>         0.1461
     49 H23        -1.0283   -9.0271    3.7040 H         1 <0>         0.1411
     50 H24         0.9977  -10.0258    2.7350 H         1 <0>         0.1420
     51 H25         2.8012   -8.5987    1.8693 H         1 <0>         0.1426
     52 N3          1.3726    2.0250   -0.0242 N.4       1 <0>        -0.3922
     53 H26         1.8480    1.6293   -0.8438 H         1 <0>         0.4256
@<TRIPOS>BOND
     1    1    6 ar
     2    1    2 ar
     3    1   28 1
     4    2    3 ar
     5    2   29 1
     6    3    4 ar
     7    3   30 1
     8    4    5 ar
     9    4    7 1
    10    5    6 ar
    11    5   31 1
    12    6   32 1
    13    7   33 1
    14    7   34 1
    15    7   52 1
    16    8    9 1
    17    8   35 1
    18    8   36 1
    19    8   52 1
    20    9   10 1
    21    9   37 1
    22    9   38 1
    23   10   11 1
    24   10   13 1
    25   10   39 1
    26   11   12 1
    27   11   40 1
    28   11   41 1
    29   12   42 1
    30   12   43 1
    31   12   52 1
    32   13   14 1
    33   13   44 1
    34   13   45 1
    35   14   15 1
    36   14   46 1
    37   14   47 1
    38   15   26 am
    39   15   16 am
    40   16   17 2
    41   16   18 1
    42   18   23 ar
    43   18   19 ar
    44   19   20 ar
    45   19   48 1
    46   20   21 ar
    47   20   49 1
    48   21   22 ar
    49   21   50 1
    50   22   23 ar
    51   22   51 1
    52   23   24 1
    53   24   25 1
    54   24   26 am
    55   26   27 2
    56   52   53 1
@<TRIPOS>MOLECULE
ZINC03814235
   54    57     0     0     0
SMALL
USER_CHARGES

@<TRIPOS>ATOM
      1 C1        -11.2728    1.8602    1.3898 C.ar      1 <0>        -0.0843
      2 C2        -10.7087    1.0565    0.4168 C.ar      1 <0>        -0.1137
      3 C3         -9.7247    0.1470    0.7566 C.ar      1 <0>        -0.0969
      4 C4         -9.3051    0.0409    2.0695 C.ar      1 <0>        -0.1626
      5 C5         -9.8733    0.8406    3.0434 C.ar      1 <0>        -0.0946
      6 C6        -10.8532    1.7541    2.7027 C.ar      1 <0>        -0.1131
      7 C7         -8.2327   -0.9509    2.4400 C.3       1 <0>         0.0485
      8 C8         -5.8662   -1.1635    2.9039 C.3       1 <0>        -0.0013
      9 C9         -4.5353   -0.4080    2.9022 C.3       1 <0>        -0.1422
     10 C10        -4.1744   -0.0230    1.4648 C.3       1 <0>        -0.0966
     11 C11        -5.3046    0.8232    0.8723 C.3       1 <0>        -0.1459
     12 C12        -6.6132    0.0320    0.9328 C.3       1 <0>        -0.0066
     13 C13        -2.8754    0.7854    1.4629 C.3       1 <0>        -0.1343
     14 C14        -2.4495    1.0627    0.0198 C.3       1 <0>         0.1384
     15 N1         -1.2057    1.8368    0.0179 N.am      1 <0>        -0.6193
     16 C15        -1.2437    3.3091    0.0303 C.3       1 <0>         0.1553
     17 C16         0.0860    4.0273    0.0220 C.ar      1 <0>        -0.1473
     18 C17         0.1568    5.4013    0.0291 C.ar      1 <0>        -0.0703
     19 C18         1.3930    6.0250    0.0216 C.ar      1 <0>        -0.1397
     20 C19         2.5503    5.2680    0.0070 C.ar      1 <0>        -0.0764
     21 C20         2.4818    3.8885   -0.0007 C.ar      1 <0>        -0.1539
     22 C21         1.2445    3.2582    0.0072 C.ar      1 <0>         0.1664
     23 N2          1.1540    1.8659    0.0011 N.am      1 <0>        -0.6633
     24 C22        -0.0144    1.2117    0.0087 C.2       1 <0>         0.7088
     25 O1          0.0021   -0.0041    0.0020 O.2       1 <0>        -0.5772
     26 H1        -12.0411    2.5713    1.1242 H         1 <0>         0.1358
     27 H2        -11.0365    1.1394   -0.6089 H         1 <0>         0.1360
     28 H3         -9.2840   -0.4809   -0.0035 H         1 <0>         0.1308
     29 H4         -9.5486    0.7547    4.0699 H         1 <0>         0.1308
     30 H5        -11.2937    2.3823    3.4628 H         1 <0>         0.1360
     31 H6         -8.2801   -1.8060    1.7658 H         1 <0>         0.1362
     32 H7         -8.3875   -1.2874    3.4651 H         1 <0>         0.1346
     33 H8         -5.7690   -2.0717    2.3092 H         1 <0>         0.1313
     34 H9         -6.1332   -1.4265    3.9274 H         1 <0>         0.1288
     35 H10        -3.7541   -1.0461    3.3152 H         1 <0>         0.1134
     36 H11        -4.6278    0.4934    3.5081 H         1 <0>         0.0877
     37 H12        -4.0426   -0.9256    0.8682 H         1 <0>         0.0940
     38 H13        -5.4092    1.7439    1.4462 H         1 <0>         0.0885
     39 H14        -5.0730    1.0646   -0.1651 H         1 <0>         0.1124
     40 H15        -6.5125   -0.8819    0.3474 H         1 <0>         0.1302
     41 H16        -7.4227    0.6372    0.5247 H         1 <0>         0.1287
     42 H17        -2.0942    0.2190    1.9698 H         1 <0>         0.0809
     43 H18        -3.0347    1.7302    1.9826 H         1 <0>         0.0711
     44 H19        -3.2307    1.6291   -0.4872 H         1 <0>         0.0814
     45 H20        -2.2902    0.1179   -0.5000 H         1 <0>         0.0931
     46 H21        -1.7916    3.6263    0.9176 H         1 <0>         0.0738
     47 H22        -1.8074    3.6352   -0.8438 H         1 <0>         0.0760
     48 H23        -0.7480    5.9909    0.0409 H         1 <0>         0.1328
     49 H24         1.4535    7.1033    0.0268 H         1 <0>         0.1324
     50 H25         3.5128    5.7580    0.0012 H         1 <0>         0.1335
     51 H26         3.3882    3.3015   -0.0124 H         1 <0>         0.1327
     52 H27         1.9744    1.3486   -0.0089 H         1 <0>         0.4258
     53 N3         -6.9166   -0.2863    2.3442 N.4       1 <0>        -0.3920
     54 H28        -6.9439    0.5867    2.8840 H         1 <0>         0.4252
@<TRIPOS>BOND
     1    1    6 ar
     2    1    2 ar
     3    1   26 1
     4    2    3 ar
     5    2   27 1
     6    3    4 ar
     7    3   28 1
     8    4    5 ar
     9    4    7 1
    10    5    6 ar
    11    5   29 1
    12    6   30 1
    13    7   31 1
    14    7   32 1
    15    7   53 1
    16    8    9 1
    17    8   33 1
    18    8   34 1
    19    8   53 1
    20    9   10 1
    21    9   35 1
    22    9   36 1
    23   10   11 1
    24   10   13 1
    25   10   37 1
    26   11   12 1
    27   11   38 1
    28   11   39 1
    29   12   40 1
    30   12   41 1
    31   12   53 1
    32   13   14 1
    33   13   42 1
    34   13   43 1
    35   14   15 1
    36   14   44 1
    37   14   45 1
    38   15   24 am
    39   15   16 1
    40   16   17 1
    41   16   46 1
    42   16   47 1
    43   17   22 ar
    44   17   18 ar
    45   18   19 ar
    46   18   48 1
    47   19   20 ar
    48   19   49 1
    49   20   21 ar
    50   20   50 1
    51   21   22 ar
    52   21   51 1
    53   22   23 1
    54   23   24 am
    55   23   52 1
    56   24   25 2
    57   53   54 1
@<TRIPOS>MOLECULE
ZINC03814236
   53    56     0     0     0
SMALL
USER_CHARGES

@<TRIPOS>ATOM
      1 C1          5.3425    4.9379    0.5431 C.ar      1 <0>        -0.0845
      2 C2          4.9391    4.5967   -0.7343 C.ar      1 <0>        -0.1132
      3 C3          3.6562    4.1307   -0.9527 C.ar      1 <0>        -0.0947
      4 C4          2.7764    4.0063    0.1063 C.ar      1 <0>        -0.1606
      5 C5          3.1779    4.3528    1.3828 C.ar      1 <0>        -0.0963
      6 C6          4.4627    4.8135    1.6021 C.ar      1 <0>        -0.1142
      7 C7          1.3776    3.4986   -0.1318 C.3       1 <0>         0.0485
      8 C8         -0.0187    1.5261    0.0104 C.3       1 <0>         0.0003
      9 C9          0.0021   -0.0041    0.0020 C.3       1 <0>        -0.1423
     10 C10         0.7612   -0.5061    1.2334 C.3       1 <0>        -0.0944
     11 C11         2.1767    0.0777    1.2237 C.3       1 <0>        -0.1461
     12 C12         2.0929    1.6055    1.1967 C.3       1 <0>        -0.0066
     13 C13         0.8380   -2.0338    1.1989 C.3       1 <0>        -0.1309
     14 C14         1.4858   -2.5411    2.4889 C.3       1 <0>         0.1074
     15 N1          1.5593   -4.0039    2.4559 N.am      1 <0>        -0.5580
     16 C15         0.5346   -4.7298    2.9532 C.2       1 <0>         0.5676
     17 O1         -0.4442   -4.1847    3.4259 O.2       1 <0>        -0.4849
     18 C16         0.6313   -6.1992    2.9039 C.ar      1 <0>        -0.2004
     19 C17        -0.3853   -7.0171    3.3927 C.ar      1 <0>         0.0020
     20 C18        -0.2452   -8.3869    3.3283 C.ar      1 <0>        -0.1430
     21 C19         0.8989   -8.9511    2.7811 C.ar      1 <0>         0.0366
     22 C20         1.9144   -8.1504    2.2934 C.ar      1 <0>        -0.1578
     23 C21         1.7902   -6.7712    2.3502 C.ar      1 <0>         0.2116
     24 N2          2.7862   -5.9319    1.8722 N.am      1 <0>        -0.6448
     25 H1          3.6162   -6.3241    1.4756 H         1 <0>         0.4461
     26 C22         2.6461   -4.5966    1.9372 C.2       1 <0>         0.7090
     27 O2          3.5418   -3.8959    1.5074 O.2       1 <0>        -0.5410
     28 Cl1         1.0560  -10.6784    2.7093 Cl        1 <0>        -0.0355
     29 H2          6.3451    5.3013    0.7138 H         1 <0>         0.1357
     30 H3          5.6265    4.6939   -1.5617 H         1 <0>         0.1358
     31 H4          3.3410    3.8641   -1.9507 H         1 <0>         0.1305
     32 H5          2.4892    4.2598    2.2095 H         1 <0>         0.1304
     33 H6          4.7779    5.0797    2.6001 H         1 <0>         0.1360
     34 H7          1.0559    3.7772   -1.1353 H         1 <0>         0.1338
     35 H8          0.7017    3.9384    0.6016 H         1 <0>         0.1360
     36 H9         -0.5461    1.8871   -0.8725 H         1 <0>         0.1296
     37 H10        -0.5291    1.8775    0.9071 H         1 <0>         0.1310
     38 H11        -1.0200   -0.3820    0.0255 H         1 <0>         0.1137
     39 H12         0.5002   -0.3563   -0.9012 H         1 <0>         0.0889
     40 H13         0.2410   -0.1878    2.1368 H         1 <0>         0.0946
     41 H14         2.7082   -0.2418    2.1201 H         1 <0>         0.1125
     42 H15         2.7091   -0.2732    0.3397 H         1 <0>         0.0907
     43 H16         1.5725    1.9565    2.0879 H         1 <0>         0.1288
     44 H17         3.0991    2.0241    1.1754 H         1 <0>         0.1319
     45 H18        -0.1671   -2.4462    1.1106 H         1 <0>         0.0810
     46 H19         1.4363   -2.3484    0.3438 H         1 <0>         0.0775
     47 H20         2.4909   -2.1287    2.5772 H         1 <0>         0.1022
     48 H21         0.8875   -2.2266    3.3440 H         1 <0>         0.1032
     49 H22        -1.2767   -6.5809    3.8190 H         1 <0>         0.1570
     50 H23        -1.0306   -9.0250    3.7056 H         1 <0>         0.1525
     51 H24         2.8012   -8.5977    1.8693 H         1 <0>         0.1537
     52 N3          1.3726    2.0250   -0.0242 N.4       1 <0>        -0.3923
     53 H25         1.8480    1.6293   -0.8438 H         1 <0>         0.4256
@<TRIPOS>BOND
     1    1    6 ar
     2    1    2 ar
     3    1   29 1
     4    2    3 ar
     5    2   30 1
     6    3    4 ar
     7    3   31 1
     8    4    5 ar
     9    4    7 1
    10    5    6 ar
    11    5   32 1
    12    6   33 1
    13    7   34 1
    14    7   35 1
    15    7   52 1
    16    8    9 1
    17    8   36 1
    18    8   37 1
    19    8   52 1
    20    9   10 1
    21    9   38 1
    22    9   39 1
    23   10   11 1
    24   10   13 1
    25   10   40 1
    26   11   12 1
    27   11   41 1
    28   11   42 1
    29   12   43 1
    30   12   44 1
    31   12   52 1
    32   13   14 1
    33   13   45 1
    34   13   46 1
    35   14   15 1
    36   14   47 1
    37   14   48 1
    38   15   26 am
    39   15   16 am
    40   16   17 2
    41   16   18 1
    42   18   23 ar
    43   18   19 ar
    44   19   20 ar
    45   19   49 1
    46   20   21 ar
    47   20   50 1
    48   21   22 ar
    49   21   28 1
    50   22   23 ar
    51   22   51 1
    52   23   24 1
    53   24   25 1
    54   24   26 am
    55   26   27 2
    56   52   53 1
@<TRIPOS>MOLECULE
ZINC03814237
   61    64     0     0     0
SMALL
USER_CHARGES

@<TRIPOS>ATOM
      1 C1         14.9505    0.5838   -0.8561 C.ar      1 <0>        -0.0837
      2 C2         14.3875   -0.2580    0.0848 C.ar      1 <0>        -0.1136
      3 C3         13.4703   -1.2158   -0.3054 C.ar      1 <0>        -0.0970
      4 C4         13.1164   -1.3321   -1.6366 C.ar      1 <0>        -0.1635
      5 C5         13.6837   -0.4941   -2.5783 C.ar      1 <0>        -0.0944
      6 C6         14.5966    0.4674   -2.1873 C.ar      1 <0>        -0.1128
      7 C7         12.1168   -2.3766   -2.0620 C.3       1 <0>         0.0488
      8 C8          9.7885   -2.7115   -2.6341 C.3       1 <0>        -0.0015
      9 C9          8.4200   -2.0285   -2.6876 C.3       1 <0>        -0.1436
     10 C10         7.9747   -1.6768   -1.2654 C.3       1 <0>        -0.0990
     11 C11         9.0298   -0.7767   -0.6165 C.3       1 <0>        -0.1486
     12 C12        10.3806   -1.4959   -0.6231 C.3       1 <0>        -0.0064
     13 C13         6.6352   -0.9393   -1.3168 C.3       1 <0>        -0.1491
     14 C14         6.1305   -0.6985    0.1073 C.3       1 <0>         0.0638
     15 N1          4.8479    0.0077    0.0581 N.am      1 <0>        -0.5449
     16 C15         4.8193    1.3931   -0.1300 C.ar      1 <0>         0.1485
     17 C16         5.9898    2.0796   -0.4262 C.ar      1 <0>        -0.1639
     18 C17         5.9573    3.4472   -0.6157 C.ar      1 <0>        -0.0980
     19 C18         4.7628    4.1345   -0.5012 C.ar      1 <0>        -0.1397
     20 C19         3.5965    3.4547   -0.2012 C.ar      1 <0>        -0.0913
     21 C20         3.6213    2.0864   -0.0153 C.ar      1 <0>        -0.1576
     22 C21         3.6955   -0.6779    0.1941 C.2       1 <0>         0.5585
     23 O1          2.6308   -0.1174    0.0209 O.2       1 <0>        -0.4974
     24 C22         3.7263   -2.1113    0.5539 C.ar      1 <0>        -0.1360
     25 C23         2.6816   -2.6717    1.2908 C.ar      1 <0>        -0.0567
     26 C24         2.7164   -4.0102    1.6229 C.ar      1 <0>        -0.1182
     27 C25         3.7836   -4.7968    1.2270 C.ar      1 <0>        -0.0894
     28 C26         4.8223   -4.2477    0.4964 C.ar      1 <0>        -0.1281
     29 C27         4.8000   -2.9105    0.1577 C.ar      1 <0>        -0.1260
     30 H1         15.6666    1.3325   -0.5512 H         1 <0>         0.1360
     31 H2         14.6640   -0.1671    1.1249 H         1 <0>         0.1361
     32 H3         13.0305   -1.8734    0.4298 H         1 <0>         0.1306
     33 H4         13.4105   -0.5879   -3.6190 H         1 <0>         0.1309
     34 H5         15.0362    1.1253   -2.9224 H         1 <0>         0.1361
     35 H6         12.1800   -3.2341   -1.3922 H         1 <0>         0.1364
     36 H7         12.3355   -2.6949   -3.0814 H         1 <0>         0.1349
     37 H8          9.7139   -3.6291   -2.0506 H         1 <0>         0.1317
     38 H9         10.1150   -2.9504   -3.6463 H         1 <0>         0.1299
     39 H10         7.6937   -2.7039   -3.1398 H         1 <0>         0.1147
     40 H11         8.4908   -1.1179   -3.2825 H         1 <0>         0.0904
     41 H12         7.8652   -2.5906   -0.6815 H         1 <0>         0.0949
     42 H13         9.1101    0.1536   -1.1789 H         1 <0>         0.0908
     43 H14         8.7392   -0.5576    0.4109 H         1 <0>         0.1137
     44 H15        10.3032   -2.4193   -0.0490 H         1 <0>         0.1309
     45 H16        11.1371   -0.8520   -0.1746 H         1 <0>         0.1300
     46 H17         5.9092   -1.5420   -1.8625 H         1 <0>         0.0864
     47 H18         6.7663    0.0175   -1.8224 H         1 <0>         0.0875
     48 H19         6.8565   -0.0957    0.6530 H         1 <0>         0.0866
     49 H20         5.9994   -1.6552    0.6129 H         1 <0>         0.1248
     50 H21         6.9237    1.5439   -0.5121 H         1 <0>         0.1193
     51 H22         6.8665    3.9811   -0.8497 H         1 <0>         0.1241
     52 H23         4.7408    5.2045   -0.6461 H         1 <0>         0.1243
     53 H24         2.6652    3.9944   -0.1125 H         1 <0>         0.1284
     54 H25         2.7101    1.5562    0.2194 H         1 <0>         0.1727
     55 H26         1.8482   -2.0586    1.6007 H         1 <0>         0.1371
     56 H27         1.9089   -4.4449    2.1933 H         1 <0>         0.1360
     57 H28         3.8081   -5.8432    1.4934 H         1 <0>         0.1316
     58 H29         5.6524   -4.8672    0.1905 H         1 <0>         0.1287
     59 H30         5.6112   -2.4832   -0.4130 H         1 <0>         0.1520
     60 N2         10.7638   -1.7844   -2.0214 N.4       1 <0>        -0.3925
     61 H31        10.7681   -0.9063   -2.5535 H         1 <0>         0.4259
@<TRIPOS>BOND
     1    1    6 ar
     2    1    2 ar
     3    1   30 1
     4    2    3 ar
     5    2   31 1
     6    3    4 ar
     7    3   32 1
     8    4    5 ar
     9    4    7 1
    10    5    6 ar
    11    5   33 1
    12    6   34 1
    13    7   35 1
    14    7   36 1
    15    7   60 1
    16    8    9 1
    17    8   37 1
    18    8   38 1
    19    8   60 1
    20    9   10 1
    21    9   39 1
    22    9   40 1
    23   10   11 1
    24   10   13 1
    25   10   41 1
    26   11   12 1
    27   11   42 1
    28   11   43 1
    29   12   44 1
    30   12   45 1
    31   12   60 1
    32   13   14 1
    33   13   46 1
    34   13   47 1
    35   14   15 1
    36   14   48 1
    37   14   49 1
    38   15   16 1
    39   15   22 am
    40   16   21 ar
    41   16   17 ar
    42   17   18 ar
    43   17   50 1
    44   18   19 ar
    45   18   51 1
    46   19   20 ar
    47   19   52 1
    48   20   21 ar
    49   20   53 1
    50   21   54 1
    51   22   23 2
    52   22   24 1
    53   24   29 ar
    54   24   25 ar
    55   25   26 ar
    56   25   55 1
    57   26   27 ar
    58   26   56 1
    59   27   28 ar
    60   27   57 1
    61   28   29 ar
    62   28   58 1
    63   29   59 1
    64   60   61 1
@<TRIPOS>MOLECULE
ZINC03814238
   65    68     0     0     0
SMALL
USER_CHARGES

@<TRIPOS>ATOM
      1 C1          1.1145   11.9826   -1.6616 C.3       1 <0>         0.0256
      2 O1          2.2412   11.1043   -1.6294 O.3       1 <0>        -0.3067
      3 C2          2.0019    9.8065   -1.3124 C.ar      1 <0>         0.1618
      4 C3          3.0541    8.8996   -1.2635 C.ar      1 <0>        -0.1524
      5 C4          2.8155    7.5820   -0.9427 C.ar      1 <0>        -0.0120
      6 C5          1.5133    7.1570   -0.6658 C.ar      1 <0>        -0.1755
      7 C6          0.4575    8.0710   -0.7208 C.ar      1 <0>        -0.0801
      8 C7          0.7053    9.3880   -1.0372 C.ar      1 <0>        -0.2239
      9 C8          1.2529    5.7457   -0.3221 C.2       1 <0>         0.5614
     10 O2          2.1250    5.0754    0.1963 O.2       1 <0>        -0.4993
     11 N1          0.0486    5.1998   -0.5827 N.am      1 <0>        -0.5463
     12 C9         -0.9580    5.9652   -1.3224 C.3       1 <0>         0.0718
     13 C10        -2.1059    6.3398   -0.3827 C.3       1 <0>        -0.1482
     14 C11        -3.1571    7.1392   -1.1552 C.3       1 <0>        -0.0971
     15 C12        -2.5573    8.4751   -1.6025 C.3       1 <0>        -0.1590
     16 C13        -3.6308    9.2955   -2.3213 C.3       1 <0>        -0.0058
     17 C14        -5.3839    8.2589   -1.0082 C.3       1 <0>        -0.0017
     18 C15        -4.3628    7.4075   -0.2502 C.3       1 <0>        -0.1430
     19 C16        -5.7504   10.4263   -2.0224 C.3       1 <0>         0.0482
     20 C17        -5.1420   11.7936   -2.1999 C.ar      1 <0>        -0.1630
     21 C18        -5.2535   12.7355   -1.1943 C.ar      1 <0>        -0.0941
     22 C19        -4.6908   13.9879   -1.3550 C.ar      1 <0>        -0.1127
     23 C20        -4.0262   14.3020   -2.5257 C.ar      1 <0>        -0.0840
     24 C21        -3.9196   13.3619   -3.5336 C.ar      1 <0>        -0.1139
     25 C22        -4.4773   12.1076   -3.3706 C.ar      1 <0>        -0.0973
     26 C23        -0.2402    3.9026   -0.1471 C.ar      1 <0>         0.1469
     27 C24         0.6357    3.2438    0.7060 C.ar      1 <0>        -0.1574
     28 C25         0.3473    1.9630    1.1347 C.ar      1 <0>        -0.0930
     29 C26        -0.8118    1.3363    0.7152 C.ar      1 <0>        -0.1391
     30 C27        -1.6832    1.9874   -0.1387 C.ar      1 <0>        -0.0972
     31 C28        -1.4038    3.2705   -0.5662 C.ar      1 <0>        -0.1619
     32 H1          1.4442   12.9870   -1.9274 H         1 <0>         0.1066
     33 H2          0.3980   11.6275   -2.4023 H         1 <0>         0.0549
     34 H3          0.6417   12.0033   -0.6796 H         1 <0>         0.0571
     35 H4          4.0602    9.2288   -1.4776 H         1 <0>         0.1452
     36 H5          3.6336    6.8779   -0.9049 H         1 <0>         0.1466
     37 H6         -0.5508    7.7456   -0.5114 H         1 <0>         0.1501
     38 H7         -0.1094   10.0959   -1.0756 H         1 <0>         0.1313
     39 H8         -0.5040    6.8724   -1.7211 H         1 <0>         0.1152
     40 H9         -1.3432    5.3606   -2.1434 H         1 <0>         0.0864
     41 H10        -2.5599    5.4326    0.0160 H         1 <0>         0.0944
     42 H11        -1.7207    6.9444    0.4384 H         1 <0>         0.0807
     43 H12        -3.4768    6.5715   -2.0291 H         1 <0>         0.0978
     44 H13        -2.2022    9.0247   -0.7308 H         1 <0>         0.0909
     45 H14        -1.7247    8.2910   -2.2814 H         1 <0>         0.1150
     46 H15        -3.9756    8.7515   -3.2006 H         1 <0>         0.1325
     47 H16        -3.2109   10.2533   -2.6285 H         1 <0>         0.1296
     48 H17        -5.7205    7.7197   -1.8937 H         1 <0>         0.1323
     49 H18        -6.2373    8.4637   -0.3617 H         1 <0>         0.1303
     50 H19        -4.8201    6.4607    0.0371 H         1 <0>         0.1160
     51 H20        -4.0361    7.9403    0.6428 H         1 <0>         0.0897
     52 H21        -6.0504   10.0332   -2.9937 H         1 <0>         0.1369
     53 H22        -6.6237   10.4986   -1.3742 H         1 <0>         0.1354
     54 H23        -5.7766   12.4916   -0.2815 H         1 <0>         0.1310
     55 H24        -4.7738   14.7223   -0.5675 H         1 <0>         0.1361
     56 H25        -3.5898   15.2817   -2.6528 H         1 <0>         0.1359
     57 H26        -3.4004   13.6073   -4.4482 H         1 <0>         0.1360
     58 H27        -4.3941   11.3732   -4.1580 H         1 <0>         0.1307
     59 H28         1.5412    3.7326    1.0340 H         1 <0>         0.1727
     60 H29         1.0280    1.4501    1.7981 H         1 <0>         0.1278
     61 H30        -1.0348    0.3346    1.0516 H         1 <0>         0.1241
     62 H31        -2.5852    1.4934   -0.4683 H         1 <0>         0.1254
     63 H32        -2.0869    3.7801   -1.2295 H         1 <0>         0.1214
     64 N2         -4.7522    9.5400   -1.3892 N.4       1 <0>        -0.3925
     65 H33        -4.3893    9.9966   -0.5442 H         1 <0>         0.4254
@<TRIPOS>BOND
     1    1    2 1
     2    1   32 1
     3    1   33 1
     4    1   34 1
     5    2    3 1
     6    3    8 ar
     7    3    4 ar
     8    4    5 ar
     9    4   35 1
    10    5    6 ar
    11    5   36 1
    12    6    7 ar
    13    6    9 1
    14    7    8 ar
    15    7   37 1
    16    8   38 1
    17    9   10 2
    18    9   11 am
    19   11   12 1
    20   11   26 1
    21   12   13 1
    22   12   39 1
    23   12   40 1
    24   13   14 1
    25   13   41 1
    26   13   42 1
    27   14   18 1
    28   14   15 1
    29   14   43 1
    30   15   16 1
    31   15   44 1
    32   15   45 1
    33   16   46 1
    34   16   47 1
    35   16   64 1
    36   17   18 1
    37   17   48 1
    38   17   49 1
    39   17   64 1
    40   18   50 1
    41   18   51 1
    42   19   20 1
    43   19   52 1
    44   19   53 1
    45   19   64 1
    46   20   25 ar
    47   20   21 ar
    48   21   22 ar
    49   21   54 1
    50   22   23 ar
    51   22   55 1
    52   23   24 ar
    53   23   56 1
    54   24   25 ar
    55   24   57 1
    56   25   58 1
    57   26   31 ar
    58   26   27 ar
    59   27   28 ar
    60   27   59 1
    61   28   29 ar
    62   28   60 1
    63   29   30 ar
    64   29   61 1
    65   30   31 ar
    66   30   62 1
    67   31   63 1
    68   64   65 1
@<TRIPOS>MOLECULE
ZINC03814239
   61    64     0     0     0
SMALL
USER_CHARGES

@<TRIPOS>ATOM
      1 C1         -4.0209   14.3068   -2.5175 C.ar      1 <0>        -0.0833
      2 C2         -3.9145   13.3676   -3.5262 C.ar      1 <0>        -0.1132
      3 C3         -4.4728   12.1134   -3.3644 C.ar      1 <0>        -0.0972
      4 C4         -5.1378   11.7986   -2.1941 C.ar      1 <0>        -0.1639
      5 C5         -5.2491   12.7397   -1.1877 C.ar      1 <0>        -0.0943
      6 C6         -4.6859   13.9920   -1.3472 C.ar      1 <0>        -0.1127
      7 C7         -5.7468   10.4314   -2.0179 C.3       1 <0>         0.0488
      8 C8         -5.3815    8.2630   -1.0056 C.3       1 <0>        -0.0017
      9 C9         -4.3609    7.4105   -0.2482 C.3       1 <0>        -0.1430
     10 C10        -3.1552    7.1424   -1.1532 C.3       1 <0>        -0.0974
     11 C11        -2.5547    8.4785   -1.5992 C.3       1 <0>        -0.1599
     12 C12        -3.6277    9.3000   -2.3175 C.3       1 <0>        -0.0059
     13 C13        -2.1044    6.3419   -0.3812 C.3       1 <0>        -0.1488
     14 C14        -0.9566    5.9676   -1.3210 C.3       1 <0>         0.0704
     15 N1          0.0496    5.2011   -0.5819 N.am      1 <0>        -0.5444
     16 C15        -0.2391    3.9029   -0.1494 C.ar      1 <0>         0.1449
     17 C16         0.6362    3.2426    0.7033 C.ar      1 <0>        -0.1566
     18 C17         0.3480    1.9608    1.1289 C.ar      1 <0>        -0.0929
     19 C18        -0.8106    1.3346    0.7071 C.ar      1 <0>        -0.1376
     20 C19        -1.6813    1.9871   -0.1464 C.ar      1 <0>        -0.0970
     21 C20        -1.4018    3.2712   -0.5712 C.ar      1 <0>        -0.1603
     22 C21         1.2534    5.7471   -0.3187 C.2       1 <0>         0.5588
     23 O1          2.1249    5.0763    0.1996 O.2       1 <0>        -0.4945
     24 C22         1.5138    7.1603   -0.6598 C.ar      1 <0>        -0.1465
     25 C23         0.4588    8.0739   -0.7146 C.ar      1 <0>        -0.0944
     26 C24         0.7082    9.3927   -1.0283 C.ar      1 <0>        -0.1678
     27 C25         2.0020    9.8105   -1.3004 C.ar      1 <0>         0.1332
     28 C26         3.0524    8.9066   -1.2525 C.ar      1 <0>        -0.1530
     29 C27         2.8151    7.5867   -0.9342 C.ar      1 <0>        -0.0227
     30 F1          2.2402   11.1031   -1.6129 F         1 <0>        -0.1284
     31 H1         -3.5841   15.2865   -2.6436 H         1 <0>         0.1360
     32 H2         -3.3950   13.6136   -4.4405 H         1 <0>         0.1361
     33 H3         -4.3898   11.3796   -4.1525 H         1 <0>         0.1307
     34 H4         -5.7724   12.4952   -0.2752 H         1 <0>         0.1309
     35 H5         -4.7686   14.7257   -0.5590 H         1 <0>         0.1361
     36 H6         -6.0468   10.0393   -2.9897 H         1 <0>         0.1367
     37 H7         -6.6203   10.5035   -1.3699 H         1 <0>         0.1352
     38 H8         -5.7182    7.7247   -1.8917 H         1 <0>         0.1321
     39 H9         -6.2349    8.4676   -0.3591 H         1 <0>         0.1303
     40 H10        -4.8186    6.4636    0.0381 H         1 <0>         0.1158
     41 H11        -4.0341    7.9423    0.6453 H         1 <0>         0.0899
     42 H12        -3.4749    6.5757   -2.0276 H         1 <0>         0.0982
     43 H13        -2.1995    9.0271   -0.7269 H         1 <0>         0.0918
     44 H14        -1.7220    8.2946   -2.2781 H         1 <0>         0.1147
     45 H15        -3.9726    8.7569   -3.1974 H         1 <0>         0.1324
     46 H16        -3.2073   10.2579   -2.6238 H         1 <0>         0.1309
     47 H17        -2.5589    5.4345    0.0166 H         1 <0>         0.0953
     48 H18        -1.7191    6.9456    0.4404 H         1 <0>         0.0812
     49 H19        -0.5021    6.8750   -1.7188 H         1 <0>         0.1144
     50 H20        -1.3419    5.3639   -2.1427 H         1 <0>         0.0887
     51 H21         1.5411    3.7312    1.0334 H         1 <0>         0.1723
     52 H22         1.0284    1.4467    1.7916 H         1 <0>         0.1283
     53 H23        -1.0336    0.3322    1.0414 H         1 <0>         0.1247
     54 H24        -2.5831    1.4936   -0.4775 H         1 <0>         0.1261
     55 H25        -2.0843    3.7817   -1.2345 H         1 <0>         0.1221
     56 H26        -0.5500    7.7485   -0.5076 H         1 <0>         0.1570
     57 H27        -0.1062   10.1010   -1.0663 H         1 <0>         0.1392
     58 H28         4.0584    9.2375   -1.4646 H         1 <0>         0.1507
     59 H29         3.6340    6.8835   -0.8969 H         1 <0>         0.1505
     60 N2         -4.7491    9.5441   -1.3853 N.4       1 <0>        -0.3926
     61 H30        -4.3862    9.9998   -0.5399 H         1 <0>         0.4257
@<TRIPOS>BOND
     1    1    6 ar
     2    1    2 ar
     3    1   31 1
     4    2    3 ar
     5    2   32 1
     6    3    4 ar
     7    3   33 1
     8    4    5 ar
     9    4    7 1
    10    5    6 ar
    11    5   34 1
    12    6   35 1
    13    7   36 1
    14    7   37 1
    15    7   60 1
    16    8    9 1
    17    8   38 1
    18    8   39 1
    19    8   60 1
    20    9   10 1
    21    9   40 1
    22    9   41 1
    23   10   11 1
    24   10   13 1
    25   10   42 1
    26   11   12 1
    27   11   43 1
    28   11   44 1
    29   12   45 1
    30   12   46 1
    31   12   60 1
    32   13   14 1
    33   13   47 1
    34   13   48 1
    35   14   15 1
    36   14   49 1
    37   14   50 1
    38   15   16 1
    39   15   22 am
    40   16   21 ar
    41   16   17 ar
    42   17   18 ar
    43   17   51 1
    44   18   19 ar
    45   18   52 1
    46   19   20 ar
    47   19   53 1
    48   20   21 ar
    49   20   54 1
    50   21   55 1
    51   22   23 2
    52   22   24 1
    53   24   29 ar
    54   24   25 ar
    55   25   26 ar
    56   25   56 1
    57   26   27 ar
    58   26   57 1
    59   27   28 ar
    60   27   30 1
    61   28   29 ar
    62   28   58 1
    63   29   59 1
    64   60   61 1
@<TRIPOS>MOLECULE
ZINC03814240
   63    66     0     0     0
SMALL
USER_CHARGES

@<TRIPOS>ATOM
      1 C1         -4.0162   14.3117   -2.5107 C.ar      1 <0>        -0.0807
      2 C2         -3.9120   13.3725   -3.5196 C.ar      1 <0>        -0.1115
      3 C3         -4.4711   12.1187   -3.3571 C.ar      1 <0>        -0.0976
      4 C4         -5.1347   11.8043   -2.1859 C.ar      1 <0>        -0.1656
      5 C5         -5.2438   12.7454   -1.1793 C.ar      1 <0>        -0.0946
      6 C6         -4.6798   13.9973   -1.3395 C.ar      1 <0>        -0.1121
      7 C7         -5.7445   10.4376   -2.0090 C.3       1 <0>         0.0493
      8 C8         -5.3794    8.2688   -0.9973 C.3       1 <0>        -0.0020
      9 C9         -4.3584    7.4155   -0.2414 C.3       1 <0>        -0.1429
     10 C10        -3.1542    7.1465   -1.1481 C.3       1 <0>        -0.0978
     11 C11        -2.5533    8.4822   -1.5949 C.3       1 <0>        -0.1617
     12 C12        -3.6266    9.3046   -2.3115 C.3       1 <0>        -0.0061
     13 C13        -2.1029    6.3452   -0.3776 C.3       1 <0>        -0.1499
     14 C14        -0.9567    5.9701   -1.3190 C.3       1 <0>         0.0676
     15 N1          0.0499    5.2027   -0.5813 N.am      1 <0>        -0.5399
     16 C15        -0.2379    3.9035   -0.1514 C.ar      1 <0>         0.1404
     17 C16         0.6376    3.2422    0.7002 C.ar      1 <0>        -0.1546
     18 C17         0.3502    1.9593    1.1233 C.ar      1 <0>        -0.0924
     19 C18        -0.8079    1.3332    0.7000 C.ar      1 <0>        -0.1339
     20 C19        -1.6791    1.9869   -0.1521 C.ar      1 <0>        -0.0964
     21 C20        -1.4002    3.2718   -0.5747 C.ar      1 <0>        -0.1571
     22 C21         1.2534    5.7489   -0.3170 C.2       1 <0>         0.5526
     23 O1          2.1252    5.0777    0.1998 O.2       1 <0>        -0.4831
     24 C22         1.5131    7.1642   -0.6555 C.ar      1 <0>        -0.0812
     25 C23         0.4582    8.0767   -0.7107 C.ar      1 <0>        -0.1257
     26 C24         0.7081    9.3970   -1.0230 C.ar      1 <0>        -0.0680
     27 C25         1.9995    9.8152   -1.2910 C.ar      1 <0>        -0.0175
     28 C26         3.0489    8.9149   -1.2426 C.ar      1 <0>        -0.0512
     29 C27         2.8135    7.5928   -0.9269 C.ar      1 <0>        -0.0521
     30 N2          2.2595   11.2323   -1.6304 N.pl3     1 <0>         0.0200
     31 O2          3.3953   11.6035   -1.8664 O.2       1 <0>        -0.1374
     32 O3          1.3376   12.0272   -1.6737 O.3       1 <0>        -0.1535
     33 H1         -3.5789   15.2910   -2.6374 H         1 <0>         0.1367
     34 H2         -3.3936   13.6181   -4.4346 H         1 <0>         0.1363
     35 H3         -4.3897   11.3849   -4.1454 H         1 <0>         0.1297
     36 H4         -5.7660   12.5013   -0.2661 H         1 <0>         0.1302
     37 H5         -4.7609   14.7310   -0.5512 H         1 <0>         0.1361
     38 H6         -6.0461   10.0458   -2.9804 H         1 <0>         0.1365
     39 H7         -6.6169   10.5103   -1.3597 H         1 <0>         0.1352
     40 H8         -5.7177    7.7308   -1.8829 H         1 <0>         0.1323
     41 H9         -6.2317    8.4740   -0.3496 H         1 <0>         0.1310
     42 H10        -4.8165    6.4689    0.0455 H         1 <0>         0.1163
     43 H11        -4.0300    7.9470    0.6518 H         1 <0>         0.0903
     44 H12        -3.4756    6.5801   -2.0221 H         1 <0>         0.0996
     45 H13        -2.1965    9.0305   -0.7230 H         1 <0>         0.0915
     46 H14        -1.7217    8.2977   -2.2749 H         1 <0>         0.1123
     47 H15        -3.9731    8.7618   -3.1910 H         1 <0>         0.1329
     48 H16        -3.2059   10.2621   -2.6184 H         1 <0>         0.1328
     49 H17        -2.5575    5.4381    0.0208 H         1 <0>         0.0980
     50 H18        -1.7160    6.9485    0.4436 H         1 <0>         0.0815
     51 H19        -0.5021    6.8771   -1.7174 H         1 <0>         0.1113
     52 H20        -1.3436    5.3667   -2.1402 H         1 <0>         0.0935
     53 H21         1.5420    3.7308    1.0314 H         1 <0>         0.1715
     54 H22         1.0307    1.4444    1.7852 H         1 <0>         0.1297
     55 H23        -1.0302    0.3299    1.0320 H         1 <0>         0.1263
     56 H24        -2.5807    1.4936   -0.4841 H         1 <0>         0.1277
     57 H25        -2.0829    3.7831   -1.2371 H         1 <0>         0.1231
     58 H26        -0.5508    7.7506   -0.5058 H         1 <0>         0.1697
     59 H27        -0.1066   10.1049   -1.0624 H         1 <0>         0.1568
     60 H28         4.0546    9.2478   -1.4529 H         1 <0>         0.1688
     61 H29         3.6336    6.8909   -0.8895 H         1 <0>         0.1653
     62 N3         -4.7466    9.5494   -1.3778 N.4       1 <0>        -0.3927
     63 H30        -4.3822   10.0048   -0.5328 H         1 <0>         0.4260
@<TRIPOS>BOND
     1    1    6 ar
     2    1    2 ar
     3    1   33 1
     4    2    3 ar
     5    2   34 1
     6    3    4 ar
     7    3   35 1
     8    4    5 ar
     9    4    7 1
    10    5    6 ar
    11    5   36 1
    12    6   37 1
    13    7   38 1
    14    7   39 1
    15    7   62 1
    16    8    9 1
    17    8   40 1
    18    8   41 1
    19    8   62 1
    20    9   10 1
    21    9   42 1
    22    9   43 1
    23   10   11 1
    24   10   13 1
    25   10   44 1
    26   11   12 1
    27   11   45 1
    28   11   46 1
    29   12   47 1
    30   12   48 1
    31   12   62 1
    32   13   14 1
    33   13   49 1
    34   13   50 1
    35   14   15 1
    36   14   51 1
    37   14   52 1
    38   15   16 1
    39   15   22 am
    40   16   21 ar
    41   16   17 ar
    42   17   18 ar
    43   17   53 1
    44   18   19 ar
    45   18   54 1
    46   19   20 ar
    47   19   55 1
    48   20   21 ar
    49   20   56 1
    50   21   57 1
    51   22   23 2
    52   22   24 1
    53   24   29 ar
    54   24   25 ar
    55   25   26 ar
    56   25   58 1
    57   26   27 ar
    58   26   59 1
    59   27   28 ar
    60   27   30 1
    61   28   29 ar
    62   28   60 1
    63   29   61 1
    64   30   31 2
    65   30   32 1
    66   62   63 1
@<TRIPOS>MOLECULE
ZINC03814241
   60    63     0     0     0
SMALL
USER_CHARGES

@<TRIPOS>ATOM
      1 C1        -13.7721    2.4063    0.8154 C.ar      1 <0>        -0.0836
      2 C2        -13.2152    1.5684   -0.1326 C.ar      1 <0>        -0.1135
      3 C3        -12.3097    0.5967    0.2504 C.ar      1 <0>        -0.0970
      4 C4        -11.9614    0.4626    1.5815 C.ar      1 <0>        -0.1636
      5 C5        -12.5226    1.2968    2.5302 C.ar      1 <0>        -0.0943
      6 C6        -13.4238    2.2722    2.1464 C.ar      1 <0>        -0.1128
      7 C7        -10.9745   -0.5970    1.9991 C.3       1 <0>         0.0488
      8 C8         -8.6518   -0.9630    2.5749 C.3       1 <0>        -0.0018
      9 C9         -7.2762   -0.2955    2.6398 C.3       1 <0>        -0.1435
     10 C10        -6.8225    0.0663    1.2229 C.3       1 <0>        -0.0998
     11 C11        -7.8657    0.9844    0.5802 C.3       1 <0>        -0.1487
     12 C12        -9.2242    0.2798    0.5749 C.3       1 <0>        -0.0066
     13 C13        -5.4752    0.7887    1.2862 C.3       1 <0>        -0.1496
     14 C14        -4.9634    1.0388   -0.1337 C.3       1 <0>         0.0640
     15 N1         -3.6734    1.7305   -0.0731 N.am      1 <0>        -0.5415
     16 C15        -3.6309    3.1154    0.1160 C.ar      1 <0>         0.1456
     17 C16        -4.7960    3.8147    0.4032 C.ar      1 <0>        -0.1615
     18 C17        -4.7496    5.1816    0.5951 C.ar      1 <0>        -0.0976
     19 C18        -3.5466    5.8556    0.4901 C.ar      1 <0>        -0.1373
     20 C19        -2.3857    5.1631    0.1986 C.ar      1 <0>        -0.0910
     21 C20        -2.4243    3.7954    0.0113 C.ar      1 <0>        -0.1563
     22 C21        -2.5277    1.0321   -0.1995 C.2       1 <0>         0.5579
     23 O1         -1.4584    1.5813   -0.0209 O.2       1 <0>        -0.4892
     24 C22        -2.5717   -0.4048   -0.5560 C.ar      1 <0>        -0.0861
     25 C23        -1.5327   -0.9977   -1.2800 C.ar      1 <0>        -0.1125
     26 C24        -1.6121   -2.3424   -1.5861 C.ar      1 <0>         0.1101
     27 N2         -2.6503   -3.0622   -1.2097 N.ar      1 <0>        -0.4639
     28 C25        -3.6530   -2.5418   -0.5306 C.ar      1 <0>         0.0988
     29 C26        -3.6557   -1.2051   -0.1820 C.ar      1 <0>        -0.1821
     30 H1        -14.4791    3.1660    0.5161 H         1 <0>         0.1360
     31 H2        -13.4873    1.6732   -1.1725 H         1 <0>         0.1361
     32 H3        -11.8745   -0.0579   -0.4902 H         1 <0>         0.1307
     33 H4        -12.2538    1.1892    3.5706 H         1 <0>         0.1309
     34 H5        -13.8587    2.9271    2.8870 H         1 <0>         0.1362
     35 H6        -11.0448   -1.4467    1.3200 H         1 <0>         0.1367
     36 H7        -11.1999   -0.9235    3.0143 H         1 <0>         0.1350
     37 H8         -8.5852   -1.8753    1.9820 H         1 <0>         0.1323
     38 H9         -8.9841   -1.2090    3.5834 H         1 <0>         0.1302
     39 H10        -6.5587   -0.9834    3.0872 H         1 <0>         0.1151
     40 H11        -7.3391    0.6095    3.2440 H         1 <0>         0.0906
     41 H12        -6.7209   -0.8426    0.6297 H         1 <0>         0.0956
     42 H13        -7.9378    1.9096    1.1519 H         1 <0>         0.0911
     43 H14        -7.5694    1.2111   -0.4440 H         1 <0>         0.1135
     44 H15        -9.1549   -0.6382   -0.0086 H         1 <0>         0.1313
     45 H16        -9.9723    0.9366    0.1309 H         1 <0>         0.1302
     46 H17        -4.7576    0.1724    1.8278 H         1 <0>         0.0866
     47 H18        -5.5977    1.7414    1.8014 H         1 <0>         0.0888
     48 H19        -5.6810    1.6551   -0.6753 H         1 <0>         0.0899
     49 H20        -4.8409    0.0861   -0.6489 H         1 <0>         0.1211
     50 H21        -5.7366    3.2896    0.4806 H         1 <0>         0.1200
     51 H22        -5.6544    5.7254    0.8229 H         1 <0>         0.1252
     52 H23        -3.5138    6.9252    0.6358 H         1 <0>         0.1253
     53 H24        -1.4478    5.6924    0.1177 H         1 <0>         0.1293
     54 H25        -1.5173    3.2552   -0.2167 H         1 <0>         0.1722
     55 H26        -0.6789   -0.4142   -1.5913 H         1 <0>         0.1511
     56 H27        -0.8125   -2.8105   -2.1410 H         1 <0>         0.1706
     57 H28        -4.4836   -3.1691   -0.2424 H         1 <0>         0.1617
     58 H29        -4.4807   -0.7854    0.3745 H         1 <0>         0.1622
     59 N3         -9.6150   -0.0191    1.9689 N.4       1 <0>        -0.3925
     60 H30        -9.6116    0.8535    2.5101 H         1 <0>         0.4259
@<TRIPOS>BOND
     1    1    6 ar
     2    1    2 ar
     3    1   30 1
     4    2    3 ar
     5    2   31 1
     6    3    4 ar
     7    3   32 1
     8    4    5 ar
     9    4    7 1
    10    5    6 ar
    11    5   33 1
    12    6   34 1
    13    7   35 1
    14    7   36 1
    15    7   59 1
    16    8    9 1
    17    8   37 1
    18    8   38 1
    19    8   59 1
    20    9   10 1
    21    9   39 1
    22    9   40 1
    23   10   11 1
    24   10   13 1
    25   10   41 1
    26   11   12 1
    27   11   42 1
    28   11   43 1
    29   12   44 1
    30   12   45 1
    31   12   59 1
    32   13   14 1
    33   13   46 1
    34   13   47 1
    35   14   15 1
    36   14   48 1
    37   14   49 1
    38   15   16 1
    39   15   22 am
    40   16   21 ar
    41   16   17 ar
    42   17   18 ar
    43   17   50 1
    44   18   19 ar
    45   18   51 1
    46   19   20 ar
    47   19   52 1
    48   20   21 ar
    49   20   53 1
    50   21   54 1
    51   22   23 2
    52   22   24 1
    53   24   29 ar
    54   24   25 ar
    55   25   26 ar
    56   25   55 1
    57   26   27 ar
    58   26   56 1
    59   27   28 ar
    60   28   29 ar
    61   28   57 1
    62   29   58 1
    63   59   60 1
@<TRIPOS>MOLECULE
ZINC03814242
   54    56     0     0     0
SMALL
USER_CHARGES

@<TRIPOS>ATOM
      1 C1          4.9098   -2.7609    0.1531 C.3       1 <0>        -0.1742
      2 C2          3.6124   -2.0003    0.0564 C.2       1 <0>         0.5088
      3 O1          2.5573   -2.5986    0.0565 O.2       1 <0>        -0.5067
      4 N1          3.6245   -0.6554   -0.0302 N.am      1 <0>        -0.5525
      5 C3          4.8983    0.0603   -0.1371 C.3       1 <0>         0.0970
      6 C4          5.4698    0.2961    1.2624 C.3       1 <0>        -0.1396
      7 C5          6.8002    1.0436    1.1507 C.3       1 <0>        -0.0971
      8 C6          7.8287    0.1550    0.4456 C.3       1 <0>        -0.1484
      9 C7          9.1732    0.8839    0.3912 C.3       1 <0>        -0.0067
     10 C8          8.6712    2.0831    2.4362 C.3       1 <0>        -0.0015
     11 C9          7.3117    1.3900    2.5518 C.3       1 <0>        -0.1428
     12 C10        10.9712    1.7684    1.7497 C.3       1 <0>         0.0488
     13 C11        11.9561    0.7338    1.2696 C.ar      1 <0>        -0.1634
     14 C12        12.5742   -0.1058    2.1773 C.ar      1 <0>        -0.0945
     15 C13        13.4737   -1.0584    1.7364 C.ar      1 <0>        -0.1128
     16 C14        13.7633   -1.1641    0.3889 C.ar      1 <0>        -0.0837
     17 C15        13.1495   -0.3208   -0.5183 C.ar      1 <0>        -0.1136
     18 C16        12.2457    0.6280   -0.0779 C.ar      1 <0>        -0.0971
     19 C17         2.4204    0.0573   -0.0179 C.ar      1 <0>         0.1419
     20 C18         1.2097   -0.6210   -0.0695 C.ar      1 <0>        -0.1660
     21 C19         0.0230    0.0854   -0.0576 C.ar      1 <0>        -0.0943
     22 C20         0.0395    1.4667    0.0055 C.ar      1 <0>        -0.1397
     23 C21         1.2434    2.1451    0.0569 C.ar      1 <0>        -0.0975
     24 C22         2.4336    1.4445    0.0454 C.ar      1 <0>        -0.1630
     25 H1          5.2332   -2.7968    1.1934 H         1 <0>         0.0965
     26 H2          4.7646   -3.7756   -0.2174 H         1 <0>         0.1014
     27 H3          5.6700   -2.2603   -0.4466 H         1 <0>         0.0826
     28 H4          5.6010   -0.5339   -0.7212 H         1 <0>         0.0891
     29 H5          4.7361    1.0191   -0.6296 H         1 <0>         0.0942
     30 H6          4.7671    0.8903    1.8465 H         1 <0>         0.0843
     31 H7          5.6320   -0.6627    1.7549 H         1 <0>         0.0772
     32 H8          6.6561    1.9601    0.5786 H         1 <0>         0.0941
     33 H9          7.9427   -0.7780    0.9975 H         1 <0>         0.0904
     34 H10         7.4900   -0.0600   -0.5678 H         1 <0>         0.1125
     35 H11         9.0617    1.8101   -0.1726 H         1 <0>         0.1304
     36 H12         9.9115    0.2481   -0.0976 H         1 <0>         0.1297
     37 H13         8.5620    3.0036    1.8629 H         1 <0>         0.1312
     38 H14         9.0448    2.3182    3.4328 H         1 <0>         0.1294
     39 H15         6.6035    2.0573    3.0430 H         1 <0>         0.1139
     40 H16         7.4175    0.4763    3.1367 H         1 <0>         0.0891
     41 H17        10.9958    2.6304    1.0830 H         1 <0>         0.1363
     42 H18        11.2369    2.0821    2.7592 H         1 <0>         0.1348
     43 H19        12.3513   -0.0202    3.2306 H         1 <0>         0.1309
     44 H20        13.9530   -1.7175    2.4451 H         1 <0>         0.1362
     45 H21        14.4689   -1.9059    0.0447 H         1 <0>         0.1360
     46 H22        13.3757   -0.4034   -1.5711 H         1 <0>         0.1361
     47 H23        11.7661    1.2869   -0.7867 H         1 <0>         0.1306
     48 H24         1.1962   -1.6998   -0.1191 H         1 <0>         0.1807
     49 H25        -0.9189   -0.4415   -0.0981 H         1 <0>         0.1274
     50 H26        -0.8898    2.0170    0.0101 H         1 <0>         0.1240
     51 H27         1.2529    3.2239    0.1061 H         1 <0>         0.1253
     52 H28         3.3735    1.9750    0.0857 H         1 <0>         0.1206
     53 N2          9.6219    1.1669    1.7713 N.4       1 <0>        -0.3923
     54 H29         9.6580    0.2857    2.2970 H         1 <0>         0.4257
@<TRIPOS>BOND
     1    1    2 1
     2    1   25 1
     3    1   26 1
     4    1   27 1
     5    2    3 2
     6    2    4 am
     7    4    5 1
     8    4   19 1
     9    5    6 1
    10    5   28 1
    11    5   29 1
    12    6    7 1
    13    6   30 1
    14    6   31 1
    15    7   11 1
    16    7    8 1
    17    7   32 1
    18    8    9 1
    19    8   33 1
    20    8   34 1
    21    9   35 1
    22    9   36 1
    23    9   53 1
    24   10   11 1
    25   10   37 1
    26   10   38 1
    27   10   53 1
    28   11   39 1
    29   11   40 1
    30   12   13 1
    31   12   41 1
    32   12   42 1
    33   12   53 1
    34   13   18 ar
    35   13   14 ar
    36   14   15 ar
    37   14   43 1
    38   15   16 ar
    39   15   44 1
    40   16   17 ar
    41   16   45 1
    42   17   18 ar
    43   17   46 1
    44   18   47 1
    45   19   24 ar
    46   19   20 ar
    47   20   21 ar
    48   20   48 1
    49   21   22 ar
    50   21   49 1
    51   22   23 ar
    52   22   50 1
    53   23   24 ar
    54   23   51 1
    55   24   52 1
    56   53   54 1
@<TRIPOS>MOLECULE
ZINC03814243
   57    59     0     0     0
SMALL
USER_CHARGES

@<TRIPOS>ATOM
      1 C1         -1.3022    0.7403    1.0969 C.3       1 <0>        -0.1403
      2 C2         -0.3131    0.6634   -0.0679 C.3       1 <0>        -0.1438
      3 C3         -0.8845    1.3860   -1.2606 C.2       1 <0>         0.5220
      4 O1         -1.9298    1.9925   -1.1586 O.2       1 <0>        -0.5234
      5 N1         -0.2338    1.3582   -2.4406 N.am      1 <0>        -0.5750
      6 C4         -0.7274    2.1528   -3.5681 C.3       1 <0>         0.1127
      7 C5         -0.0818    3.5396   -3.5360 C.3       1 <0>        -0.1310
      8 C6         -0.5973    4.3694   -4.7136 C.3       1 <0>        -0.0964
      9 C7         -0.1251    3.7413   -6.0277 C.3       1 <0>        -0.1451
     10 C8         -0.5921    4.6088   -7.1988 C.3       1 <0>        -0.0063
     11 C9         -0.5187    6.6037   -5.8251 C.3       1 <0>        -0.0013
     12 C10        -0.0496    5.7957   -4.6130 C.3       1 <0>        -0.1420
     13 C11        -0.3542    6.7844   -8.2335 C.3       1 <0>         0.0485
     14 C12         0.3570    6.2267   -9.4394 C.ar      1 <0>        -0.1627
     15 C13         1.6258    6.6716   -9.7606 C.ar      1 <0>        -0.0946
     16 C14         2.2803    6.1562  -10.8637 C.ar      1 <0>        -0.1131
     17 C15         1.6617    5.2038  -11.6519 C.ar      1 <0>        -0.0842
     18 C16         0.3907    4.7631  -11.3339 C.ar      1 <0>        -0.1137
     19 C17        -0.2616    5.2743  -10.2276 C.ar      1 <0>        -0.0969
     20 C18         0.9131    0.5705   -2.5887 C.ar      1 <0>         0.1269
     21 C19         2.0742    0.8953   -1.8996 C.ar      1 <0>        -0.1235
     22 C20         3.2025    0.1118   -2.0428 C.ar      1 <0>        -0.1036
     23 C21         3.1808   -0.9876   -2.8813 C.ar      1 <0>        -0.1141
     24 C22         2.0281   -1.3101   -3.5736 C.ar      1 <0>        -0.1036
     25 C23         0.8944   -0.5346   -3.4296 C.ar      1 <0>        -0.1225
     26 H1         -0.8889    0.2176    1.9595 H         1 <0>         0.0663
     27 H2         -1.4791    1.7844    1.3551 H         1 <0>         0.0631
     28 H3         -2.2432    0.2735    0.8058 H         1 <0>         0.0617
     29 H4         -0.1362   -0.3807   -0.3261 H         1 <0>         0.0937
     30 H5          0.6279    1.1302    0.2232 H         1 <0>         0.0964
     31 H6         -0.4717    1.6545   -4.5032 H         1 <0>         0.0783
     32 H7         -1.8102    2.2543   -3.4947 H         1 <0>         0.0907
     33 H8         -0.3375    4.0378   -2.6009 H         1 <0>         0.0785
     34 H9          1.0009    3.4381   -3.6094 H         1 <0>         0.0723
     35 H10        -1.6868    4.3951   -4.6918 H         1 <0>         0.0930
     36 H11         0.9631    3.6800   -6.0315 H         1 <0>         0.0883
     37 H12        -0.5469    2.7409   -6.1251 H         1 <0>         0.1114
     38 H13        -1.6809    4.6583   -7.2026 H         1 <0>         0.1300
     39 H14        -0.2453    4.1720   -8.1353 H         1 <0>         0.1288
     40 H15        -1.6079    6.6439   -5.8353 H         1 <0>         0.1312
     41 H16        -0.1187    7.6158   -5.7638 H         1 <0>         0.1291
     42 H17        -0.4174    6.2632   -3.6996 H         1 <0>         0.1132
     43 H18         1.0398    5.7668   -4.5944 H         1 <0>         0.0878
     44 H19        -1.4300    6.7732   -8.4088 H         1 <0>         0.1362
     45 H20        -0.0252    7.8089   -8.0592 H         1 <0>         0.1347
     46 H21         2.1073    7.4189   -9.1473 H         1 <0>         0.1308
     47 H22         3.2735    6.5003  -11.1119 H         1 <0>         0.1361
     48 H23         2.1716    4.8038  -12.5158 H         1 <0>         0.1359
     49 H24        -0.0926    4.0190  -11.9497 H         1 <0>         0.1360
     50 H25        -1.2546    4.9300   -9.9792 H         1 <0>         0.1307
     51 H26         2.0933    1.7569   -1.2486 H         1 <0>         0.1248
     52 H27         4.1044    0.3612   -1.5035 H         1 <0>         0.1304
     53 H28         4.0659   -1.5958   -2.9953 H         1 <0>         0.1293
     54 H29         2.0142   -2.1697   -4.2274 H         1 <0>         0.1302
     55 H30        -0.0056   -0.7870   -3.9706 H         1 <0>         0.1251
     56 N2         -0.0113    5.9609   -7.0558 N.4       1 <0>        -0.3920
     57 H31         1.0103    5.8794   -6.9920 H         1 <0>         0.4252
@<TRIPOS>BOND
     1    1    2 1
     2    1   26 1
     3    1   27 1
     4    1   28 1
     5    2    3 1
     6    2   29 1
     7    2   30 1
     8    3    4 2
     9    3    5 am
    10    5    6 1
    11    5   20 1
    12    6    7 1
    13    6   31 1
    14    6   32 1
    15    7    8 1
    16    7   33 1
    17    7   34 1
    18    8   12 1
    19    8    9 1
    20    8   35 1
    21    9   10 1
    22    9   36 1
    23    9   37 1
    24   10   38 1
    25   10   39 1
    26   10   56 1
    27   11   12 1
    28   11   40 1
    29   11   41 1
    30   11   56 1
    31   12   42 1
    32   12   43 1
    33   13   14 1
    34   13   44 1
    35   13   45 1
    36   13   56 1
    37   14   19 ar
    38   14   15 ar
    39   15   16 ar
    40   15   46 1
    41   16   17 ar
    42   16   47 1
    43   17   18 ar
    44   17   48 1
    45   18   19 ar
    46   18   49 1
    47   19   50 1
    48   20   25 ar
    49   20   21 ar
    50   21   22 ar
    51   21   51 1
    52   22   23 ar
    53   22   52 1
    54   23   24 ar
    55   23   53 1
    56   24   25 ar
    57   24   54 1
    58   25   55 1
    59   56   57 1
@<TRIPOS>MOLECULE
ZINC03814244
   58    60     0     0     0
SMALL
USER_CHARGES

@<TRIPOS>ATOM
      1 C1         -4.7817    2.6579    5.9989 C.3       1 <0>        -0.1738
      2 C2         -4.0730    2.2914    4.7204 C.2       1 <0>         0.5078
      3 O1         -2.9206    2.6280    4.5480 O.2       1 <0>        -0.5008
      4 N1         -4.7197    1.5897    3.7687 N.am      1 <0>        -0.5519
      5 C3         -6.1422    1.2777    3.9281 C.3       1 <0>         0.0977
      6 C4         -6.2945    0.0020    4.7589 C.3       1 <0>        -0.1400
      7 C5         -7.7801   -0.3239    4.9253 C.3       1 <0>        -0.0970
      8 C6         -8.4549    0.7730    5.7536 C.3       1 <0>        -0.1486
      9 C7         -9.9263    0.4110    5.9682 C.3       1 <0>        -0.0068
     10 C8         -9.4184   -1.9562    5.8662 C.3       1 <0>        -0.0015
     11 C9         -7.9319   -1.6650    5.6486 C.3       1 <0>        -0.1429
     12 C10       -11.4107   -1.1926    7.0100 C.3       1 <0>         0.0488
     13 C11       -11.9133   -0.1963    8.0228 C.ar      1 <0>        -0.1634
     14 C12       -11.7689   -0.4513    9.3737 C.ar      1 <0>        -0.0944
     15 C13       -12.2252    0.4650   10.3027 C.ar      1 <0>        -0.1128
     16 C14       -12.8357    1.6313    9.8809 C.ar      1 <0>        -0.0837
     17 C15       -12.9852    1.8837    8.5300 C.ar      1 <0>        -0.1135
     18 C16       -12.5238    0.9700    7.6010 C.ar      1 <0>        -0.0971
     19 C17        -4.0325    1.1593    2.6284 C.ar      1 <0>         0.1827
     20 C18        -4.6542    0.3113    1.7204 C.ar      1 <0>        -0.2013
     21 C19        -3.9756   -0.1140    0.5950 C.ar      1 <0>        -0.0554
     22 C20        -2.6771    0.3022    0.3693 C.ar      1 <0>        -0.2310
     23 C21        -2.0510    1.1488    1.2731 C.ar      1 <0>         0.1548
     24 C22        -2.7271    1.5739    2.4062 C.ar      1 <0>        -0.2027
     25 O2         -0.7739    1.5564    1.0504 O.3       1 <0>        -0.3121
     26 C23        -0.1363    1.0746   -0.1342 C.3       1 <0>         0.0256
     27 H1         -4.7117    1.8292    6.7036 H         1 <0>         0.0969
     28 H2         -4.3159    3.5432    6.4317 H         1 <0>         0.1018
     29 H3         -5.8303    2.8662    5.7862 H         1 <0>         0.0829
     30 H4         -6.6407    2.1035    4.4356 H         1 <0>         0.0898
     31 H5         -6.5935    1.1285    2.9472 H         1 <0>         0.0957
     32 H6         -5.7960   -0.8239    4.2514 H         1 <0>         0.0852
     33 H7         -5.8431    0.1512    5.7398 H         1 <0>         0.0774
     34 H8         -8.2520   -0.3835    3.9446 H         1 <0>         0.0943
     35 H9         -7.9566    0.8584    6.7192 H         1 <0>         0.0905
     36 H10        -8.3874    1.7229    5.2233 H         1 <0>         0.1127
     37 H11       -10.4272    0.3393    5.0027 H         1 <0>         0.1304
     38 H12       -10.4062    1.1830    6.5697 H         1 <0>         0.1296
     39 H13        -9.9217   -2.0169    4.9013 H         1 <0>         0.1312
     40 H14        -9.5294   -2.9036    6.3937 H         1 <0>         0.1293
     41 H15        -7.4907   -2.4569    5.0433 H         1 <0>         0.1140
     42 H16        -7.4253   -1.6179    6.6126 H         1 <0>         0.0891
     43 H17       -12.0282   -1.1420    6.1132 H         1 <0>         0.1362
     44 H18       -11.4632   -2.1967    7.4310 H         1 <0>         0.1347
     45 H19       -11.2959   -1.3646    9.7033 H         1 <0>         0.1309
     46 H20       -12.1080    0.2680   11.3581 H         1 <0>         0.1362
     47 H21       -13.1955    2.3455   10.6067 H         1 <0>         0.1360
     48 H22       -13.4622    2.7949    8.2005 H         1 <0>         0.1361
     49 H23       -12.6406    1.1671    6.5456 H         1 <0>         0.1306
     50 H24        -5.6686   -0.0159    1.8948 H         1 <0>         0.1230
     51 H25        -4.4605   -0.7732   -0.1098 H         1 <0>         0.1286
     52 H26        -2.1489   -0.0322   -0.5114 H         1 <0>         0.1294
     53 H27        -2.2398    2.2292    3.1130 H         1 <0>         0.1891
     54 H28        -0.0958   -0.0144   -0.1077 H         1 <0>         0.0571
     55 H29         0.8761    1.4746   -0.1904 H         1 <0>         0.1040
     56 H30        -0.7029    1.3959   -1.0082 H         1 <0>         0.0575
     57 N2        -10.0033   -0.8767    6.6900 N.4       1 <0>        -0.3923
     58 H31        -9.4715   -0.8003    7.5650 H         1 <0>         0.4257
@<TRIPOS>BOND
     1    1    2 1
     2    1   27 1
     3    1   28 1
     4    1   29 1
     5    2    3 2
     6    2    4 am
     7    4    5 1
     8    4   19 1
     9    5    6 1
    10    5   30 1
    11    5   31 1
    12    6    7 1
    13    6   32 1
    14    6   33 1
    15    7   11 1
    16    7    8 1
    17    7   34 1
    18    8    9 1
    19    8   35 1
    20    8   36 1
    21    9   37 1
    22    9   38 1
    23    9   57 1
    24   10   11 1
    25   10   39 1
    26   10   40 1
    27   10   57 1
    28   11   41 1
    29   11   42 1
    30   12   13 1
    31   12   43 1
    32   12   44 1
    33   12   57 1
    34   13   18 ar
    35   13   14 ar
    36   14   15 ar
    37   14   45 1
    38   15   16 ar
    39   15   46 1
    40   16   17 ar
    41   16   47 1
    42   17   18 ar
    43   17   48 1
    44   18   49 1
    45   19   24 ar
    46   19   20 ar
    47   20   21 ar
    48   20   50 1
    49   21   22 ar
    50   21   51 1
    51   22   23 ar
    52   22   52 1
    53   23   24 ar
    54   23   25 1
    55   24   53 1
    56   25   26 1
    57   26   54 1
    58   26   55 1
    59   26   56 1
    60   57   58 1
@<TRIPOS>MOLECULE
ZINC03814245
   58    60     0     0     0
SMALL
USER_CHARGES

@<TRIPOS>ATOM
      1 C1          5.2584   -3.5951   -9.0716 C.3       1 <0>        -0.1772
      2 C2          4.5499   -3.2013   -7.8011 C.2       1 <0>         0.5235
      3 O1          4.0957   -2.0830   -7.6816 O.2       1 <0>        -0.5381
      4 N1          4.4209   -4.0918   -6.7977 N.am      1 <0>        -0.5695
      5 C3          3.6682   -3.7339   -5.5929 C.3       1 <0>         0.1146
      6 C4          4.6142   -3.1032   -4.5691 C.3       1 <0>        -0.1335
      7 C5          3.8281   -2.7294   -3.3109 C.3       1 <0>        -0.0954
      8 C6          4.7926   -2.2136   -2.2393 C.3       1 <0>        -0.1425
      9 C7          3.9949   -1.7844   -1.0058 C.3       1 <0>        -0.0008
     10 C8          2.0759   -1.2180   -2.3730 C.3       1 <0>        -0.0060
     11 C9          2.8164   -1.6304   -3.6472 C.3       1 <0>        -0.1451
     12 C10         2.3557   -0.1979   -0.1955 C.3       1 <0>         0.0489
     13 C11         1.5765    1.0337   -0.5789 C.ar      1 <0>        -0.1628
     14 C12         0.2652    0.9184   -1.0009 C.ar      1 <0>        -0.0969
     15 C13        -0.4497    2.0482   -1.3522 C.ar      1 <0>        -0.1135
     16 C14         0.1469    3.2933   -1.2819 C.ar      1 <0>        -0.0842
     17 C15         1.4581    3.4086   -0.8598 C.ar      1 <0>        -0.1128
     18 C16         2.1732    2.2787   -0.5090 C.ar      1 <0>        -0.0948
     19 C17         5.0067   -5.3599   -6.9068 C.ar      1 <0>         0.0784
     20 C18         4.3516   -6.3705   -7.5976 C.ar      1 <0>        -0.0709
     21 C19         4.9322   -7.6184   -7.7097 C.ar      1 <0>        -0.1975
     22 C20         6.1644   -7.8657   -7.1225 C.ar      1 <0>         0.1418
     23 C21         6.8169   -6.8581   -6.4273 C.ar      1 <0>        -0.1424
     24 C22         6.2400   -5.6081   -6.3193 C.ar      1 <0>        -0.0743
     25 O2          6.7331   -9.0962   -7.2288 O.3       1 <0>        -0.3129
     26 C23         6.0058  -10.0862   -7.9588 C.3       1 <0>         0.0237
     27 H1          4.5372   -4.0089   -9.7765 H         1 <0>         0.0970
     28 H2          5.7325   -2.7171   -9.5102 H         1 <0>         0.0959
     29 H3          6.0178   -4.3440   -8.8469 H         1 <0>         0.0840
     30 H4          3.2169   -4.6299   -5.1669 H         1 <0>         0.0797
     31 H5          2.8855   -3.0208   -5.8519 H         1 <0>         0.0869
     32 H6          5.0655   -2.2071   -4.9952 H         1 <0>         0.0760
     33 H7          5.3969   -3.8162   -4.3101 H         1 <0>         0.0768
     34 H8          3.3015   -3.6067   -2.9352 H         1 <0>         0.0907
     35 H9          5.3471   -1.3601   -2.6292 H         1 <0>         0.0883
     36 H10         5.4889   -3.0060   -1.9647 H         1 <0>         0.1125
     37 H11         4.6775   -1.4033   -0.2463 H         1 <0>         0.1286
     38 H12         3.4515   -2.6416   -0.6083 H         1 <0>         0.1304
     39 H13         1.5415   -2.0779   -1.9691 H         1 <0>         0.1291
     40 H14         1.3648   -0.4256   -2.6064 H         1 <0>         0.1286
     41 H15         3.3398   -0.7676   -4.0593 H         1 <0>         0.0901
     42 H16         2.1008   -2.0060   -4.3786 H         1 <0>         0.1123
     43 H17         3.0921    0.0604    0.5655 H         1 <0>         0.1344
     44 H18         1.6738   -0.9509    0.1995 H         1 <0>         0.1358
     45 H19        -0.2008   -0.0543   -1.0559 H         1 <0>         0.1305
     46 H20        -1.4742    1.9582   -1.6819 H         1 <0>         0.1360
     47 H21        -0.4101    4.1755   -1.5609 H         1 <0>         0.1359
     48 H22         1.9243    4.3812   -0.8051 H         1 <0>         0.1361
     49 H23         3.1978    2.3688   -0.1796 H         1 <0>         0.1308
     50 H24         3.3900   -6.1795   -8.0508 H         1 <0>         0.1296
     51 H25         4.4247   -8.4033   -8.2508 H         1 <0>         0.1368
     52 H26         7.7760   -7.0513   -5.9701 H         1 <0>         0.1387
     53 H27         6.7483   -4.8236   -5.7784 H         1 <0>         0.1312
     54 H28         6.5698  -11.0189   -7.9671 H         1 <0>         0.1061
     55 H29         5.0387  -10.2506   -7.4835 H         1 <0>         0.0587
     56 H30         5.8540   -9.7442   -8.9826 H         1 <0>         0.0598
     57 N2          3.0570   -0.7085   -1.3915 N.4       1 <0>        -0.3925
     58 H31         3.5883    0.0589   -1.8195 H         1 <0>         0.4259
@<TRIPOS>BOND
     1    1    2 1
     2    1   27 1
     3    1   28 1
     4    1   29 1
     5    2    3 2
     6    2    4 am
     7    4    5 1
     8    4   19 1
     9    5    6 1
    10    5   30 1
    11    5   31 1
    12    6    7 1
    13    6   32 1
    14    6   33 1
    15    7   11 1
    16    7    8 1
    17    7   34 1
    18    8    9 1
    19    8   35 1
    20    8   36 1
    21    9   37 1
    22    9   38 1
    23    9   57 1
    24   10   11 1
    25   10   39 1
    26   10   40 1
    27   10   57 1
    28   11   41 1
    29   11   42 1
    30   12   13 1
    31   12   43 1
    32   12   44 1
    33   12   57 1
    34   13   18 ar
    35   13   14 ar
    36   14   15 ar
    37   14   45 1
    38   15   16 ar
    39   15   46 1
    40   16   17 ar
    41   16   47 1
    42   17   18 ar
    43   17   48 1
    44   18   49 1
    45   19   24 ar
    46   19   20 ar
    47   20   21 ar
    48   20   50 1
    49   21   22 ar
    50   21   51 1
    51   22   23 ar
    52   22   25 1
    53   23   24 ar
    54   23   52 1
    55   24   53 1
    56   25   26 1
    57   26   54 1
    58   26   55 1
    59   26   56 1
    60   57   58 1
@<TRIPOS>MOLECULE
ZINC03814246
   54    56     0     0     0
SMALL
USER_CHARGES

@<TRIPOS>ATOM
      1 C1         -0.7849    0.1541    4.6590 C.3       1 <0>        -0.1799
      2 C2         -0.8804    0.2697    3.1594 C.2       1 <0>         0.5256
      3 O1         -1.7092   -0.3755    2.5530 O.2       1 <0>        -0.5322
      4 N1         -0.0448    1.0901    2.4922 N.am      1 <0>        -0.5763
      5 C3         -0.2102    1.2892    1.0503 C.3       1 <0>         0.1139
      6 C4          0.6181    0.2490    0.2934 C.3       1 <0>        -0.1329
      7 C5          0.4453    0.4570   -1.2125 C.3       1 <0>        -0.0956
      8 C6         -1.0068    0.1714   -1.6052 C.3       1 <0>        -0.1453
      9 C7         -1.1593    0.3217   -3.1205 C.3       1 <0>        -0.0061
     10 C8          1.1473   -0.3309   -3.4753 C.3       1 <0>        -0.0009
     11 C9          1.3687   -0.5007   -1.9706 C.3       1 <0>        -0.1422
     12 C10        -0.4745   -0.5978   -5.2526 C.3       1 <0>         0.0491
     13 C11        -1.8503   -1.1301   -5.5605 C.ar      1 <0>        -0.1632
     14 C12        -2.0338   -2.4812   -5.7880 C.ar      1 <0>        -0.0945
     15 C13        -3.2967   -2.9702   -6.0652 C.ar      1 <0>        -0.1130
     16 C14        -4.3744   -2.1066   -6.1255 C.ar      1 <0>        -0.0840
     17 C15        -4.1900   -0.7547   -5.9036 C.ar      1 <0>        -0.1136
     18 C16        -2.9280   -0.2665   -5.6208 C.ar      1 <0>        -0.0968
     19 C17         0.9807    1.7516    3.1768 C.ar      1 <0>         0.1517
     20 C18         2.2049    1.1245    3.3709 C.ar      1 <0>        -0.1269
     21 C19         3.2160    1.7789    4.0468 C.ar      1 <0>        -0.0765
     22 C20         3.0118    3.0580    4.5304 C.ar      1 <0>        -0.1436
     23 C21         1.7929    3.6869    4.3391 C.ar      1 <0>         0.1156
     24 C22         0.7784    3.0378    3.6581 C.ar      1 <0>        -0.1538
     25 F1          1.5961    4.9368    4.8127 F         1 <0>        -0.1302
     26 H1         -0.0197    0.8370    5.0280 H         1 <0>         0.0806
     27 H2         -1.7459    0.4099    5.1050 H         1 <0>         0.1012
     28 H3         -0.5199   -0.8683    4.9284 H         1 <0>         0.1003
     29 H4          0.1284    2.2896    0.7805 H         1 <0>         0.0813
     30 H5         -1.2619    1.1782    0.7865 H         1 <0>         0.0891
     31 H6          0.2795   -0.7513    0.5633 H         1 <0>         0.0770
     32 H7          1.6698    0.3601    0.5573 H         1 <0>         0.0771
     33 H8          0.6975    1.4859   -1.4694 H         1 <0>         0.0911
     34 H9         -1.2699   -0.8450   -1.3120 H         1 <0>         0.0904
     35 H10        -1.6659    0.8783   -1.1012 H         1 <0>         0.1122
     36 H11        -0.9094    1.3421   -3.4112 H         1 <0>         0.1293
     37 H12        -2.1889    0.1050   -3.4052 H         1 <0>         0.1288
     38 H13         1.3864    0.6925   -3.7643 H         1 <0>         0.1305
     39 H14         1.7930   -1.0216   -4.0176 H         1 <0>         0.1287
     40 H15         2.4068   -0.2740   -1.7276 H         1 <0>         0.1125
     41 H16         1.1430   -1.5276   -1.6831 H         1 <0>         0.0885
     42 H17        -0.3899    0.4249   -5.6201 H         1 <0>         0.1358
     43 H18         0.2741   -1.2222   -5.7403 H         1 <0>         0.1344
     44 H19        -1.1911   -3.1553   -5.7453 H         1 <0>         0.1308
     45 H20        -3.4408   -4.0265   -6.2383 H         1 <0>         0.1361
     46 H21        -5.3605   -2.4881   -6.3457 H         1 <0>         0.1359
     47 H22        -5.0320   -0.0799   -5.9507 H         1 <0>         0.1360
     48 H23        -2.7840    0.7897   -5.4474 H         1 <0>         0.1305
     49 H24         2.3661    0.1257    2.9931 H         1 <0>         0.1326
     50 H25         4.1676    1.2909    4.1974 H         1 <0>         0.1427
     51 H26         3.8044    3.5677    5.0580 H         1 <0>         0.1441
     52 H27        -0.1708    3.5295    3.5047 H         1 <0>         0.1404
     53 N2         -0.2628   -0.6437   -3.7911 N.4       1 <0>        -0.3924
     54 H28        -0.4782   -1.5888   -3.4525 H         1 <0>         0.4260
@<TRIPOS>BOND
     1    1    2 1
     2    1   26 1
     3    1   27 1
     4    1   28 1
     5    2    3 2
     6    2    4 am
     7    4    5 1
     8    4   19 1
     9    5    6 1
    10    5   29 1
    11    5   30 1
    12    6    7 1
    13    6   31 1
    14    6   32 1
    15    7   11 1
    16    7    8 1
    17    7   33 1
    18    8    9 1
    19    8   34 1
    20    8   35 1
    21    9   36 1
    22    9   37 1
    23    9   53 1
    24   10   11 1
    25   10   38 1
    26   10   39 1
    27   10   53 1
    28   11   40 1
    29   11   41 1
    30   12   13 1
    31   12   42 1
    32   12   43 1
    33   12   53 1
    34   13   18 ar
    35   13   14 ar
    36   14   15 ar
    37   14   44 1
    38   15   16 ar
    39   15   45 1
    40   16   17 ar
    41   16   46 1
    42   17   18 ar
    43   17   47 1
    44   18   48 1
    45   19   24 ar
    46   19   20 ar
    47   20   21 ar
    48   20   49 1
    49   21   22 ar
    50   21   50 1
    51   22   23 ar
    52   22   51 1
    53   23   24 ar
    54   23   25 1
    55   24   52 1
    56   53   54 1
@<TRIPOS>MOLECULE
ZINC03814247
   54    56     0     0     0
SMALL
USER_CHARGES

@<TRIPOS>ATOM
      1 C1          0.0971   -4.2646    0.1908 C.3       1 <0>        -0.1766
      2 C2          0.0790   -2.7613    0.0866 C.2       1 <0>         0.5112
      3 O1         -0.9771   -2.1650    0.1022 O.2       1 <0>        -0.5067
      4 N1          1.2363   -2.0795   -0.0240 N.am      1 <0>        -0.5517
      5 C3          2.5031   -2.8033   -0.1564 C.3       1 <0>         0.0955
      6 C4          3.0264   -3.1737    1.2328 C.3       1 <0>        -0.1415
      7 C5          4.3494   -3.9296    1.0946 C.3       1 <0>        -0.0975
      8 C6          4.1032   -5.2679    0.3926 C.3       1 <0>        -0.1492
      9 C7          5.4188   -6.0456    0.3117 C.3       1 <0>        -0.0066
     10 C8          6.2280   -5.0005    2.3428 C.3       1 <0>        -0.0016
     11 C9          4.9366   -4.1916    2.4843 C.3       1 <0>        -0.1429
     12 C10         7.1283   -7.1338    1.6361 C.3       1 <0>         0.0489
     13 C11         6.7387   -8.5101    1.1618 C.ar      1 <0>        -0.1636
     14 C12         6.3545   -9.4732    2.0760 C.ar      1 <0>        -0.0944
     15 C13         5.9921  -10.7341    1.6405 C.ar      1 <0>        -0.1128
     16 C14         6.0244  -11.0352    0.2917 C.ar      1 <0>        -0.0836
     17 C15         6.4140  -10.0738   -0.6220 C.ar      1 <0>        -0.1136
     18 C16         6.7710   -8.8112   -0.1870 C.ar      1 <0>        -0.0971
     19 C17         1.2279   -0.6793   -0.0124 C.ar      1 <0>         0.1332
     20 C18         0.0222    0.0089   -0.0389 C.ar      1 <0>        -0.1367
     21 C19         0.0160    1.3899   -0.0279 C.ar      1 <0>        -0.1267
     22 C20         1.2111    2.0883    0.0096 C.ar      1 <0>         0.0795
     23 C21         2.4146    1.4039    0.0360 C.ar      1 <0>        -0.1305
     24 C22         2.4252    0.0229    0.0250 C.ar      1 <0>        -0.1338
     25 F1          1.2030    3.4393    0.0204 F         1 <0>        -0.1374
     26 H1          1.1191   -4.6247    0.0727 H         1 <0>         0.0783
     27 H2         -0.2837   -4.5658    1.1667 H         1 <0>         0.1028
     28 H3         -0.5309   -4.6907   -0.5916 H         1 <0>         0.1036
     29 H4          2.3439   -3.7109   -0.7386 H         1 <0>         0.0917
     30 H5          3.2321   -2.1703   -0.6623 H         1 <0>         0.0956
     31 H6          3.1856   -2.2661    1.8150 H         1 <0>         0.0853
     32 H7          2.2974   -3.8067    1.7388 H         1 <0>         0.0789
     33 H8          5.0500   -3.3338    0.5096 H         1 <0>         0.0946
     34 H9          3.3726   -5.8465    0.9579 H         1 <0>         0.0906
     35 H10         3.7251   -5.0869   -0.6136 H         1 <0>         0.1128
     36 H11         6.1445   -5.4727   -0.2655 H         1 <0>         0.1305
     37 H12         5.2441   -7.0052   -0.1749 H         1 <0>         0.1298
     38 H13         6.9500   -4.4325    1.7561 H         1 <0>         0.1313
     39 H14         6.6411   -5.2011    3.3313 H         1 <0>         0.1296
     40 H15         5.1539   -3.2416    2.9725 H         1 <0>         0.1141
     41 H16         4.2192   -4.7532    3.0825 H         1 <0>         0.0894
     42 H17         7.8670   -6.7105    0.9555 H         1 <0>         0.1363
     43 H18         7.5534   -7.2014    2.6375 H         1 <0>         0.1349
     44 H19         6.3336   -9.2393    3.1302 H         1 <0>         0.1309
     45 H20         5.6874  -11.4851    2.3543 H         1 <0>         0.1362
     46 H21         5.7448  -12.0215   -0.0483 H         1 <0>         0.1361
     47 H22         6.4392  -10.3091   -1.6758 H         1 <0>         0.1361
     48 H23         7.0754   -8.0601   -0.9008 H         1 <0>         0.1306
     49 H24        -0.9102   -0.5354   -0.0677 H         1 <0>         0.1904
     50 H25        -0.9215    1.9256   -0.0529 H         1 <0>         0.1413
     51 H26         3.3457    1.9504    0.0651 H         1 <0>         0.1394
     52 H27         3.3640   -0.5105    0.0460 H         1 <0>         0.1317
     53 N2          5.9187   -6.2864    1.6819 N.4       1 <0>        -0.3924
     54 H28         5.1920   -6.7716    2.2210 H         1 <0>         0.4257
@<TRIPOS>BOND
     1    1    2 1
     2    1   26 1
     3    1   27 1
     4    1   28 1
     5    2    3 2
     6    2    4 am
     7    4    5 1
     8    4   19 1
     9    5    6 1
    10    5   29 1
    11    5   30 1
    12    6    7 1
    13    6   31 1
    14    6   32 1
    15    7   11 1
    16    7    8 1
    17    7   33 1
    18    8    9 1
    19    8   34 1
    20    8   35 1
    21    9   36 1
    22    9   37 1
    23    9   53 1
    24   10   11 1
    25   10   38 1
    26   10   39 1
    27   10   53 1
    28   11   40 1
    29   11   41 1
    30   12   13 1
    31   12   42 1
    32   12   43 1
    33   12   53 1
    34   13   18 ar
    35   13   14 ar
    36   14   15 ar
    37   14   44 1
    38   15   16 ar
    39   15   45 1
    40   16   17 ar
    41   16   46 1
    42   17   18 ar
    43   17   47 1
    44   18   48 1
    45   19   24 ar
    46   19   20 ar
    47   20   21 ar
    48   20   49 1
    49   21   22 ar
    50   21   50 1
    51   22   23 ar
    52   22   25 1
    53   23   24 ar
    54   23   51 1
    55   24   52 1
    56   53   54 1
@<TRIPOS>MOLECULE
ZINC03814248
   53    55     0     0     0
SMALL
USER_CHARGES

@<TRIPOS>ATOM
      1 C1          1.1909   -1.0026    0.0862 C.3       1 <0>        -0.1792
      2 C2          2.4648   -0.1976    0.0782 C.2       1 <0>         0.5260
      3 O1          3.5351   -0.7549    0.1995 O.2       1 <0>        -0.5298
      4 N1          2.4147    1.1418   -0.0638 N.am      1 <0>        -0.5780
      5 C3          3.6547    1.9125   -0.1843 C.3       1 <0>         0.1148
      6 C4          4.1304    2.3344    1.2073 C.3       1 <0>        -0.1332
      7 C5          5.4254    3.1393    1.0814 C.3       1 <0>        -0.0954
      8 C6          6.5373    2.2380    0.5375 C.3       1 <0>        -0.1452
      9 C7          7.8441    3.0317    0.4712 C.3       1 <0>        -0.0061
     10 C8          7.1626    4.4200    2.3368 C.3       1 <0>        -0.0008
     11 C9          5.8354    3.6678    2.4587 C.3       1 <0>        -0.1423
     12 C10         9.5120    4.1625    1.8128 C.3       1 <0>         0.0491
     13 C11        10.5745    3.1387    1.5064 C.ar      1 <0>        -0.1633
     14 C12        11.1799    2.4417    2.5354 C.ar      1 <0>        -0.0945
     15 C13        12.1508    1.4988    2.2540 C.ar      1 <0>        -0.1129
     16 C14        12.5241    1.2607    0.9445 C.ar      1 <0>        -0.0839
     17 C15        11.9228    1.9617   -0.0840 C.ar      1 <0>        -0.1136
     18 C16        10.9478    2.9005    0.1969 C.ar      1 <0>        -0.0969
     19 C17         1.1817    1.7943   -0.0959 C.ar      1 <0>         0.1708
     20 C18         0.5483    2.0668   -1.3074 C.ar      1 <0>        -0.1716
     21 C19        -0.6671    2.7193   -1.2965 C.ar      1 <0>         0.1173
     22 N2         -1.2341    3.0743   -0.1589 N.ar      1 <0>        -0.4761
     23 C20        -0.6665    2.8340    1.0079 C.ar      1 <0>         0.1160
     24 C21         0.5517    2.1910    1.0826 C.ar      1 <0>        -0.1724
     25 H1          0.3414   -0.3402   -0.0800 H         1 <0>         0.0782
     26 H2          1.2288   -1.7506   -0.7057 H         1 <0>         0.1026
     27 H3          1.0811   -1.4994    1.0502 H         1 <0>         0.1011
     28 H4          4.4198    1.2980   -0.6590 H         1 <0>         0.0905
     29 H5          3.4735    2.7998   -0.7909 H         1 <0>         0.0812
     30 H6          3.3653    2.9489    1.6819 H         1 <0>         0.0764
     31 H7          4.3116    1.4471    1.8138 H         1 <0>         0.0773
     32 H8          5.2690    3.9770    0.4016 H         1 <0>         0.0910
     33 H9          6.6657    1.3800    1.1974 H         1 <0>         0.0905
     34 H10         6.2701    1.8929   -0.4613 H         1 <0>         0.1120
     35 H11         7.7191    3.8817   -0.1997 H         1 <0>         0.1293
     36 H12         8.6410    2.3886    0.0977 H         1 <0>         0.1291
     37 H13         7.0408    5.2635    1.6572 H         1 <0>         0.1306
     38 H14         7.4645    4.7853    3.3183 H         1 <0>         0.1290
     39 H15         5.0668    4.3441    2.8326 H         1 <0>         0.1125
     40 H16         5.9528    2.8323    3.1489 H         1 <0>         0.0886
     41 H17         9.5321    4.9451    1.0544 H         1 <0>         0.1359
     42 H18         9.7016    4.6010    2.7925 H         1 <0>         0.1345
     43 H19        10.8914    2.6309    3.5588 H         1 <0>         0.1308
     44 H20        12.6204    0.9508    3.0575 H         1 <0>         0.1362
     45 H21        13.2853    0.5267    0.7249 H         1 <0>         0.1360
     46 H22        12.2144    1.7757   -1.1071 H         1 <0>         0.1361
     47 H23        10.4780    3.4483   -0.6066 H         1 <0>         0.1305
     48 H24         1.0047    1.7751   -2.2417 H         1 <0>         0.1406
     49 H25        -1.1629    2.9386   -2.2305 H         1 <0>         0.1653
     50 H26        -1.1618    3.1449    1.9159 H         1 <0>         0.1641
     51 H27         1.0111    1.9980    2.0408 H         1 <0>         0.1377
     52 N3          8.1960    3.4911    1.8315 N.4       1 <0>        -0.3925
     53 H28         8.2458    2.6771    2.4554 H         1 <0>         0.4260
@<TRIPOS>BOND
     1    1    2 1
     2    1   25 1
     3    1   26 1
     4    1   27 1
     5    2    3 2
     6    2    4 am
     7    4    5 1
     8    4   19 1
     9    5    6 1
    10    5   28 1
    11    5   29 1
    12    6    7 1
    13    6   30 1
    14    6   31 1
    15    7   11 1
    16    7    8 1
    17    7   32 1
    18    8    9 1
    19    8   33 1
    20    8   34 1
    21    9   35 1
    22    9   36 1
    23    9   52 1
    24   10   11 1
    25   10   37 1
    26   10   38 1
    27   10   52 1
    28   11   39 1
    29   11   40 1
    30   12   13 1
    31   12   41 1
    32   12   42 1
    33   12   52 1
    34   13   18 ar
    35   13   14 ar
    36   14   15 ar
    37   14   43 1
    38   15   16 ar
    39   15   44 1
    40   16   17 ar
    41   16   45 1
    42   17   18 ar
    43   17   46 1
    44   18   47 1
    45   19   24 ar
    46   19   20 ar
    47   20   21 ar
    48   20   48 1
    49   21   22 ar
    50   21   49 1
    51   22   23 ar
    52   23   24 ar
    53   23   50 1
    54   24   51 1
    55   52   53 1
@<TRIPOS>MOLECULE
ZINC03814249
   47    48     0     0     0
SMALL
USER_CHARGES

@<TRIPOS>ATOM
      1 C1          2.9101    7.7123   -1.2268 C.3       1 <0>        -0.1777
      2 C2          2.9243    6.2063   -1.1745 C.2       1 <0>         0.5138
      3 O1          3.0268    5.5649   -2.1987 O.2       1 <0>        -0.5451
      4 N1          2.8230    5.5721    0.0104 N.am      1 <0>        -0.6224
      5 C3          2.6992    6.3469    1.2476 C.3       1 <0>         0.0739
      6 C4          2.8367    4.1081    0.0612 C.3       1 <0>         0.1109
      7 C5          1.4052    3.5803   -0.0535 C.3       1 <0>        -0.1321
      8 C6          1.4196    2.0513   -0.0005 C.3       1 <0>        -0.0956
      9 C7         -0.0187    1.5261    0.0104 C.3       1 <0>        -0.1426
     10 C8          0.0021   -0.0041    0.0020 C.3       1 <0>        -0.0007
     11 C9          2.1034   -0.0262   -1.2048 C.3       1 <0>        -0.0059
     12 C10         2.1454    1.5033   -1.2324 C.3       1 <0>        -0.1452
     13 C11         0.6260   -1.9412   -1.3090 C.3       1 <0>         0.0492
     14 C12         1.1387   -2.3694   -2.6599 C.ar      1 <0>        -0.1632
     15 C13         0.2676   -2.4758   -3.7279 C.ar      1 <0>        -0.0945
     16 C14         0.7388   -2.8635   -4.9683 C.ar      1 <0>        -0.1130
     17 C15         2.0793   -3.1555   -5.1380 C.ar      1 <0>        -0.0840
     18 C16         2.9494   -3.0547   -4.0686 C.ar      1 <0>        -0.1136
     19 C17         2.4792   -2.6614   -2.8296 C.ar      1 <0>        -0.0968
     20 H1          3.7455    8.1038   -0.6463 H         1 <0>         0.0913
     21 H2          3.0015    8.0408   -2.2621 H         1 <0>         0.0946
     22 H3          1.9732    8.0815   -0.8098 H         1 <0>         0.0905
     23 H4          3.6917    6.5519    1.6488 H         1 <0>         0.0621
     24 H5          2.1906    7.2878    1.0377 H         1 <0>         0.0782
     25 H6          2.1230    5.7773    1.9768 H         1 <0>         0.0728
     26 H7          3.2697    3.7814    1.0067 H         1 <0>         0.0787
     27 H8          3.4338    3.7214   -0.7647 H         1 <0>         0.0846
     28 H9          0.9723    3.9070   -0.9990 H         1 <0>         0.0741
     29 H10         0.8082    3.9669    0.7724 H         1 <0>         0.0750
     30 H11         1.9345    1.7220    0.9021 H         1 <0>         0.0907
     31 H12        -0.5449    1.8878   -0.8730 H         1 <0>         0.0880
     32 H13        -0.5279    1.8782    0.9076 H         1 <0>         0.1122
     33 H14         0.5163   -0.3652    0.8927 H         1 <0>         0.1304
     34 H15        -1.0206   -0.3811   -0.0047 H         1 <0>         0.1285
     35 H16         2.6078   -0.3873   -0.3085 H         1 <0>         0.1292
     36 H17         2.6069   -0.4194   -2.0879 H         1 <0>         0.1287
     37 H18         3.1823    1.8391   -1.2232 H         1 <0>         0.1126
     38 H19         1.6539    1.8646   -2.1357 H         1 <0>         0.0896
     39 H20         1.2325   -2.3999   -0.5281 H         1 <0>         0.1358
     40 H21        -0.4109   -2.2578   -1.1969 H         1 <0>         0.1343
     41 H22        -0.7805   -2.2519   -3.5942 H         1 <0>         0.1308
     42 H23         0.0591   -2.9419   -5.8038 H         1 <0>         0.1361
     43 H24         2.4468   -3.4620   -6.1062 H         1 <0>         0.1360
     44 H25         3.9967   -3.2828   -4.2012 H         1 <0>         0.1361
     45 H26         3.1590   -2.5826   -1.9941 H         1 <0>         0.1306
     46 N2          0.6927   -0.4679   -1.2203 N.4       1 <0>        -0.3926
     47 H27         0.2260   -0.0630   -2.0404 H         1 <0>         0.4260
@<TRIPOS>BOND
     1    1    2 1
     2    1   20 1
     3    1   21 1
     4    1   22 1
     5    2    3 2
     6    2    4 am
     7    4    5 1
     8    4    6 1
     9    5   23 1
    10    5   24 1
    11    5   25 1
    12    6    7 1
    13    6   26 1
    14    6   27 1
    15    7    8 1
    16    7   28 1
    17    7   29 1
    18    8   12 1
    19    8    9 1
    20    8   30 1
    21    9   10 1
    22    9   31 1
    23    9   32 1
    24   10   33 1
    25   10   34 1
    26   10   46 1
    27   11   12 1
    28   11   35 1
    29   11   36 1
    30   11   46 1
    31   12   37 1
    32   12   38 1
    33   13   14 1
    34   13   39 1
    35   13   40 1
    36   13   46 1
    37   14   19 ar
    38   14   15 ar
    39   15   16 ar
    40   15   41 1
    41   16   17 ar
    42   16   42 1
    43   17   18 ar
    44   17   43 1
    45   18   19 ar
    46   18   44 1
    47   19   45 1
    48   46   47 1
@<TRIPOS>MOLECULE
ZINC03814250
   51    53     0     0     0
SMALL
USER_CHARGES

@<TRIPOS>ATOM
      1 C1          7.9460    9.4110   -2.4413 C.ar      1 <0>        -0.0841
      2 C2          8.2050    8.7755   -1.2413 C.ar      1 <0>        -0.1136
      3 C3          8.4851    7.4219   -1.2224 C.ar      1 <0>        -0.0968
      4 C4          8.5066    6.7040   -2.4035 C.ar      1 <0>        -0.1630
      5 C5          8.2532    7.3407   -3.6040 C.ar      1 <0>        -0.0946
      6 C6          7.9676    8.6931   -3.6224 C.ar      1 <0>        -0.1130
      7 C7          8.8124    5.2285   -2.3829 C.3       1 <0>         0.0490
      8 C8          7.7879    3.0360   -2.4442 C.3       1 <0>        -0.0007
      9 C9          6.4467    2.2993   -2.4239 C.3       1 <0>        -0.1426
     10 C10         5.7616    2.5335   -1.0747 C.3       1 <0>        -0.0954
     11 C11         5.5824    4.0384   -0.8566 C.3       1 <0>        -0.1444
     12 C12         6.9487    4.7247   -0.9223 C.3       1 <0>        -0.0060
     13 C13         4.3929    1.8497   -1.0706 C.3       1 <0>        -0.1303
     14 C14         3.7630    1.9777    0.3178 C.3       1 <0>         0.1046
     15 N1          2.4524    1.3229    0.3216 N.am      1 <0>        -0.6052
     16 C15         2.3956   -0.0895    0.6770 C.3       1 <0>         0.1123
     17 C16         0.9754   -0.4816    1.0865 C.3       1 <0>        -0.1398
     18 C17         0.0021   -0.0041    0.0020 C.3       1 <0>        -0.1258
     19 C18        -0.0187    1.5265    0.0104 C.3       1 <0>        -0.1377
     20 C19         1.3864    2.0566   -0.0001 C.2       1 <0>         0.5205
     21 O1          1.5608    3.2138   -0.3183 O.2       1 <0>        -0.5555
     22 H1          7.7265   10.4684   -2.4560 H         1 <0>         0.1359
     23 H2          8.1882    9.3364   -0.3185 H         1 <0>         0.1360
     24 H3          8.6875    6.9254   -0.2849 H         1 <0>         0.1305
     25 H4          8.2744    6.7806   -4.5273 H         1 <0>         0.1308
     26 H5          7.7649    9.1895   -4.5598 H         1 <0>         0.1361
     27 H6          9.4749    5.0064   -1.5463 H         1 <0>         0.1358
     28 H7          9.2984    4.9451   -3.3165 H         1 <0>         0.1343
     29 H8          8.4276    2.6477   -1.6517 H         1 <0>         0.1304
     30 H9          8.2717    2.8830   -3.4089 H         1 <0>         0.1284
     31 H10         6.6156    1.2318   -2.5658 H         1 <0>         0.1121
     32 H11         5.8116    2.6774   -3.2250 H         1 <0>         0.0879
     33 H12         6.3779    2.1196   -0.2765 H         1 <0>         0.0903
     34 H13         4.9337    4.4440   -1.6330 H         1 <0>         0.0897
     35 H14         5.1339    4.2135    0.1213 H         1 <0>         0.1126
     36 H15         7.5923    4.3286   -0.1369 H         1 <0>         0.1290
     37 H16         6.8230    5.7983   -0.7816 H         1 <0>         0.1285
     38 H17         4.5128    0.7952   -1.3194 H         1 <0>         0.0741
     39 H18         3.7468    2.3258   -1.8081 H         1 <0>         0.0748
     40 H19         3.6431    3.0321    0.5665 H         1 <0>         0.0871
     41 H20         4.4092    1.5016    1.0553 H         1 <0>         0.0779
     42 H21         3.0755   -0.2797    1.5074 H         1 <0>         0.0776
     43 H22         2.7005   -0.6866   -0.1824 H         1 <0>         0.0668
     44 H23         0.7250   -0.0090    2.0363 H         1 <0>         0.0748
     45 H24         0.9072   -1.5647    1.1879 H         1 <0>         0.0895
     46 H25        -0.9971   -0.3858    0.2118 H         1 <0>         0.0819
     47 H26         0.3341   -0.3612   -0.9728 H         1 <0>         0.0709
     48 H27        -0.5481    1.8862   -0.8718 H         1 <0>         0.1025
     49 H28        -0.5311    1.8767    0.9065 H         1 <0>         0.1026
     50 N2          7.5442    4.4816   -2.2535 N.4       1 <0>        -0.3925
     51 H29         6.8905    4.8071   -2.9753 H         1 <0>         0.4259
@<TRIPOS>BOND
     1    1    6 ar
     2    1    2 ar
     3    1   22 1
     4    2    3 ar
     5    2   23 1
     6    3    4 ar
     7    3   24 1
     8    4    5 ar
     9    4    7 1
    10    5    6 ar
    11    5   25 1
    12    6   26 1
    13    7   27 1
    14    7   28 1
    15    7   50 1
    16    8    9 1
    17    8   29 1
    18    8   30 1
    19    8   50 1
    20    9   10 1
    21    9   31 1
    22    9   32 1
    23   10   11 1
    24   10   13 1
    25   10   33 1
    26   11   12 1
    27   11   34 1
    28   11   35 1
    29   12   36 1
    30   12   37 1
    31   12   50 1
    32   13   14 1
    33   13   38 1
    34   13   39 1
    35   14   15 1
    36   14   40 1
    37   14   41 1
    38   15   20 am
    39   15   16 1
    40   16   17 1
    41   16   42 1
    42   16   43 1
    43   17   18 1
    44   17   44 1
    45   17   45 1
    46   18   19 1
    47   18   46 1
    48   18   47 1
    49   19   20 1
    50   19   48 1
    51   19   49 1
    52   20   21 2
    53   50   51 1
@<TRIPOS>MOLECULE
ZINC03814251
   52    55     0     0     0
SMALL
USER_CHARGES

@<TRIPOS>ATOM
      1 C1         10.9525    5.6451   -1.3912 C.ar      1 <0>        -0.0842
      2 C2         10.8687    4.6551   -0.4301 C.ar      1 <0>        -0.1137
      3 C3         10.4626    3.3817   -0.7829 C.ar      1 <0>        -0.0970
      4 C4         10.1408    3.0982   -2.0971 C.ar      1 <0>        -0.1628
      5 C5         10.2301    4.0867   -3.0592 C.ar      1 <0>        -0.0946
      6 C6         10.6307    5.3616   -2.7053 C.ar      1 <0>        -0.1130
      7 C7          9.6985    1.7099   -2.4819 C.3       1 <0>         0.0485
      8 C8          7.7454    0.3577   -2.9480 C.3       1 <0>        -0.0014
      9 C9          6.2151    0.3536   -2.9346 C.3       1 <0>        -0.1424
     10 C10         5.7218    0.4905   -1.4915 C.3       1 <0>        -0.0974
     11 C11         6.2882    1.7782   -0.8868 C.3       1 <0>        -0.1459
     12 C12         7.8164    1.7410   -0.9596 C.3       1 <0>        -0.0065
     13 C13         4.1930    0.5482   -1.4770 C.3       1 <0>        -0.1359
     14 C14         3.6967    0.5594   -0.0298 C.3       1 <0>         0.1353
     15 N1          2.2328    0.6147   -0.0160 N.am      1 <0>        -0.6204
     16 C15         1.4238    1.8388   -0.0017 C.3       1 <0>         0.1442
     17 C16        -0.0169    1.3925    0.0097 C.ar      1 <0>        -0.0881
     18 C17        -1.2135    2.0709    0.0298 C.ar      1 <0>        -0.1024
     19 C18        -2.4068    1.3683    0.0332 C.ar      1 <0>        -0.0819
     20 C19        -2.3994   -0.0155    0.0257 C.ar      1 <0>        -0.1229
     21 C20        -1.2051   -0.7055    0.0102 C.ar      1 <0>        -0.0432
     22 C21         0.0021   -0.0041    0.0020 C.ar      1 <0>        -0.1640
     23 C22         1.4092   -0.4477   -0.0138 C.2       1 <0>         0.5618
     24 O1          1.7718   -1.6078   -0.0231 O.2       1 <0>        -0.5197
     25 H1         11.2691    6.6401   -1.1154 H         1 <0>         0.1359
     26 H2         11.1201    4.8766    0.5967 H         1 <0>         0.1360
     27 H3         10.3971    2.6083   -0.0320 H         1 <0>         0.1308
     28 H4          9.9829    3.8641   -4.0867 H         1 <0>         0.1309
     29 H5         10.6959    6.1351   -3.4562 H         1 <0>         0.1361
     30 H6         10.1689    0.9824   -1.8204 H         1 <0>         0.1363
     31 H7          9.9920    1.5075   -3.5119 H         1 <0>         0.1347
     32 H8          8.1160   -0.4868   -2.3668 H         1 <0>         0.1313
     33 H9          8.0998    0.2747   -3.9754 H         1 <0>         0.1292
     34 H10         5.8500   -0.5827   -3.3566 H         1 <0>         0.1136
     35 H11         5.8437    1.1898   -3.5270 H         1 <0>         0.0882
     36 H12         6.0595   -0.3661   -0.9082 H         1 <0>         0.0937
     37 H13         5.9180    2.6368   -1.4471 H         1 <0>         0.0889
     38 H14         5.9753    1.8598    0.1541 H         1 <0>         0.1123
     39 H15         8.1866    0.8901   -0.3878 H         1 <0>         0.1302
     40 H16         8.2224    2.6628   -0.5429 H         1 <0>         0.1290
     41 H17         3.7916   -0.3245   -1.9920 H         1 <0>         0.0806
     42 H18         3.8588    1.4541   -1.9827 H         1 <0>         0.0735
     43 H19         4.0981    1.4322    0.4852 H         1 <0>         0.0830
     44 H20         4.0309   -0.3465    0.4759 H         1 <0>         0.0887
     45 H21         1.6253    2.4314   -0.8940 H         1 <0>         0.0936
     46 H22         1.6424    2.4218    0.8930 H         1 <0>         0.0962
     47 H23        -1.2224    3.1509    0.0360 H         1 <0>         0.1332
     48 H24        -3.3457    1.9018    0.0453 H         1 <0>         0.1372
     49 H25        -3.3334   -0.5578    0.0324 H         1 <0>         0.1372
     50 H26        -1.2039   -1.7855    0.0047 H         1 <0>         0.1340
     51 N2          8.2268    1.6330   -2.3759 N.4       1 <0>        -0.3921
     52 H27         7.8135    2.4113   -2.9027 H         1 <0>         0.4253
@<TRIPOS>BOND
     1    1    6 ar
     2    1    2 ar
     3    1   25 1
     4    2    3 ar
     5    2   26 1
     6    3    4 ar
     7    3   27 1
     8    4    5 ar
     9    4    7 1
    10    5    6 ar
    11    5   28 1
    12    6   29 1
    13    7   30 1
    14    7   31 1
    15    7   51 1
    16    8    9 1
    17    8   32 1
    18    8   33 1
    19    8   51 1
    20    9   10 1
    21    9   34 1
    22    9   35 1
    23   10   11 1
    24   10   13 1
    25   10   36 1
    26   11   12 1
    27   11   37 1
    28   11   38 1
    29   12   39 1
    30   12   40 1
    31   12   51 1
    32   13   14 1
    33   13   41 1
    34   13   42 1
    35   14   15 1
    36   14   43 1
    37   14   44 1
    38   15   23 am
    39   15   16 1
    40   16   17 1
    41   16   45 1
    42   16   46 1
    43   17   22 ar
    44   17   18 ar
    45   18   19 ar
    46   18   47 1
    47   19   20 ar
    48   19   48 1
    49   20   21 ar
    50   20   49 1
    51   21   22 ar
    52   21   50 1
    53   22   23 1
    54   23   24 2
    55   51   52 1
@<TRIPOS>MOLECULE
ZINC03814252
   57    59     0     0     0
SMALL
USER_CHARGES

@<TRIPOS>ATOM
      1 C1          1.9142    6.4911   -1.9225 C.3       1 <0>        -0.1781
      2 C2          3.2789    6.1941   -1.2976 C.3       1 <0>         0.0925
      3 N1          3.0921    5.6785    0.0609 N.am      1 <0>        -0.6090
      4 C3          2.7881    4.2608    0.2709 C.3       1 <0>         0.1149
      5 C4          1.2718    4.0573    0.2602 C.3       1 <0>        -0.1352
      6 C5          0.9544    2.5767    0.4796 C.3       1 <0>        -0.0959
      7 C6         -0.5542    2.3515    0.3451 C.3       1 <0>        -0.1424
      8 C7         -0.8724    0.8810    0.6255 C.3       1 <0>         0.0002
      9 C8          1.0266    0.6953    2.1193 C.3       1 <0>        -0.0064
     10 C9          1.4015    2.1601    1.8835 C.3       1 <0>        -0.1449
     11 C10        -0.8390   -0.8323    2.3355 C.3       1 <0>         0.0486
     12 C11        -0.1624   -1.2442    3.6175 C.ar      1 <0>        -0.1606
     13 C12         1.0646   -1.8795    3.5783 C.ar      1 <0>        -0.0964
     14 C13         1.6877   -2.2526    4.7546 C.ar      1 <0>        -0.1143
     15 C14         1.0786   -2.0000    5.9696 C.ar      1 <0>        -0.0845
     16 C15        -0.1511   -1.3698    6.0085 C.ar      1 <0>        -0.1130
     17 C16        -0.7715   -0.9917    4.8325 C.ar      1 <0>        -0.0947
     18 C17         3.1999    6.5083    1.1174 C.2       1 <0>         0.5669
     19 O1          2.9437    6.1055    2.2352 O.2       1 <0>        -0.5323
     20 C18         3.6296    7.9086    0.9166 C.ar      1 <0>        -0.1373
     21 C19         3.0294    8.6913   -0.0709 C.ar      1 <0>        -0.1025
     22 C20         3.4315    9.9989   -0.2495 C.ar      1 <0>        -0.1238
     23 C21         4.4350   10.5313    0.5403 C.ar      1 <0>        -0.0935
     24 C22         5.0380    9.7590    1.5172 C.ar      1 <0>        -0.1211
     25 C23         4.6414    8.4519    1.7100 C.ar      1 <0>        -0.0695
     26 H1          1.4171    5.5537   -2.1722 H         1 <0>         0.0610
     27 H2          1.3032    7.0486   -1.2126 H         1 <0>         0.0635
     28 H3          2.0502    7.0827   -2.8279 H         1 <0>         0.0753
     29 H4          3.8687    7.1099   -1.2607 H         1 <0>         0.0943
     30 H5          3.8002    5.4502   -1.9001 H         1 <0>         0.0812
     31 H6          3.1908    3.9415    1.2322 H         1 <0>         0.0839
     32 H7          3.2396    3.6704   -0.5263 H         1 <0>         0.0800
     33 H8          0.8691    4.3766   -0.7010 H         1 <0>         0.0783
     34 H9          0.8203    4.6477    1.0575 H         1 <0>         0.0754
     35 H10         1.4799    1.9766   -0.2632 H         1 <0>         0.0901
     36 H11        -0.8714    2.6060   -0.6661 H         1 <0>         0.1119
     37 H12        -1.0815    2.9810    1.0619 H         1 <0>         0.0883
     38 H13        -1.9475    0.7203    0.5446 H         1 <0>         0.1287
     39 H14        -0.3558    0.2529   -0.1001 H         1 <0>         0.1299
     40 H15         1.3308    0.3996    3.1234 H         1 <0>         0.1311
     41 H16         1.5343    0.0680    1.3867 H         1 <0>         0.1276
     42 H17         0.9050    2.7867    2.6245 H         1 <0>         0.0896
     43 H18         2.4816    2.2780    1.9714 H         1 <0>         0.1118
     44 H19        -1.9203   -0.8614    2.4696 H         1 <0>         0.1336
     45 H20        -0.5533   -1.5177    1.5375 H         1 <0>         0.1356
     46 H21         1.5385   -2.0808    2.6289 H         1 <0>         0.1301
     47 H22         2.6486   -2.7446    4.7242 H         1 <0>         0.1359
     48 H23         1.5636   -2.2949    6.8884 H         1 <0>         0.1358
     49 H24        -0.6270   -1.1725    6.9577 H         1 <0>         0.1359
     50 H25        -1.7323   -0.4993    4.8629 H         1 <0>         0.1305
     51 H26         2.2491    8.2755   -0.6911 H         1 <0>         0.1365
     52 H27         2.9648   10.6069   -1.0103 H         1 <0>         0.1311
     53 H28         4.7487   11.5543    0.3939 H         1 <0>         0.1305
     54 H29         5.8207   10.1806    2.1304 H         1 <0>         0.1325
     55 H30         5.1129    7.8501    2.4729 H         1 <0>         0.1289
     56 N2         -0.4397    0.5501    2.0000 N.4       1 <0>        -0.3922
     57 H31        -0.8928    1.1966    2.6565 H         1 <0>         0.4258
@<TRIPOS>BOND
     1    1    2 1
     2    1   26 1
     3    1   27 1
     4    1   28 1
     5    2    3 1
     6    2   29 1
     7    2   30 1
     8    3    4 1
     9    3   18 am
    10    4    5 1
    11    4   31 1
    12    4   32 1
    13    5    6 1
    14    5   33 1
    15    5   34 1
    16    6   10 1
    17    6    7 1
    18    6   35 1
    19    7    8 1
    20    7   36 1
    21    7   37 1
    22    8   38 1
    23    8   39 1
    24    8   56 1
    25    9   10 1
    26    9   40 1
    27    9   41 1
    28    9   56 1
    29   10   42 1
    30   10   43 1
    31   11   12 1
    32   11   44 1
    33   11   45 1
    34   11   56 1
    35   12   17 ar
    36   12   13 ar
    37   13   14 ar
    38   13   46 1
    39   14   15 ar
    40   14   47 1
    41   15   16 ar
    42   15   48 1
    43   16   17 ar
    44   16   49 1
    45   17   50 1
    46   18   19 2
    47   18   20 1
    48   20   25 ar
    49   20   21 ar
    50   21   22 ar
    51   21   51 1
    52   22   23 ar
    53   22   52 1
    54   23   24 ar
    55   23   53 1
    56   24   25 ar
    57   24   54 1
    58   25   55 1
    59   56   57 1
@<TRIPOS>MOLECULE
ZINC03814253
   64    67     0     0     0
SMALL
USER_CHARGES

@<TRIPOS>ATOM
      1 C1         -4.4614   -3.3442   10.0844 C.ar      1 <0>        -0.0837
      2 C2         -4.5810   -2.0256    9.6871 C.ar      1 <0>        -0.1134
      3 C3         -5.0652   -1.7244    8.4278 C.ar      1 <0>        -0.0969
      4 C4         -5.4302   -2.7418    7.5661 C.ar      1 <0>        -0.1633
      5 C5         -5.3160   -4.0603    7.9656 C.ar      1 <0>        -0.0943
      6 C6         -4.8264   -4.3616    9.2227 C.ar      1 <0>        -0.1128
      7 C7         -5.9586   -2.4134    6.1935 C.3       1 <0>         0.0487
      8 C8         -5.3301   -2.2598    3.8607 C.3       1 <0>        -0.0016
      9 C9         -4.1462   -2.3336    2.8939 C.3       1 <0>        -0.1430
     10 C10        -3.1838   -1.1785    3.1839 C.3       1 <0>        -0.0979
     11 C11        -2.7270   -1.2593    4.6431 C.3       1 <0>        -0.1593
     12 C12        -3.9521   -1.2167    5.5593 C.3       1 <0>        -0.0059
     13 C13        -1.9679   -1.2819    2.2610 C.3       1 <0>        -0.1458
     14 C14        -1.0683   -0.0611    2.4639 C.3       1 <0>         0.0705
     15 N1          0.0959   -0.1601    1.5802 N.am      1 <0>        -0.6016
     16 C15        -0.0565    0.0618    0.1401 C.3       1 <0>         0.1568
     17 C16         0.1502    1.5225   -0.1676 C.ar      1 <0>        -0.1151
     18 C17        -0.9264    2.3896   -0.1599 C.ar      1 <0>        -0.1091
     19 C18        -0.7360    3.7304   -0.4374 C.ar      1 <0>        -0.1245
     20 C19         0.5293    4.2022   -0.7326 C.ar      1 <0>        -0.1114
     21 C20         1.6050    3.3341   -0.7460 C.ar      1 <0>        -0.1200
     22 C21         1.4155    1.9943   -0.4633 C.ar      1 <0>        -0.0936
     23 C22         1.3073   -0.4555    2.0920 C.2       1 <0>         0.5578
     24 O1          2.2842   -0.4751    1.3689 O.2       1 <0>        -0.5176
     25 C23         1.4478   -0.7556    3.5328 C.ar      1 <0>        -0.1310
     26 C24         0.3539   -1.2264    4.2607 C.ar      1 <0>        -0.1340
     27 C25         0.4932   -1.5095    5.6037 C.ar      1 <0>        -0.1353
     28 C26         1.7110   -1.3173    6.2316 C.ar      1 <0>        -0.0918
     29 C27         2.7978   -0.8455    5.5172 C.ar      1 <0>        -0.1191
     30 C28         2.6735   -0.5639    4.1724 C.ar      1 <0>        -0.0564
     31 H1         -4.0824   -3.5796   11.0680 H         1 <0>         0.1358
     32 H2         -4.2958   -1.2308   10.3603 H         1 <0>         0.1359
     33 H3         -5.1586   -0.6942    8.1174 H         1 <0>         0.1307
     34 H4         -5.6053   -4.8550    7.2939 H         1 <0>         0.1308
     35 H5         -4.7327   -5.3918    9.5330 H         1 <0>         0.1360
     36 H6         -6.4730   -1.4529    6.2224 H         1 <0>         0.1364
     37 H7         -6.6555   -3.1895    5.8772 H         1 <0>         0.1349
     38 H8         -5.8576   -1.3167    3.7176 H         1 <0>         0.1315
     39 H9         -6.0101   -3.0892    3.6662 H         1 <0>         0.1296
     40 H10        -4.5082   -2.2569    1.8686 H         1 <0>         0.1147
     41 H11        -3.6264   -3.2824    3.0268 H         1 <0>         0.0895
     42 H12        -3.6917   -0.2294    3.0123 H         1 <0>         0.0965
     43 H13        -2.1848   -2.1913    4.8036 H         1 <0>         0.0925
     44 H14        -2.0751   -0.4151    4.8677 H         1 <0>         0.1156
     45 H15        -4.4860   -0.2785    5.4082 H         1 <0>         0.1316
     46 H16        -3.6311   -1.2884    6.5985 H         1 <0>         0.1304
     47 H17        -2.3012   -1.3193    1.2238 H         1 <0>         0.0872
     48 H18        -1.4094   -2.1879    2.4960 H         1 <0>         0.0803
     49 H19        -0.7351   -0.0237    3.5010 H         1 <0>         0.1145
     50 H20        -1.6269    0.8449    2.2288 H         1 <0>         0.0794
     51 H21        -1.0582   -0.2365   -0.1694 H         1 <0>         0.0866
     52 H22         0.6822   -0.5312   -0.3991 H         1 <0>         0.0958
     53 H23        -1.9157    2.0202    0.0667 H         1 <0>         0.1162
     54 H24        -1.5765    4.4085   -0.4273 H         1 <0>         0.1224
     55 H25         0.6775    5.2490   -0.9531 H         1 <0>         0.1238
     56 H26         2.5935    3.7026   -0.9769 H         1 <0>         0.1245
     57 H27         2.2559    1.3160   -0.4737 H         1 <0>         0.1289
     58 H28        -0.5984   -1.3726    3.7726 H         1 <0>         0.1563
     59 H29        -0.3513   -1.8781    6.1670 H         1 <0>         0.1227
     60 H30         1.8135   -1.5362    7.2842 H         1 <0>         0.1291
     61 H31         3.7457   -0.6976    6.0133 H         1 <0>         0.1345
     62 H32         3.5227   -0.1957    3.6158 H         1 <0>         0.1369
     63 N2         -4.8256   -2.3675    5.2463 N.4       1 <0>        -0.3924
     64 H33        -4.2808   -3.2331    5.3360 H         1 <0>         0.4257
@<TRIPOS>BOND
     1    1    6 ar
     2    1    2 ar
     3    1   31 1
     4    2    3 ar
     5    2   32 1
     6    3    4 ar
     7    3   33 1
     8    4    5 ar
     9    4    7 1
    10    5    6 ar
    11    5   34 1
    12    6   35 1
    13    7   36 1
    14    7   37 1
    15    7   63 1
    16    8    9 1
    17    8   38 1
    18    8   39 1
    19    8   63 1
    20    9   10 1
    21    9   40 1
    22    9   41 1
    23   10   11 1
    24   10   13 1
    25   10   42 1
    26   11   12 1
    27   11   43 1
    28   11   44 1
    29   12   45 1
    30   12   46 1
    31   12   63 1
    32   13   14 1
    33   13   47 1
    34   13   48 1
    35   14   15 1
    36   14   49 1
    37   14   50 1
    38   15   16 1
    39   15   23 am
    40   16   17 1
    41   16   51 1
    42   16   52 1
    43   17   22 ar
    44   17   18 ar
    45   18   19 ar
    46   18   53 1
    47   19   20 ar
    48   19   54 1
    49   20   21 ar
    50   20   55 1
    51   21   22 ar
    52   21   56 1
    53   22   57 1
    54   23   24 2
    55   23   25 1
    56   25   30 ar
    57   25   26 ar
    58   26   27 ar
    59   26   58 1
    60   27   28 ar
    61   27   59 1
    62   28   29 ar
    63   28   60 1
    64   29   30 ar
    65   29   61 1
    66   30   62 1
    67   63   64 1
@<TRIPOS>MOLECULE
ZINC03814254
   57    59     0     0     0
SMALL
USER_CHARGES

@<TRIPOS>ATOM
      1 C1          0.8041   -0.1635    0.2973 C.3       1 <0>        -0.1246
      2 C2          0.6338    1.3339    0.2898 C.ar      1 <0>        -0.0647
      3 C3         -0.6282    1.8866    0.4053 C.ar      1 <0>        -0.1137
      4 C4         -0.7840    3.2599    0.4033 C.ar      1 <0>        -0.0808
      5 C5          0.3211    4.0808    0.2752 C.ar      1 <0>        -0.1188
      6 C6          1.5822    3.5281    0.1544 C.ar      1 <0>        -0.0881
      7 C7          1.7385    2.1544    0.1617 C.ar      1 <0>        -0.1600
      8 C8          3.1135    1.5518    0.0295 C.3       1 <0>         0.0471
      9 C9          2.8895    2.1441   -2.3071 C.3       1 <0>        -0.0038
     10 C10         2.9874    1.5986   -3.7336 C.3       1 <0>        -0.1454
     11 C11         4.4352    1.1913   -4.0208 C.3       1 <0>        -0.0954
     12 C12         4.8795    0.1524   -2.9874 C.3       1 <0>        -0.1427
     13 C13         4.7267    0.7398   -1.5825 C.3       1 <0>        -0.0011
     14 C14         4.5281    0.5888   -5.4241 C.3       1 <0>        -0.1330
     15 C15         4.2043    1.6641   -6.4633 C.3       1 <0>         0.1140
     16 N1          4.2932    1.0871   -7.8069 N.am      1 <0>        -0.6143
     17 C16         5.5650    1.1154   -8.5335 C.3       1 <0>         0.0700
     18 C17         3.2050    0.5304   -8.3746 C.2       1 <0>         0.5660
     19 O1          2.1719    0.4329   -7.7416 O.2       1 <0>        -0.5330
     20 C18         3.2678    0.0382   -9.7673 C.ar      1 <0>        -0.1399
     21 C19         2.1995    0.2597  -10.6379 C.ar      1 <0>        -0.0657
     22 C20         2.2667   -0.1976  -11.9377 C.ar      1 <0>        -0.1228
     23 C21         3.3852   -0.8841  -12.3758 C.ar      1 <0>        -0.0915
     24 C22         4.4452   -1.1120  -11.5163 C.ar      1 <0>        -0.1252
     25 C23         4.3932   -0.6550  -10.2157 C.ar      1 <0>        -0.0946
     26 H1          0.9510   -0.5073    1.3212 H         1 <0>         0.0897
     27 H2         -0.0872   -0.6327   -0.1192 H         1 <0>         0.0863
     28 H3          1.6718   -0.4334   -0.3046 H         1 <0>         0.0450
     29 H4         -1.4920    1.2453    0.5009 H         1 <0>         0.1355
     30 H5         -1.7694    3.6918    0.4974 H         1 <0>         0.1360
     31 H6          0.1990    5.1538    0.2691 H         1 <0>         0.1358
     32 H7          2.4454    4.1693    0.0539 H         1 <0>         0.1314
     33 H8          3.8638    2.2974    0.2927 H         1 <0>         0.1368
     34 H9          3.2010    0.6961    0.6989 H         1 <0>         0.1330
     35 H10         1.8571    2.4217   -2.0945 H         1 <0>         0.1300
     36 H11         3.5289    3.0214   -2.2090 H         1 <0>         0.1287
     37 H12         2.6793    2.3695   -4.4399 H         1 <0>         0.1126
     38 H13         2.3377    0.7295   -3.8363 H         1 <0>         0.0891
     39 H14         5.0799    2.0679   -3.9564 H         1 <0>         0.0911
     40 H15         5.9232   -0.1099   -3.1606 H         1 <0>         0.1129
     41 H16         4.2601   -0.7399   -3.0781 H         1 <0>         0.0878
     42 H17         5.3575    1.6237   -1.4879 H         1 <0>         0.1311
     43 H18         5.0287   -0.0025   -0.8437 H         1 <0>         0.1286
     44 H19         5.5375    0.2134   -5.5922 H         1 <0>         0.0758
     45 H20         3.8156   -0.2310   -5.5154 H         1 <0>         0.0756
     46 H21         3.1949    2.0395   -6.2951 H         1 <0>         0.0848
     47 H22         4.9168    2.4839   -6.3720 H         1 <0>         0.0810
     48 H23         6.0923    0.1739   -8.3798 H         1 <0>         0.0617
     49 H24         5.3726    1.2546   -9.5974 H         1 <0>         0.0819
     50 H25         6.1763    1.9387   -8.1641 H         1 <0>         0.0755
     51 H26         1.3239    0.7916  -10.2958 H         1 <0>         0.1303
     52 H27         1.4426   -0.0230  -12.6136 H         1 <0>         0.1327
     53 H28         3.4312   -1.2433  -13.3933 H         1 <0>         0.1307
     54 H29         5.3155   -1.6485  -11.8645 H         1 <0>         0.1314
     55 H30         5.2213   -0.8336   -9.5458 H         1 <0>         0.1317
     56 N2          3.3073    1.0886   -1.3601 N.4       1 <0>        -0.3943
     57 H31         2.7307    0.2536   -1.5166 H         1 <0>         0.4217
@<TRIPOS>BOND
     1    1    2 1
     2    1   26 1
     3    1   27 1
     4    1   28 1
     5    2    7 ar
     6    2    3 ar
     7    3    4 ar
     8    3   29 1
     9    4    5 ar
    10    4   30 1
    11    5    6 ar
    12    5   31 1
    13    6    7 ar
    14    6   32 1
    15    7    8 1
    16    8   33 1
    17    8   34 1
    18    8   56 1
    19    9   10 1
    20    9   35 1
    21    9   36 1
    22    9   56 1
    23   10   11 1
    24   10   37 1
    25   10   38 1
    26   11   12 1
    27   11   14 1
    28   11   39 1
    29   12   13 1
    30   12   40 1
    31   12   41 1
    32   13   42 1
    33   13   43 1
    34   13   56 1
    35   14   15 1
    36   14   44 1
    37   14   45 1
    38   15   16 1
    39   15   46 1
    40   15   47 1
    41   16   17 1
    42   16   18 am
    43   17   48 1
    44   17   49 1
    45   17   50 1
    46   18   19 2
    47   18   20 1
    48   20   25 ar
    49   20   21 ar
    50   21   22 ar
    51   21   51 1
    52   22   23 ar
    53   22   52 1
    54   23   24 ar
    55   23   53 1
    56   24   25 ar
    57   24   54 1
    58   25   55 1
    59   56   57 1
@<TRIPOS>MOLECULE
ZINC03814255
   57    59     0     0     0
SMALL
USER_CHARGES

@<TRIPOS>ATOM
      1 C1         -2.3859    1.2440    0.2425 C.3       1 <0>        -0.1259
      2 C2         -1.1852    2.1541    0.2736 C.ar      1 <0>        -0.0749
      3 C3          0.0856    1.6188    0.3745 C.ar      1 <0>        -0.0881
      4 C4          1.1872    2.4533    0.3973 C.ar      1 <0>        -0.1076
      5 C5          1.0180    3.8235    0.3244 C.ar      1 <0>        -0.1017
      6 C6         -0.2526    4.3589    0.2288 C.ar      1 <0>        -0.1548
      7 C7         -1.3545    3.5242    0.2060 C.ar      1 <0>        -0.1003
      8 C8         -0.4369    5.8524    0.1488 C.3       1 <0>         0.0488
      9 C9         -1.2599    5.3932   -2.0811 C.3       1 <0>        -0.0065
     10 C10        -1.1042    5.7699   -3.5562 C.3       1 <0>        -0.1449
     11 C11        -1.5191    7.2309   -3.7513 C.3       1 <0>        -0.0955
     12 C12        -0.6621    8.1217   -2.8477 C.3       1 <0>        -0.1425
     13 C13        -0.8306    7.6767   -1.3931 C.3       1 <0>         0.0001
     14 C14        -1.3081    7.6315   -5.2128 C.3       1 <0>        -0.1330
     15 C15        -2.2561    6.8268   -6.1042 C.3       1 <0>         0.1141
     16 N1         -2.0540    7.2104   -7.5035 N.am      1 <0>        -0.6143
     17 C16        -2.8343    8.3068   -8.0825 C.3       1 <0>         0.0700
     18 C17        -1.1503    6.5546   -8.2583 C.2       1 <0>         0.5659
     19 O1         -0.4450    5.7007   -7.7572 O.2       1 <0>        -0.5330
     20 C18        -1.0166    6.8738   -9.6957 C.ar      1 <0>        -0.1399
     21 C19        -0.8414    5.8498  -10.6277 C.ar      1 <0>        -0.0657
     22 C20        -0.7226    6.1541  -11.9681 C.ar      1 <0>        -0.1228
     23 C21        -0.7658    7.4718  -12.3879 C.ar      1 <0>        -0.0915
     24 C22        -0.9336    8.4920  -11.4685 C.ar      1 <0>        -0.1252
     25 C23        -1.0594    8.2010  -10.1259 C.ar      1 <0>        -0.0946
     26 H1         -2.7372    1.0711    1.2597 H         1 <0>         0.0804
     27 H2         -3.1796    1.7095   -0.3419 H         1 <0>         0.0713
     28 H3         -2.1093    0.2931   -0.2129 H         1 <0>         0.0755
     29 H4          0.2177    0.5485    0.4312 H         1 <0>         0.1350
     30 H5          2.1801    2.0349    0.4716 H         1 <0>         0.1360
     31 H6          1.8788    4.4756    0.3418 H         1 <0>         0.1301
     32 H7         -2.3474    3.9425    0.1309 H         1 <0>         0.1296
     33 H8         -1.3918    6.1253    0.5982 H         1 <0>         0.1354
     34 H9          0.3720    6.3476    0.6858 H         1 <0>         0.1338
     35 H10        -0.9517    4.3577   -1.9362 H         1 <0>         0.1315
     36 H11        -2.3029    5.5063   -1.7855 H         1 <0>         0.1275
     37 H12        -1.7396    5.1268   -4.1650 H         1 <0>         0.1118
     38 H13        -0.0639    5.6439   -3.8561 H         1 <0>         0.0898
     39 H14        -2.5702    7.3493   -3.4883 H         1 <0>         0.0904
     40 H15        -0.9816    9.1587   -2.9503 H         1 <0>         0.1121
     41 H16         0.3853    8.0333   -3.1363 H         1 <0>         0.0884
     42 H17        -1.8756    7.7791   -1.1007 H         1 <0>         0.1299
     43 H18        -0.2106    8.2999   -0.7486 H         1 <0>         0.1288
     44 H19        -1.5134    8.6954   -5.3311 H         1 <0>         0.0755
     45 H20        -0.2769    7.4263   -5.5005 H         1 <0>         0.0756
     46 H21        -2.0507    5.7629   -5.9858 H         1 <0>         0.0848
     47 H22        -3.2872    7.0320   -5.8164 H         1 <0>         0.0808
     48 H23        -2.2621    9.2324   -8.0202 H         1 <0>         0.0617
     49 H24        -3.0536    8.0848   -9.1269 H         1 <0>         0.0819
     50 H25        -3.7679    8.4190   -7.5312 H         1 <0>         0.0755
     51 H26        -0.8030    4.8211  -10.3008 H         1 <0>         0.1303
     52 H27        -0.5914    5.3624  -12.6908 H         1 <0>         0.1327
     53 H28        -0.6686    7.7049  -13.4379 H         1 <0>         0.1307
     54 H29        -0.9665    9.5185  -11.8027 H         1 <0>         0.1314
     55 H30        -1.1903    8.9982   -9.4092 H         1 <0>         0.1318
     56 N2         -0.3916    6.2707   -1.2675 N.4       1 <0>        -0.3921
     57 H31         0.5740    6.1918   -1.6077 H         1 <0>         0.4259
@<TRIPOS>BOND
     1    1    2 1
     2    1   26 1
     3    1   27 1
     4    1   28 1
     5    2    7 ar
     6    2    3 ar
     7    3    4 ar
     8    3   29 1
     9    4    5 ar
    10    4   30 1
    11    5    6 ar
    12    5   31 1
    13    6    7 ar
    14    6    8 1
    15    7   32 1
    16    8   33 1
    17    8   34 1
    18    8   56 1
    19    9   10 1
    20    9   35 1
    21    9   36 1
    22    9   56 1
    23   10   11 1
    24   10   37 1
    25   10   38 1
    26   11   12 1
    27   11   14 1
    28   11   39 1
    29   12   13 1
    30   12   40 1
    31   12   41 1
    32   13   42 1
    33   13   43 1
    34   13   56 1
    35   14   15 1
    36   14   44 1
    37   14   45 1
    38   15   16 1
    39   15   46 1
    40   15   47 1
    41   16   17 1
    42   16   18 am
    43   17   48 1
    44   17   49 1
    45   17   50 1
    46   18   19 2
    47   18   20 1
    48   20   25 ar
    49   20   21 ar
    50   21   22 ar
    51   21   51 1
    52   22   23 ar
    53   22   52 1
    54   23   24 ar
    55   23   53 1
    56   24   25 ar
    57   24   54 1
    58   25   55 1
    59   56   57 1
@<TRIPOS>MOLECULE
ZINC03814256
   56    58     0     0     0
SMALL
USER_CHARGES

@<TRIPOS>ATOM
      1 C1         -2.8343    8.3068   -8.0825 C.3       1 <0>         0.0698
      2 N1         -2.0540    7.2104   -7.5035 N.am      1 <0>        -0.6143
      3 C2         -2.2561    6.8268   -6.1042 C.3       1 <0>         0.1136
      4 C3         -1.3080    7.6315   -5.2128 C.3       1 <0>        -0.1330
      5 C4         -1.5191    7.2309   -3.7513 C.3       1 <0>        -0.0960
      6 C5         -0.6621    8.1217   -2.8477 C.3       1 <0>        -0.1426
      7 C6         -0.8305    7.6768   -1.3931 C.3       1 <0>         0.0001
      8 C7         -1.2599    5.3932   -2.0811 C.3       1 <0>        -0.0099
      9 C8         -1.1042    5.7699   -3.5562 C.3       1 <0>        -0.1448
     10 C9         -0.4369    5.8525    0.1488 C.3       1 <0>         0.0493
     11 C10        -0.2526    4.3589    0.2288 C.ar      1 <0>        -0.1563
     12 C11         1.0184    3.8234    0.3244 C.ar      1 <0>        -0.0469
     13 C12         1.1875    2.4536    0.3973 C.ar      1 <0>        -0.1051
     14 C13         0.0856    1.6188    0.3745 C.ar      1 <0>        -0.0252
     15 C14        -1.1847    2.1540    0.2736 C.ar      1 <0>        -0.0374
     16 C15        -1.3542    3.5245    0.2060 C.ar      1 <0>        -0.0363
     17 N2         -2.3641    1.2600    0.2431 N.pl3     1 <0>         0.0173
     18 O1         -2.2151    0.0529    0.3070 O.2       1 <0>        -0.1331
     19 O2         -3.4836    1.7316    0.1542 O.3       1 <0>        -0.1461
     20 C16        -1.1502    6.5546   -8.2583 C.2       1 <0>         0.5665
     21 O3         -0.4450    5.7007   -7.7572 O.2       1 <0>        -0.5339
     22 C17        -1.0166    6.8738   -9.6957 C.ar      1 <0>        -0.1405
     23 C18        -0.8414    5.8498  -10.6277 C.ar      1 <0>        -0.0655
     24 C19        -0.7226    6.1541  -11.9681 C.ar      1 <0>        -0.1226
     25 C20        -0.7658    7.4718  -12.3879 C.ar      1 <0>        -0.0911
     26 C21        -0.9336    8.4920  -11.4685 C.ar      1 <0>        -0.1251
     27 C22        -1.0593    8.2010  -10.1259 C.ar      1 <0>        -0.0946
     28 H1         -2.2621    9.2324   -8.0202 H         1 <0>         0.0619
     29 H2         -3.0535    8.0848   -9.1269 H         1 <0>         0.0822
     30 H3         -3.7679    8.4190   -7.5312 H         1 <0>         0.0758
     31 H4         -2.0507    5.7629   -5.9858 H         1 <0>         0.0843
     32 H5         -3.2872    7.0320   -5.8164 H         1 <0>         0.0816
     33 H6         -1.5134    8.6954   -5.3311 H         1 <0>         0.0767
     34 H7         -0.2769    7.4263   -5.5005 H         1 <0>         0.0758
     35 H8         -2.5702    7.3493   -3.4883 H         1 <0>         0.0923
     36 H9         -0.9815    9.1587   -2.9503 H         1 <0>         0.1145
     37 H10         0.3853    8.0333   -3.1363 H         1 <0>         0.0893
     38 H11        -1.8756    7.7791   -1.1007 H         1 <0>         0.1328
     39 H12        -0.2105    8.2999   -0.7486 H         1 <0>         0.1317
     40 H13        -0.9517    4.3577   -1.9362 H         1 <0>         0.1236
     41 H14        -2.3029    5.5063   -1.7855 H         1 <0>         0.1328
     42 H15        -1.7396    5.1268   -4.1650 H         1 <0>         0.1139
     43 H16        -0.0639    5.6439   -3.8561 H         1 <0>         0.0911
     44 H17        -1.3918    6.1253    0.5982 H         1 <0>         0.1442
     45 H18         0.3721    6.3476    0.6858 H         1 <0>         0.1445
     46 H19         1.8792    4.4754    0.3418 H         1 <0>         0.1530
     47 H20         2.1804    2.0352    0.4716 H         1 <0>         0.1625
     48 H21         0.2177    0.5485    0.4312 H         1 <0>         0.1672
     49 H22        -2.3470    3.9428    0.1310 H         1 <0>         0.1612
     50 H23        -0.8030    4.8212  -10.3008 H         1 <0>         0.1302
     51 H24        -0.5914    5.3624  -12.6908 H         1 <0>         0.1329
     52 H25        -0.6685    7.7049  -13.4379 H         1 <0>         0.1309
     53 H26        -0.9665    9.5185  -11.8027 H         1 <0>         0.1316
     54 H27        -1.1902    8.9982   -9.4092 H         1 <0>         0.1317
     55 N3         -0.3915    6.2707   -1.2675 N.4       1 <0>        -0.3938
     56 H28         0.5740    6.1917   -1.6077 H         1 <0>         0.4275
@<TRIPOS>BOND
     1    1    2 1
     2    1   28 1
     3    1   29 1
     4    1   30 1
     5    2    3 1
     6    2   20 am
     7    3    4 1
     8    3   31 1
     9    3   32 1
    10    4    5 1
    11    4   33 1
    12    4   34 1
    13    5    9 1
    14    5    6 1
    15    5   35 1
    16    6    7 1
    17    6   36 1
    18    6   37 1
    19    7   38 1
    20    7   39 1
    21    7   55 1
    22    8    9 1
    23    8   40 1
    24    8   41 1
    25    8   55 1
    26    9   42 1
    27    9   43 1
    28   10   11 1
    29   10   44 1
    30   10   45 1
    31   10   55 1
    32   11   16 ar
    33   11   12 ar
    34   12   13 ar
    35   12   46 1
    36   13   14 ar
    37   13   47 1
    38   14   15 ar
    39   14   48 1
    40   15   16 ar
    41   15   17 1
    42   16   49 1
    43   17   18 2
    44   17   19 1
    45   20   21 2
    46   20   22 1
    47   22   27 ar
    48   22   23 ar
    49   23   24 ar
    50   23   50 1
    51   24   25 ar
    52   24   51 1
    53   25   26 ar
    54   25   52 1
    55   26   27 ar
    56   26   53 1
    57   27   54 1
    58   55   56 1
@<TRIPOS>MOLECULE
ZINC03814257
   54    56     0     0     0
SMALL
USER_CHARGES

@<TRIPOS>ATOM
      1 C1          0.1147    0.0454   -0.4949 C.3       1 <0>        -0.1235
      2 C2          0.0357    1.5265   -0.2282 C.ar      1 <0>        -0.0189
      3 C3         -1.1849    2.1694   -0.2530 C.ar      1 <0>        -0.1296
      4 C4         -1.2597    3.5281   -0.0037 C.ar      1 <0>        -0.0826
      5 C5         -0.1114    4.2533    0.2617 C.ar      1 <0>        -0.1349
      6 C6          1.1157    3.6237    0.2844 C.ar      1 <0>        -0.0830
      7 C7          1.1976    2.2520    0.0388 C.ar      1 <0>        -0.1510
      8 C8          2.5096    1.5708    0.0611 C.2       1 <0>         0.5624
      9 O1          2.5680    0.3610   -0.0411 O.2       1 <0>        -0.5261
     10 N1          3.6408    2.2913    0.1946 N.am      1 <0>        -0.7337
     11 C9          4.9408    1.6163    0.2167 C.3       1 <0>         0.1178
     12 C10         6.0523    2.6554    0.3769 C.3       1 <0>        -0.1301
     13 C11         7.4101    1.9504    0.3999 C.3       1 <0>        -0.0958
     14 C12         7.5075    1.0683    1.6477 C.3       1 <0>        -0.1472
     15 C13         8.8899    0.4136    1.6969 C.3       1 <0>        -0.0065
     16 C14         9.8815    2.2849    0.5190 C.3       1 <0>        -0.0015
     17 C15         8.5287    2.9955    0.4346 C.3       1 <0>        -0.1426
     18 C16        11.2580    0.8661    1.9164 C.3       1 <0>         0.0488
     19 C17        11.3392    0.2294    3.2798 C.ar      1 <0>        -0.1633
     20 C18        11.7738    0.9694    4.3635 C.ar      1 <0>        -0.0947
     21 C19        11.8433    0.3868    5.6151 C.ar      1 <0>        -0.1132
     22 C20        11.4885   -0.9389    5.7811 C.ar      1 <0>        -0.0839
     23 C21        11.0593   -1.6805    4.6964 C.ar      1 <0>        -0.1134
     24 C22        10.9844   -1.0963    3.4458 C.ar      1 <0>        -0.0968
     25 H1          0.1422   -0.4934    0.4522 H         1 <0>         0.0765
     26 H2         -0.7592   -0.2681   -1.0660 H         1 <0>         0.0615
     27 H3          1.0183   -0.1736   -1.0638 H         1 <0>         0.0929
     28 H4         -2.0844    1.6099   -0.4636 H         1 <0>         0.1328
     29 H5         -2.2181    4.0257   -0.0203 H         1 <0>         0.1311
     30 H6         -0.1762    5.3145    0.4512 H         1 <0>         0.1304
     31 H7          2.0112    4.1909    0.4913 H         1 <0>         0.1225
     32 H8          3.5941    3.2567    0.2762 H         1 <0>         0.4011
     33 H9          4.9733    0.9176    1.0527 H         1 <0>         0.0693
     34 H10         5.0837    1.0724   -0.7171 H         1 <0>         0.0709
     35 H11         6.0198    3.3540   -0.4591 H         1 <0>         0.0826
     36 H12         5.9094    3.1992    1.3107 H         1 <0>         0.0775
     37 H13         7.5154    1.3336   -0.4926 H         1 <0>         0.0943
     38 H14         7.3627    1.6801    2.5381 H         1 <0>         0.0889
     39 H15         6.7400    0.2954    1.6077 H         1 <0>         0.1145
     40 H16         9.0286   -0.2089    0.8129 H         1 <0>         0.1304
     41 H17         8.9677   -0.2039    2.5917 H         1 <0>         0.1293
     42 H18        10.0155    1.6536   -0.3594 H         1 <0>         0.1311
     43 H19        10.6794    3.0265    0.5582 H         1 <0>         0.1293
     44 H20         8.4907    3.5994   -0.4720 H         1 <0>         0.1137
     45 H21         8.3999    3.6376    1.3059 H         1 <0>         0.0889
     46 H22        11.4316    0.1096    1.1511 H         1 <0>         0.1362
     47 H23        12.0145    1.6465    1.8341 H         1 <0>         0.1347
     48 H24        12.0553    2.0039    4.2330 H         1 <0>         0.1308
     49 H25        12.1783    0.9663    6.4627 H         1 <0>         0.1361
     50 H26        11.5464   -1.3951    6.7583 H         1 <0>         0.1360
     51 H27        10.7821   -2.7163    4.8260 H         1 <0>         0.1362
     52 H28        10.6491   -1.6758    2.5983 H         1 <0>         0.1309
     53 N2          9.9205    1.4723    1.7533 N.4       1 <0>        -0.3923
     54 H29         9.7296    2.0803    2.5584 H         1 <0>         0.4254
@<TRIPOS>BOND
     1    1    2 1
     2    1   25 1
     3    1   26 1
     4    1   27 1
     5    2    7 ar
     6    2    3 ar
     7    3    4 ar
     8    3   28 1
     9    4    5 ar
    10    4   29 1
    11    5    6 ar
    12    5   30 1
    13    6    7 ar
    14    6   31 1
    15    7    8 1
    16    8    9 2
    17    8   10 am
    18   10   11 1
    19   10   32 1
    20   11   12 1
    21   11   33 1
    22   11   34 1
    23   12   13 1
    24   12   35 1
    25   12   36 1
    26   13   17 1
    27   13   14 1
    28   13   37 1
    29   14   15 1
    30   14   38 1
    31   14   39 1
    32   15   40 1
    33   15   41 1
    34   15   53 1
    35   16   17 1
    36   16   42 1
    37   16   43 1
    38   16   53 1
    39   17   44 1
    40   17   45 1
    41   18   19 1
    42   18   46 1
    43   18   47 1
    44   18   53 1
    45   19   24 ar
    46   19   20 ar
    47   20   21 ar
    48   20   48 1
    49   21   22 ar
    50   21   49 1
    51   22   23 ar
    52   22   50 1
    53   23   24 ar
    54   23   51 1
    55   24   52 1
    56   53   54 1
@<TRIPOS>MOLECULE
ZINC03814258
   54    56     0     0     0
SMALL
USER_CHARGES

@<TRIPOS>ATOM
      1 C1         -0.0574    5.3568    0.0315 C.3       1 <0>        -0.1200
      2 C2         -0.0484    3.8499    0.0233 C.ar      1 <0>        -0.0887
      3 C3          1.1549    3.1667    0.0081 C.ar      1 <0>        -0.0900
      4 C4          1.1719    1.7834    0.0004 C.ar      1 <0>        -0.1218
      5 C5         -0.0126    1.0758    0.0080 C.ar      1 <0>        -0.0943
      6 C6         -1.2296    1.7587    0.0174 C.ar      1 <0>        -0.1396
      7 C7         -1.2397    3.1545    0.0305 C.ar      1 <0>        -0.0596
      8 C8         -2.5027    1.0069    0.0193 C.2       1 <0>         0.5632
      9 O1         -3.5613    1.6044    0.0276 O.2       1 <0>        -0.5322
     10 N1         -2.4896   -0.3407    0.0119 N.am      1 <0>        -0.7325
     11 C9         -3.7511   -1.0856    0.0138 C.3       1 <0>         0.1170
     12 C10        -3.4568   -2.5870    0.0042 C.3       1 <0>        -0.1299
     13 C11        -4.7743   -3.3649    0.0061 C.3       1 <0>        -0.0959
     14 C12        -5.5151   -3.1133    1.3223 C.3       1 <0>        -0.1473
     15 C13        -6.8020   -3.9413    1.3440 C.3       1 <0>        -0.0065
     16 C14        -5.8013   -5.6396   -0.0654 C.3       1 <0>        -0.0015
     17 C15        -4.4845   -4.8624   -0.1292 C.3       1 <0>        -0.1425
     18 C16        -7.6697   -6.2011    1.3678 C.3       1 <0>         0.0488
     19 C17        -8.1892   -6.0769    2.7770 C.ar      1 <0>        -0.1633
     20 C18        -7.7456   -6.9458    3.7563 C.ar      1 <0>        -0.0947
     21 C19        -8.2181   -6.8285    5.0501 C.ar      1 <0>        -0.1132
     22 C20        -9.1425   -5.8492    5.3621 C.ar      1 <0>        -0.0840
     23 C21        -9.5904   -4.9839    4.3815 C.ar      1 <0>        -0.1134
     24 C22        -9.1136   -5.0976    3.0890 C.ar      1 <0>        -0.0968
     25 H1         -0.0694    5.7257   -0.9941 H         1 <0>         0.0761
     26 H2         -0.9446    5.7120    0.5558 H         1 <0>         0.0710
     27 H3          0.8353    5.7227    0.5388 H         1 <0>         0.0718
     28 H4          2.0848    3.7158    0.0018 H         1 <0>         0.1308
     29 H5          2.1144    1.2562   -0.0118 H         1 <0>         0.1316
     30 H6          0.0021   -0.0041    0.0020 H         1 <0>         0.1225
     31 H7         -2.1782    3.6889    0.0420 H         1 <0>         0.1365
     32 H8         -1.6448   -0.8175    0.0053 H         1 <0>         0.4020
     33 H9         -4.3210   -0.8328    0.9078 H         1 <0>         0.0696
     34 H10        -4.3294   -0.8230   -0.8721 H         1 <0>         0.0713
     35 H11        -2.8869   -2.8399   -0.8899 H         1 <0>         0.0828
     36 H12        -2.8785   -2.8496    0.8900 H         1 <0>         0.0778
     37 H13        -5.3924   -3.0366   -0.8294 H         1 <0>         0.0944
     38 H14        -4.8803   -3.4055    2.1588 H         1 <0>         0.0890
     39 H15        -5.7620   -2.0548    1.4044 H         1 <0>         0.1145
     40 H16        -7.4424   -3.6389    0.5154 H         1 <0>         0.1305
     41 H17        -7.3248   -3.7753    2.2860 H         1 <0>         0.1293
     42 H18        -6.4464   -5.3293   -0.8875 H         1 <0>         0.1311
     43 H19        -5.5972   -6.7072   -0.1472 H         1 <0>         0.1294
     44 H20        -3.9951   -5.0535   -1.0842 H         1 <0>         0.1137
     45 H21        -3.8335   -5.1820    0.6845 H         1 <0>         0.0890
     46 H22        -8.4366   -5.8703    0.6674 H         1 <0>         0.1362
     47 H23        -7.4164   -7.2416    1.1644 H         1 <0>         0.1347
     48 H24        -7.0267   -7.7137    3.5115 H         1 <0>         0.1308
     49 H25        -7.8679   -7.5043    5.8162 H         1 <0>         0.1361
     50 H26        -9.5145   -5.7599    6.3721 H         1 <0>         0.1360
     51 H27       -10.3127   -4.2188    4.6253 H         1 <0>         0.1362
     52 H28        -9.4636   -4.4216    2.3229 H         1 <0>         0.1309
     53 N2         -6.4530   -5.3736    1.2348 N.4       1 <0>        -0.3922
     54 H29        -5.8008   -5.6159    1.9899 H         1 <0>         0.4254
@<TRIPOS>BOND
     1    1    2 1
     2    1   25 1
     3    1   26 1
     4    1   27 1
     5    2    7 ar
     6    2    3 ar
     7    3    4 ar
     8    3   28 1
     9    4    5 ar
    10    4   29 1
    11    5    6 ar
    12    5   30 1
    13    6    7 ar
    14    6    8 1
    15    7   31 1
    16    8    9 2
    17    8   10 am
    18   10   11 1
    19   10   32 1
    20   11   12 1
    21   11   33 1
    22   11   34 1
    23   12   13 1
    24   12   35 1
    25   12   36 1
    26   13   17 1
    27   13   14 1
    28   13   37 1
    29   14   15 1
    30   14   38 1
    31   14   39 1
    32   15   40 1
    33   15   41 1
    34   15   53 1
    35   16   17 1
    36   16   42 1
    37   16   43 1
    38   16   53 1
    39   17   44 1
    40   17   45 1
    41   18   19 1
    42   18   46 1
    43   18   47 1
    44   18   53 1
    45   19   24 ar
    46   19   20 ar
    47   20   21 ar
    48   20   48 1
    49   21   22 ar
    50   21   49 1
    51   22   23 ar
    52   22   50 1
    53   23   24 ar
    54   23   51 1
    55   24   52 1
    56   53   54 1
@<TRIPOS>MOLECULE
ZINC03814259
   54    56     0     0     0
SMALL
USER_CHARGES

@<TRIPOS>ATOM
      1 C1          3.9272   12.0098    0.1616 C.3       1 <0>        -0.1250
      2 C2          3.9402   10.5044    0.0934 C.ar      1 <0>        -0.0511
      3 C3          5.1388    9.8327   -0.0699 C.ar      1 <0>        -0.1276
      4 C4          5.1577    8.4547   -0.1331 C.ar      1 <0>        -0.0522
      5 C5          3.9643    7.7381   -0.0314 C.ar      1 <0>        -0.1520
      6 C6          2.7581    8.4221    0.1283 C.ar      1 <0>        -0.0820
      7 C7          2.7537    9.8000    0.1948 C.ar      1 <0>        -0.1295
      8 C8          3.9770    6.2612   -0.0988 C.2       1 <0>         0.5637
      9 O1          5.0284    5.6685   -0.2430 O.2       1 <0>        -0.5332
     10 N1          2.8229    5.5722   -0.0004 N.am      1 <0>        -0.7331
     11 C9          2.8355    4.1088   -0.0671 C.3       1 <0>         0.1171
     12 C10         1.4064    3.5796    0.0693 C.3       1 <0>        -0.1298
     13 C11         1.4196    2.0513   -0.0005 C.3       1 <0>        -0.0960
     14 C12        -0.0187    1.5261    0.0104 C.3       1 <0>        -0.1424
     15 C13         0.0021   -0.0041    0.0020 C.3       1 <0>        -0.0005
     16 C14         2.1260   -0.0390    1.1681 C.3       1 <0>        -0.0069
     17 C15         2.1687    1.4902    1.2114 C.3       1 <0>        -0.1471
     18 C16         0.6507   -1.9551    1.2800 C.3       1 <0>         0.0486
     19 C17         1.6001   -2.4380    2.3461 C.ar      1 <0>        -0.1612
     20 C18         2.9015   -2.7667    2.0153 C.ar      1 <0>        -0.0963
     21 C19         3.7738   -3.2047    2.9941 C.ar      1 <0>        -0.1139
     22 C20         3.3417   -3.3244    4.3018 C.ar      1 <0>        -0.0843
     23 C21         2.0388   -3.0012    4.6315 C.ar      1 <0>        -0.1134
     24 C22         1.1680   -2.5577    3.6537 C.ar      1 <0>        -0.0949
     25 H1          3.8104   12.4180   -0.8423 H         1 <0>         0.0787
     26 H2          3.0964   12.3380    0.7862 H         1 <0>         0.0719
     27 H3          4.8654   12.3622    0.5902 H         1 <0>         0.0729
     28 H4          6.0615   10.3884   -0.1484 H         1 <0>         0.1332
     29 H5          6.0939    7.9316   -0.2605 H         1 <0>         0.1370
     30 H6          1.8307    7.8736    0.2031 H         1 <0>         0.1230
     31 H7          1.8215   10.3303    0.3221 H         1 <0>         0.1308
     32 H8          1.9839    6.0452    0.1147 H         1 <0>         0.4016
     33 H9          3.4482    3.7133    0.7430 H         1 <0>         0.0694
     34 H10         3.2503    3.7923   -1.0241 H         1 <0>         0.0711
     35 H11         0.7937    3.9751   -0.7409 H         1 <0>         0.0826
     36 H12         0.9916    3.8961    1.0263 H         1 <0>         0.0777
     37 H13         1.9171    1.7318   -0.9162 H         1 <0>         0.0939
     38 H14        -0.5449    1.8878   -0.8730 H         1 <0>         0.1136
     39 H15        -0.5279    1.8782    0.9076 H         1 <0>         0.0892
     40 H16        -1.0203   -0.3813    0.0242 H         1 <0>         0.1297
     41 H17         0.4992   -0.3556   -0.9021 H         1 <0>         0.1306
     42 H18         2.6463   -0.4415    2.0373 H         1 <0>         0.1320
     43 H19         2.6132   -0.3903    0.2586 H         1 <0>         0.1290
     44 H20         1.6939    1.8417    2.1274 H         1 <0>         0.0887
     45 H21         3.2053    1.8262    1.1860 H         1 <0>         0.1140
     46 H22        -0.3666   -2.2477    1.5398 H         1 <0>         0.1339
     47 H23         0.9232   -2.3991    0.3226 H         1 <0>         0.1359
     48 H24         3.2378   -2.6774    0.9929 H         1 <0>         0.1305
     49 H25         4.7919   -3.4569    2.7366 H         1 <0>         0.1363
     50 H26         4.0222   -3.6702    5.0658 H         1 <0>         0.1359
     51 H27         1.7012   -3.0947    5.6531 H         1 <0>         0.1359
     52 H28         0.1501   -2.3052    3.9113 H         1 <0>         0.1305
     53 N2          0.7158   -0.4809    1.2058 N.4       1 <0>        -0.3920
     54 H29         0.2650   -0.0849    2.0390 H         1 <0>         0.4253
@<TRIPOS>BOND
     1    1    2 1
     2    1   25 1
     3    1   26 1
     4    1   27 1
     5    2    7 ar
     6    2    3 ar
     7    3    4 ar
     8    3   28 1
     9    4    5 ar
    10    4   29 1
    11    5    6 ar
    12    5    8 1
    13    6    7 ar
    14    6   30 1
    15    7   31 1
    16    8    9 2
    17    8   10 am
    18   10   11 1
    19   10   32 1
    20   11   12 1
    21   11   33 1
    22   11   34 1
    23   12   13 1
    24   12   35 1
    25   12   36 1
    26   13   17 1
    27   13   14 1
    28   13   37 1
    29   14   15 1
    30   14   38 1
    31   14   39 1
    32   15   40 1
    33   15   41 1
    34   15   53 1
    35   16   17 1
    36   16   42 1
    37   16   43 1
    38   16   53 1
    39   17   44 1
    40   17   45 1
    41   18   19 1
    42   18   46 1
    43   18   47 1
    44   18   53 1
    45   19   24 ar
    46   19   20 ar
    47   20   21 ar
    48   20   48 1
    49   21   22 ar
    50   21   49 1
    51   22   23 ar
    52   22   50 1
    53   23   24 ar
    54   23   51 1
    55   24   52 1
    56   53   54 1
@<TRIPOS>MOLECULE
ZINC03814260
   53    55     0     0     0
SMALL
USER_CHARGES

@<TRIPOS>ATOM
      1 C1         10.5176   -2.5990    6.3008 C.ar      1 <0>        -0.0838
      2 C2         10.0216   -3.2845    5.2077 C.ar      1 <0>        -0.1131
      3 C3         10.0877   -2.7181    3.9484 C.ar      1 <0>        -0.0966
      4 C4         10.6503   -1.4664    3.7823 C.ar      1 <0>        -0.1636
      5 C5         11.1514   -0.7833    4.8746 C.ar      1 <0>        -0.0949
      6 C6         11.0801   -1.3473    6.1347 C.ar      1 <0>        -0.1133
      7 C7         10.7228   -0.8491    2.4094 C.3       1 <0>         0.0489
      8 C8          9.6395    0.7405    0.9396 C.3       1 <0>        -0.0016
      9 C9          8.4178    1.6501    0.7907 C.3       1 <0>        -0.1422
     10 C10         7.1528    0.7902    0.7213 C.3       1 <0>        -0.0961
     11 C11         7.0628   -0.0741    1.9820 C.3       1 <0>        -0.1478
     12 C12         8.3238   -0.9337    2.0964 C.3       1 <0>        -0.0067
     13 C13         5.9230    1.6961    0.6335 C.3       1 <0>        -0.1296
     14 C14         4.6708    0.8387    0.4389 C.3       1 <0>         0.1168
     15 N1          3.4932    1.7061    0.3549 N.am      1 <0>        -0.7243
     16 C15         2.2701    1.1670    0.1824 C.2       1 <0>         0.5488
     17 O1          2.1440   -0.0389    0.0966 O.2       1 <0>        -0.4983
     18 C16         1.0816    2.0424    0.0976 C.ar      1 <0>        -0.0920
     19 C17         1.2340    3.4295    0.0595 C.ar      1 <0>        -0.0809
     20 C18         0.1211    4.2405   -0.0201 C.ar      1 <0>        -0.0839
     21 C19        -1.1443    3.6820   -0.0622 C.ar      1 <0>        -0.0793
     22 C20        -1.3019    2.3080   -0.0301 C.ar      1 <0>        -0.0692
     23 C21        -0.1973    1.4856    0.0548 C.ar      1 <0>         0.0192
     24 N2         -0.3681    0.0158    0.0942 N.pl3     1 <0>         0.0170
     25 O2         -1.0604   -0.5394   -0.7401 O.2       1 <0>        -0.1635
     26 O3          0.1837   -0.6384    0.9608 O.3       1 <0>        -0.0921
     27 H1         10.4652   -3.0412    7.2847 H         1 <0>         0.1360
     28 H2          9.5821   -4.2625    5.3375 H         1 <0>         0.1365
     29 H3          9.7002   -3.2537    3.0944 H         1 <0>         0.1311
     30 H4         11.5949    0.1928    4.7442 H         1 <0>         0.1306
     31 H5         11.4673   -0.8116    6.9888 H         1 <0>         0.1360
     32 H6         10.8070   -1.6368    1.6608 H         1 <0>         0.1363
     33 H7         11.5940   -0.1967    2.3500 H         1 <0>         0.1346
     34 H8          9.7085    0.0805    0.0748 H         1 <0>         0.1313
     35 H9         10.5407    1.3503    1.0037 H         1 <0>         0.1295
     36 H10         8.5100    2.2364   -0.1236 H         1 <0>         0.1135
     37 H11         8.3560    2.3198    1.6484 H         1 <0>         0.0890
     38 H12         7.1963    0.1487   -0.1589 H         1 <0>         0.0949
     39 H13         6.9797    0.5685    2.8585 H         1 <0>         0.0893
     40 H14         6.1868   -0.7196    1.9189 H         1 <0>         0.1154
     41 H15         8.3989   -1.5858    1.2262 H         1 <0>         0.1308
     42 H16         8.2693   -1.5399    3.0007 H         1 <0>         0.1300
     43 H17         6.0323    2.3764   -0.2111 H         1 <0>         0.0829
     44 H18         5.8295    2.2720    1.5542 H         1 <0>         0.0788
     45 H19         4.5614    0.1584    1.2835 H         1 <0>         0.0751
     46 H20         4.7643    0.2628   -0.4818 H         1 <0>         0.0741
     47 H21         3.5938    2.6684    0.4233 H         1 <0>         0.4019
     48 H22         2.2211    3.8666    0.0919 H         1 <0>         0.1466
     49 H23         0.2376    5.3138   -0.0500 H         1 <0>         0.1525
     50 H24        -2.0124    4.3214   -0.1248 H         1 <0>         0.1566
     51 H25        -2.2921    1.8783   -0.0674 H         1 <0>         0.1556
     52 N3          9.5030   -0.0465    2.1838 N.4       1 <0>        -0.3923
     53 H26         9.3771    0.5978    2.9733 H         1 <0>         0.4253
@<TRIPOS>BOND
     1    1    6 ar
     2    1    2 ar
     3    1   27 1
     4    2    3 ar
     5    2   28 1
     6    3    4 ar
     7    3   29 1
     8    4    5 ar
     9    4    7 1
    10    5    6 ar
    11    5   30 1
    12    6   31 1
    13    7   32 1
    14    7   33 1
    15    7   52 1
    16    8    9 1
    17    8   34 1
    18    8   35 1
    19    8   52 1
    20    9   10 1
    21    9   36 1
    22    9   37 1
    23   10   11 1
    24   10   13 1
    25   10   38 1
    26   11   12 1
    27   11   39 1
    28   11   40 1
    29   12   41 1
    30   12   42 1
    31   12   52 1
    32   13   14 1
    33   13   43 1
    34   13   44 1
    35   14   15 1
    36   14   45 1
    37   14   46 1
    38   15   16 am
    39   15   47 1
    40   16   17 2
    41   16   18 1
    42   18   23 ar
    43   18   19 ar
    44   19   20 ar
    45   19   48 1
    46   20   21 ar
    47   20   49 1
    48   21   22 ar
    49   21   50 1
    50   22   23 ar
    51   22   51 1
    52   23   24 1
    53   24   25 2
    54   24   26 1
    55   52   53 1
@<TRIPOS>MOLECULE
ZINC03814261
   53    55     0     0     0
SMALL
USER_CHARGES

@<TRIPOS>ATOM
      1 C1          2.2413   14.5914   -5.2986 C.ar      1 <0>        -0.0837
      2 C2          1.2862   14.5181   -4.3020 C.ar      1 <0>        -0.1133
      3 C3          1.6532   14.1624   -3.0177 C.ar      1 <0>        -0.0969
      4 C4          2.9756   13.8805   -2.7298 C.ar      1 <0>        -0.1638
      5 C5          3.9316   13.9593   -3.7251 C.ar      1 <0>        -0.0947
      6 C6          3.5636   14.3095   -5.0107 C.ar      1 <0>        -0.1132
      7 C7          3.3758   13.4931   -1.3295 C.3       1 <0>         0.0489
      8 C8          3.8922   11.5969    0.0840 C.3       1 <0>        -0.0018
      9 C9          3.9143   10.0676    0.1384 C.3       1 <0>        -0.1424
     10 C10         2.4825    9.5370    0.0244 C.3       1 <0>        -0.0962
     11 C11         1.8600   10.0466   -1.2784 C.3       1 <0>        -0.1476
     12 C12         1.8975   11.5765   -1.2918 C.3       1 <0>        -0.0067
     13 C13         2.5032    8.0072    0.0170 C.3       1 <0>        -0.1302
     14 C14         1.0679    7.4776    0.0287 C.3       1 <0>         0.1160
     15 N1          1.0877    6.0127    0.0216 N.am      1 <0>        -0.7283
     16 C15        -0.0702    5.3230    0.0299 C.2       1 <0>         0.5650
     17 O1         -1.1309    5.9164    0.0432 O.2       1 <0>        -0.5178
     18 C16        -0.0501    3.8447    0.0227 C.ar      1 <0>        -0.1388
     19 C17         1.1664    3.1602    0.0074 C.ar      1 <0>        -0.0397
     20 C18         1.1781    1.7809    0.0004 C.ar      1 <0>        -0.1189
     21 C19        -0.0126    1.0758    0.0080 C.ar      1 <0>        -0.0267
     22 C20        -1.2216    1.7481    0.0174 C.ar      1 <0>        -0.0468
     23 C21        -1.2473    3.1276    0.0308 C.ar      1 <0>         0.0026
     24 N2         -2.4903    0.9858    0.0188 N.pl3     1 <0>         0.0222
     25 O2         -2.4692   -0.2320    0.0116 O.2       1 <0>        -0.1453
     26 O3         -3.5556    1.5763    0.0270 O.3       1 <0>        -0.1467
     27 H1          1.9544   14.8687   -6.3022 H         1 <0>         0.1361
     28 H2          0.2531   14.7384   -4.5269 H         1 <0>         0.1364
     29 H3          0.9070   14.1052   -2.2390 H         1 <0>         0.1309
     30 H4          4.9654   13.7433   -3.4992 H         1 <0>         0.1308
     31 H5          4.3098   14.3664   -5.7894 H         1 <0>         0.1362
     32 H6          2.7064   13.9718   -0.6147 H         1 <0>         0.1364
     33 H7          4.3996   13.8167   -1.1416 H         1 <0>         0.1349
     34 H8          3.3058   11.9815    0.9185 H         1 <0>         0.1314
     35 H9          4.9115   11.9774    0.1506 H         1 <0>         0.1297
     36 H10         4.3483    9.7434    1.0843 H         1 <0>         0.1138
     37 H11         4.5119    9.6827   -0.6878 H         1 <0>         0.0891
     38 H12         1.8949    9.8892    0.8721 H         1 <0>         0.0950
     39 H13         2.4253    9.6613   -2.1270 H         1 <0>         0.0892
     40 H14         0.8263    9.7073   -1.3449 H         1 <0>         0.1144
     41 H15         1.3204   11.9612   -0.4509 H         1 <0>         0.1307
     42 H16         1.4679   11.9422   -2.2244 H         1 <0>         0.1297
     43 H17         3.0308    7.6467    0.9001 H         1 <0>         0.0837
     44 H18         3.0131    7.6550   -0.8798 H         1 <0>         0.0786
     45 H19         0.5404    7.8381   -0.8544 H         1 <0>         0.0730
     46 H20         0.5580    7.8297    0.9255 H         1 <0>         0.0749
     47 H21         1.9342    5.5392    0.0110 H         1 <0>         0.4023
     48 H22         2.0964    3.7094    0.0008 H         1 <0>         0.1443
     49 H23         2.1186    1.2501   -0.0115 H         1 <0>         0.1585
     50 H24         0.0021   -0.0041    0.0020 H         1 <0>         0.1635
     51 H25        -2.1918    3.6512    0.0430 H         1 <0>         0.1679
     52 N3          3.3040   12.0227   -1.2039 N.4       1 <0>        -0.3923
     53 H26         3.8372   11.5962   -1.9707 H         1 <0>         0.4254
@<TRIPOS>BOND
     1    1    6 ar
     2    1    2 ar
     3    1   27 1
     4    2    3 ar
     5    2   28 1
     6    3    4 ar
     7    3   29 1
     8    4    5 ar
     9    4    7 1
    10    5    6 ar
    11    5   30 1
    12    6   31 1
    13    7   32 1
    14    7   33 1
    15    7   52 1
    16    8    9 1
    17    8   34 1
    18    8   35 1
    19    8   52 1
    20    9   10 1
    21    9   36 1
    22    9   37 1
    23   10   11 1
    24   10   13 1
    25   10   38 1
    26   11   12 1
    27   11   39 1
    28   11   40 1
    29   12   41 1
    30   12   42 1
    31   12   52 1
    32   13   14 1
    33   13   43 1
    34   13   44 1
    35   14   15 1
    36   14   45 1
    37   14   46 1
    38   15   16 am
    39   15   47 1
    40   16   17 2
    41   16   18 1
    42   18   23 ar
    43   18   19 ar
    44   19   20 ar
    45   19   48 1
    46   20   21 ar
    47   20   49 1
    48   21   22 ar
    49   21   50 1
    50   22   23 ar
    51   22   24 1
    52   23   51 1
    53   24   25 2
    54   24   26 1
    55   52   53 1
@<TRIPOS>MOLECULE
ZINC03814262
   53    55     0     0     0
SMALL
USER_CHARGES

@<TRIPOS>ATOM
      1 C1          3.3417   -3.3244    4.3018 C.ar      1 <0>        -0.0840
      2 C2          2.0388   -3.0012    4.6315 C.ar      1 <0>        -0.1132
      3 C3          1.1680   -2.5577    3.6537 C.ar      1 <0>        -0.0948
      4 C4          1.6001   -2.4380    2.3461 C.ar      1 <0>        -0.1615
      5 C5          2.9015   -2.7667    2.0153 C.ar      1 <0>        -0.0964
      6 C6          3.7738   -3.2047    2.9941 C.ar      1 <0>        -0.1139
      7 C7          0.6507   -1.9551    1.2800 C.3       1 <0>         0.0485
      8 C8          0.0021   -0.0041    0.0020 C.3       1 <0>        -0.0008
      9 C9         -0.0187    1.5261    0.0104 C.3       1 <0>        -0.1425
     10 C10         1.4196    2.0513   -0.0005 C.3       1 <0>        -0.0961
     11 C11         2.1687    1.4902    1.2114 C.3       1 <0>        -0.1473
     12 C12         2.1260   -0.0390    1.1681 C.3       1 <0>        -0.0071
     13 C13         1.4064    3.5796    0.0693 C.3       1 <0>        -0.1307
     14 C14         2.8355    4.1088   -0.0671 C.3       1 <0>         0.1154
     15 N1          2.8229    5.5722   -0.0004 N.am      1 <0>        -0.7268
     16 C15         3.9770    6.2612   -0.0988 C.2       1 <0>         0.5599
     17 O1          5.0284    5.6685   -0.2430 O.2       1 <0>        -0.5165
     18 C16         3.9643    7.7381   -0.0314 C.ar      1 <0>        -0.0916
     19 C17         2.7581    8.4221    0.1284 C.ar      1 <0>        -0.0874
     20 C18         2.7538    9.8000    0.1963 C.ar      1 <0>        -0.0603
     21 C19         3.9404   10.5043    0.0945 C.ar      1 <0>        -0.0174
     22 C20         5.1388    9.8327   -0.0693 C.ar      1 <0>        -0.0575
     23 C21         5.1577    8.4547   -0.1331 C.ar      1 <0>        -0.0567
     24 N2          3.9276   11.9829    0.1615 N.pl3     1 <0>         0.0187
     25 O2          4.9705   12.6056    0.0725 O.2       1 <0>        -0.1435
     26 O3          2.8740   12.5769    0.3056 O.3       1 <0>        -0.1468
     27 H1          4.0222   -3.6702    5.0658 H         1 <0>         0.1361
     28 H2          1.7012   -3.0947    5.6531 H         1 <0>         0.1361
     29 H3          0.1501   -2.3052    3.9113 H         1 <0>         0.1306
     30 H4          3.2378   -2.6774    0.9929 H         1 <0>         0.1304
     31 H5          4.7919   -3.4569    2.7366 H         1 <0>         0.1364
     32 H6         -0.3666   -2.2477    1.5398 H         1 <0>         0.1342
     33 H7          0.9232   -2.3991    0.3226 H         1 <0>         0.1361
     34 H8         -1.0203   -0.3813    0.0242 H         1 <0>         0.1301
     35 H9          0.4992   -0.3556   -0.9021 H         1 <0>         0.1308
     36 H10        -0.5449    1.8878   -0.8730 H         1 <0>         0.1139
     37 H11        -0.5279    1.8782    0.9076 H         1 <0>         0.0895
     38 H12         1.9171    1.7318   -0.9162 H         1 <0>         0.0945
     39 H13         1.6939    1.8417    2.1274 H         1 <0>         0.0891
     40 H14         3.2053    1.8262    1.1860 H         1 <0>         0.1135
     41 H15         2.6463   -0.4415    2.0373 H         1 <0>         0.1323
     42 H16         2.6132   -0.3903    0.2586 H         1 <0>         0.1291
     43 H17         0.7937    3.9751   -0.7409 H         1 <0>         0.0840
     44 H18         0.9916    3.8961    1.0263 H         1 <0>         0.0790
     45 H19         3.4482    3.7133    0.7430 H         1 <0>         0.0732
     46 H20         3.2503    3.7923   -1.0241 H         1 <0>         0.0750
     47 H21         1.9839    6.0452    0.1147 H         1 <0>         0.4035
     48 H22         1.8307    7.8736    0.2032 H         1 <0>         0.1482
     49 H23         1.8218   10.3302    0.3248 H         1 <0>         0.1632
     50 H24         6.0616   10.3884   -0.1479 H         1 <0>         0.1655
     51 H25         6.0939    7.9316   -0.2609 H         1 <0>         0.1626
     52 N3          0.7156   -0.4809    1.2057 N.4       1 <0>        -0.3920
     53 H26         0.2646   -0.0849    2.0388 H         1 <0>         0.4253
@<TRIPOS>BOND
     1    1    6 ar
     2    1    2 ar
     3    1   27 1
     4    2    3 ar
     5    2   28 1
     6    3    4 ar
     7    3   29 1
     8    4    5 ar
     9    4    7 1
    10    5    6 ar
    11    5   30 1
    12    6   31 1
    13    7   32 1
    14    7   33 1
    15    7   52 1
    16    8    9 1
    17    8   34 1
    18    8   35 1
    19    8   52 1
    20    9   10 1
    21    9   36 1
    22    9   37 1
    23   10   11 1
    24   10   13 1
    25   10   38 1
    26   11   12 1
    27   11   39 1
    28   11   40 1
    29   12   41 1
    30   12   42 1
    31   12   52 1
    32   13   14 1
    33   13   43 1
    34   13   44 1
    35   14   15 1
    36   14   45 1
    37   14   46 1
    38   15   16 am
    39   15   47 1
    40   16   17 2
    41   16   18 1
    42   18   23 ar
    43   18   19 ar
    44   19   20 ar
    45   19   48 1
    46   20   21 ar
    47   20   49 1
    48   21   22 ar
    49   21   24 1
    50   22   23 ar
    51   22   50 1
    52   23   51 1
    53   24   25 2
    54   24   26 1
    55   52   53 1
@<TRIPOS>MOLECULE
ZINC03814263
   55    57     0     0     0
SMALL
USER_CHARGES

@<TRIPOS>ATOM
      1 C1          2.5082   -2.6768   -0.0372 C.3       1 <0>         0.0230
      2 O1          1.2283   -2.0415   -0.0211 O.3       1 <0>        -0.3096
      3 C2          1.2140   -0.6845   -0.0137 C.ar      1 <0>         0.1625
      4 C3          0.0021   -0.0041    0.0020 C.ar      1 <0>        -0.1593
      5 C4         -0.0166    1.3728    0.0096 C.ar      1 <0>        -0.0152
      6 C5          1.1850    2.0860    0.0019 C.ar      1 <0>        -0.1864
      7 C6          2.4013    1.3983   -0.0134 C.ar      1 <0>        -0.0429
      8 C7          2.4115    0.0213   -0.0213 C.ar      1 <0>        -0.2189
      9 C8          1.1695    3.5619    0.0095 C.2       1 <0>         0.5675
     10 O2          0.1103    4.1587    0.0224 O.2       1 <0>        -0.5351
     11 N1          2.3295    4.2480    0.0021 N.am      1 <0>        -0.7345
     12 C9          2.3142    5.7129    0.0097 C.3       1 <0>         0.1174
     13 C10         3.7512    6.2381   -0.0011 C.3       1 <0>        -0.1299
     14 C11         3.7351    7.7680    0.0067 C.3       1 <0>        -0.0959
     15 C12         3.1149    8.2799   -1.2963 C.3       1 <0>        -0.1473
     16 C13         3.1571    9.8097   -1.3091 C.3       1 <0>        -0.0065
     17 C14         5.1512    9.8235    0.0678 C.3       1 <0>        -0.0015
     18 C15         5.1685    8.2942    0.1218 C.3       1 <0>        -0.1425
     19 C16         4.6414   11.7218   -1.3454 C.3       1 <0>         0.0489
     20 C17         4.2431   12.1108   -2.7458 C.ar      1 <0>        -0.1633
     21 C18         5.2000   12.1870   -3.7405 C.ar      1 <0>        -0.0948
     22 C19         4.8338   12.5387   -5.0263 C.ar      1 <0>        -0.1133
     23 C20         3.5125   12.8248   -5.3148 C.ar      1 <0>        -0.0840
     24 C21         2.5566   12.7541   -4.3188 C.ar      1 <0>        -0.1134
     25 C22         2.9218   12.3969   -3.0343 C.ar      1 <0>        -0.0968
     26 H1          2.3767   -3.7588   -0.0417 H         1 <0>         0.1068
     27 H2          3.0532   -2.3733   -0.9310 H         1 <0>         0.0596
     28 H3          3.0709   -2.3828    0.8488 H         1 <0>         0.0598
     29 H4         -0.9262   -0.5560    0.0079 H         1 <0>         0.1423
     30 H5         -0.9587    1.9008    0.0169 H         1 <0>         0.1447
     31 H6          3.3321    1.9459   -0.0193 H         1 <0>         0.1259
     32 H7          3.3511   -0.5110   -0.0331 H         1 <0>         0.1369
     33 H8          3.1746    3.7719   -0.0082 H         1 <0>         0.4007
     34 H9          1.7883    6.0753   -0.8736 H         1 <0>         0.0693
     35 H10         1.8049    6.0664    0.9062 H         1 <0>         0.0711
     36 H11         4.2771    5.8757    0.8822 H         1 <0>         0.0825
     37 H12         4.2605    5.8847   -0.8977 H         1 <0>         0.0774
     38 H13         3.1481    8.1218    0.8543 H         1 <0>         0.0944
     39 H14         3.6795    7.8932   -2.1446 H         1 <0>         0.0889
     40 H15         2.0802    7.9439   -1.3634 H         1 <0>         0.1148
     41 H16         2.5808   10.1959   -0.4684 H         1 <0>         0.1305
     42 H17         2.7292   10.1770   -2.2419 H         1 <0>         0.1293
     43 H18         4.5655   10.2097    0.9021 H         1 <0>         0.1312
     44 H19         6.1715   10.2008    0.1351 H         1 <0>         0.1292
     45 H20         5.6010    7.9683    1.0677 H         1 <0>         0.1136
     46 H21         5.7654    7.9076   -0.7043 H         1 <0>         0.0888
     47 H22         3.9731   12.2023   -0.6308 H         1 <0>         0.1362
     48 H23         5.6660   12.0422   -1.1568 H         1 <0>         0.1346
     49 H24         6.2330   11.9677   -3.5141 H         1 <0>         0.1307
     50 H25         5.5806   12.5935   -5.8045 H         1 <0>         0.1360
     51 H26         3.2270   13.1032   -6.3185 H         1 <0>         0.1359
     52 H27         1.5243   12.9777   -4.5442 H         1 <0>         0.1363
     53 H28         2.1750   12.3417   -2.2561 H         1 <0>         0.1310
     54 N2          4.5653   10.2516   -1.2202 N.4       1 <0>        -0.3923
     55 H29         5.0976    9.8237   -1.9868 H         1 <0>         0.4254
@<TRIPOS>BOND
     1    1    2 1
     2    1   26 1
     3    1   27 1
     4    1   28 1
     5    2    3 1
     6    3    8 ar
     7    3    4 ar
     8    4    5 ar
     9    4   29 1
    10    5    6 ar
    11    5   30 1
    12    6    7 ar
    13    6    9 1
    14    7    8 ar
    15    7   31 1
    16    8   32 1
    17    9   10 2
    18    9   11 am
    19   11   12 1
    20   11   33 1
    21   12   13 1
    22   12   34 1
    23   12   35 1
    24   13   14 1
    25   13   36 1
    26   13   37 1
    27   14   18 1
    28   14   15 1
    29   14   38 1
    30   15   16 1
    31   15   39 1
    32   15   40 1
    33   16   41 1
    34   16   42 1
    35   16   54 1
    36   17   18 1
    37   17   43 1
    38   17   44 1
    39   17   54 1
    40   18   45 1
    41   18   46 1
    42   19   20 1
    43   19   47 1
    44   19   48 1
    45   19   54 1
    46   20   25 ar
    47   20   21 ar
    48   21   22 ar
    49   21   49 1
    50   22   23 ar
    51   22   50 1
    52   23   24 ar
    53   23   51 1
    54   24   25 ar
    55   24   52 1
    56   25   53 1
    57   54   55 1
@<TRIPOS>MOLECULE
ZINC03814264
   53    55     0     0     0
SMALL
USER_CHARGES

@<TRIPOS>ATOM
      1 C1        -14.2412    6.2974    5.4564 C.ar      1 <0>        -0.0838
      2 C2        -13.7262    7.1189    4.4711 C.ar      1 <0>        -0.1135
      3 C3        -13.5939    6.6483    3.1781 C.ar      1 <0>        -0.0968
      4 C4        -13.9771    5.3563    2.8702 C.ar      1 <0>        -0.1635
      5 C5        -14.4975    4.5366    3.8543 C.ar      1 <0>        -0.0947
      6 C6        -14.6245    5.0054    5.1485 C.ar      1 <0>        -0.1132
      7 C7        -13.8334    4.8433    1.4605 C.3       1 <0>         0.0489
      8 C8        -12.4183    3.5099    0.0183 C.3       1 <0>        -0.0015
      9 C9        -11.0844    2.7632   -0.0545 C.3       1 <0>        -0.1426
     10 C10        -9.9354    3.7674    0.0714 C.3       1 <0>        -0.0959
     11 C11       -10.0812    4.5356    1.3879 C.3       1 <0>        -0.1474
     12 C12       -11.4441    5.2309    1.4188 C.3       1 <0>        -0.0065
     13 C13        -8.6001    3.0205    0.0604 C.3       1 <0>        -0.1305
     14 C14        -7.4508    4.0304    0.0605 C.3       1 <0>         0.1165
     15 N1         -6.1723    3.3152    0.0500 N.am      1 <0>        -0.7305
     16 C15        -5.0143    4.0049    0.0482 C.2       1 <0>         0.5599
     17 O1         -5.0308    5.2200    0.0553 O.2       1 <0>        -0.5261
     18 C16        -3.7221    3.2821    0.0376 C.ar      1 <0>        -0.1114
     19 C17        -2.5233    3.9969    0.0358 C.ar      1 <0>        -0.0721
     20 C18        -1.3203    3.3255    0.0264 C.ar      1 <0>        -0.0735
     21 C19        -1.3007    1.9276    0.0187 C.ar      1 <0>        -0.1612
     22 C20        -2.5022    1.2128    0.0147 C.ar      1 <0>        -0.0693
     23 C21        -3.7039    1.8865    0.0300 C.ar      1 <0>        -0.1008
     24 C22        -0.0144    1.2081    0.0087 C.2       1 <0>         0.3781
     25 O2          0.0021   -0.0041    0.0020 O.2       1 <0>        -0.4479
     26 H1        -14.3439    6.6648    6.4667 H         1 <0>         0.1360
     27 H2        -13.4268    8.1283    4.7116 H         1 <0>         0.1362
     28 H3        -13.1915    7.2901    2.4083 H         1 <0>         0.1309
     29 H4        -14.8010    3.5286    3.6128 H         1 <0>         0.1308
     30 H5        -15.0265    4.3634    5.9183 H         1 <0>         0.1361
     31 H6        -13.9386    5.6717    0.7600 H         1 <0>         0.1362
     32 H7        -14.6064    4.1005    1.2635 H         1 <0>         0.1348
     33 H8        -12.4808    4.2226   -0.8041 H         1 <0>         0.1312
     34 H9        -13.2386    2.7962   -0.0567 H         1 <0>         0.1295
     35 H10       -11.0102    2.2430   -1.0095 H         1 <0>         0.1139
     36 H11       -11.0270    2.0406    0.7596 H         1 <0>         0.0891
     37 H12        -9.9689    4.4659   -0.7647 H         1 <0>         0.0946
     38 H13       -10.0080    3.8409    2.2246 H         1 <0>         0.0891
     39 H14        -9.2902    5.2817    1.4633 H         1 <0>         0.1144
     40 H15       -11.5112    5.9355    0.5899 H         1 <0>         0.1305
     41 H16       -11.5569    5.7671    2.3611 H         1 <0>         0.1294
     42 H17        -8.5383    2.3998   -0.8335 H         1 <0>         0.0833
     43 H18        -8.5294    2.3895    0.9464 H         1 <0>         0.0782
     44 H19        -7.5126    4.6511    0.9544 H         1 <0>         0.0709
     45 H20        -7.5215    4.6613   -0.8255 H         1 <0>         0.0727
     46 H21        -6.1591    2.3453    0.0444 H         1 <0>         0.4028
     47 H22        -2.5388    5.0767    0.0414 H         1 <0>         0.1446
     48 H23        -0.3928    3.8788    0.0253 H         1 <0>         0.1449
     49 H24        -2.4884    0.1329    0.0043 H         1 <0>         0.1415
     50 H25        -4.6322    1.3346    0.0314 H         1 <0>         0.1295
     51 H26         0.9135    1.7607    0.0028 H         1 <0>         0.1150
     52 N2        -12.5069    4.2083    1.3184 N.4       1 <0>        -0.3924
     53 H27       -12.3825    3.5236    2.0734 H         1 <0>         0.4255
@<TRIPOS>BOND
     1    1    6 ar
     2    1    2 ar
     3    1   26 1
     4    2    3 ar
     5    2   27 1
     6    3    4 ar
     7    3   28 1
     8    4    5 ar
     9    4    7 1
    10    5    6 ar
    11    5   29 1
    12    6   30 1
    13    7   31 1
    14    7   32 1
    15    7   52 1
    16    8    9 1
    17    8   33 1
    18    8   34 1
    19    8   52 1
    20    9   10 1
    21    9   35 1
    22    9   36 1
    23   10   11 1
    24   10   13 1
    25   10   37 1
    26   11   12 1
    27   11   38 1
    28   11   39 1
    29   12   40 1
    30   12   41 1
    31   12   52 1
    32   13   14 1
    33   13   42 1
    34   13   43 1
    35   14   15 1
    36   14   44 1
    37   14   45 1
    38   15   16 am
    39   15   46 1
    40   16   17 2
    41   16   18 1
    42   18   23 ar
    43   18   19 ar
    44   19   20 ar
    45   19   47 1
    46   20   21 ar
    47   20   48 1
    48   21   22 ar
    49   21   24 1
    50   22   23 ar
    51   22   49 1
    52   23   50 1
    53   24   25 2
    54   24   51 1
    55   52   53 1
@<TRIPOS>MOLECULE
ZINC03814265
   51    53     0     0     0
SMALL
USER_CHARGES

@<TRIPOS>ATOM
      1 C1          3.5284   12.8234   -5.3150 C.ar      1 <0>        -0.0839
      2 C2          2.5724   12.7542   -4.3189 C.ar      1 <0>        -0.1135
      3 C3          2.9371   12.3964   -3.0345 C.ar      1 <0>        -0.0968
      4 C4          4.2579   12.1083   -2.7459 C.ar      1 <0>        -0.1635
      5 C5          5.2149   12.1830   -3.7407 C.ar      1 <0>        -0.0947
      6 C6          4.8493   12.5352   -5.0264 C.ar      1 <0>        -0.1132
      7 C7          4.6556   11.7187   -1.3455 C.3       1 <0>         0.0489
      8 C8          5.1625    9.8196    0.0677 C.3       1 <0>        -0.0016
      9 C9          5.1775    8.2903    0.1217 C.3       1 <0>        -0.1425
     10 C10         3.7433    7.7663    0.0067 C.3       1 <0>        -0.0959
     11 C11         3.1239    8.2792   -1.2963 C.3       1 <0>        -0.1474
     12 C12         3.1684    9.8088   -1.3092 C.3       1 <0>        -0.0065
     13 C13         3.7570    6.2364   -0.0012 C.3       1 <0>        -0.1302
     14 C14         2.3192    5.7134    0.0096 C.3       1 <0>         0.1167
     15 N1          2.3323    4.2485    0.0021 N.am      1 <0>        -0.7314
     16 C15         1.1713    3.5642    0.0095 C.2       1 <0>         0.5638
     17 O1          0.1132    4.1625    0.0224 O.2       1 <0>        -0.5283
     18 C16         1.1845    2.0864    0.0020 C.ar      1 <0>        -0.1407
     19 C17        -0.0166    1.3747    0.0096 C.ar      1 <0>        -0.0439
     20 C18         0.0021   -0.0041    0.0020 C.ar      1 <0>        -0.1156
     21 C19         1.2093   -0.6830   -0.0127 C.ar      1 <0>        -0.0076
     22 C20         2.4042    0.0176   -0.0203 C.ar      1 <0>        -0.1177
     23 C21         2.3982    1.3965   -0.0129 C.ar      1 <0>        -0.0742
     24 Cl1         1.2248   -2.4189   -0.0210 Cl        1 <0>        -0.0513
     25 H1          3.2433   13.1022   -6.3187 H         1 <0>         0.1360
     26 H2          1.5404   12.9793   -4.5443 H         1 <0>         0.1363
     27 H3          2.1902   12.3424   -2.2563 H         1 <0>         0.1309
     28 H4          6.2475   11.9621   -3.5143 H         1 <0>         0.1308
     29 H5          5.5961   12.5889   -5.8047 H         1 <0>         0.1361
     30 H6          3.9881   12.2002   -0.6310 H         1 <0>         0.1362
     31 H7          5.6808   12.0375   -1.1570 H         1 <0>         0.1347
     32 H8          4.5775   10.2068    0.9019 H         1 <0>         0.1312
     33 H9          6.1835   10.1954    0.1350 H         1 <0>         0.1294
     34 H10         5.6095    7.9637    1.0676 H         1 <0>         0.1138
     35 H11         5.7738    7.9028   -0.7044 H         1 <0>         0.0890
     36 H12         3.1569    8.1210    0.8542 H         1 <0>         0.0945
     37 H13         3.6879    7.8915   -2.1447 H         1 <0>         0.0891
     38 H14         2.0887    7.9447   -1.3635 H         1 <0>         0.1145
     39 H15         2.5927   10.1960   -0.4685 H         1 <0>         0.1305
     40 H16         2.7411   10.1768   -2.2420 H         1 <0>         0.1294
     41 H17         4.2824    5.8732    0.8821 H         1 <0>         0.0832
     42 H18         4.2658    5.8822   -0.8978 H         1 <0>         0.0781
     43 H19         1.7939    6.0766   -0.8737 H         1 <0>         0.0706
     44 H20         1.8105    6.0676    0.9062 H         1 <0>         0.0724
     45 H21         3.1767    3.7711   -0.0082 H         1 <0>         0.4021
     46 H22        -0.9585    1.9031    0.0169 H         1 <0>         0.1475
     47 H23        -0.9264   -0.5557    0.0079 H         1 <0>         0.1453
     48 H24         3.3424   -0.5173   -0.0318 H         1 <0>         0.1430
     49 H25         3.3305    1.9417   -0.0181 H         1 <0>         0.1333
     50 N2          4.5772   10.2486   -1.2203 N.4       1 <0>        -0.3924
     51 H26         5.1089    9.8199   -1.9869 H         1 <0>         0.4254
@<TRIPOS>BOND
     1    1    6 ar
     2    1    2 ar
     3    1   25 1
     4    2    3 ar
     5    2   26 1
     6    3    4 ar
     7    3   27 1
     8    4    5 ar
     9    4    7 1
    10    5    6 ar
    11    5   28 1
    12    6   29 1
    13    7   30 1
    14    7   31 1
    15    7   50 1
    16    8    9 1
    17    8   32 1
    18    8   33 1
    19    8   50 1
    20    9   10 1
    21    9   34 1
    22    9   35 1
    23   10   11 1
    24   10   13 1
    25   10   36 1
    26   11   12 1
    27   11   37 1
    28   11   38 1
    29   12   39 1
    30   12   40 1
    31   12   50 1
    32   13   14 1
    33   13   41 1
    34   13   42 1
    35   14   15 1
    36   14   43 1
    37   14   44 1
    38   15   16 am
    39   15   45 1
    40   16   17 2
    41   16   18 1
    42   18   23 ar
    43   18   19 ar
    44   19   20 ar
    45   19   46 1
    46   20   21 ar
    47   20   47 1
    48   21   22 ar
    49   21   24 1
    50   22   23 ar
    51   22   48 1
    52   23   49 1
    53   50   51 1
@<TRIPOS>MOLECULE
ZINC03814266
   51    53     0     0     0
SMALL
USER_CHARGES

@<TRIPOS>ATOM
      1 C1          3.5237   12.8237   -5.3149 C.ar      1 <0>        -0.0839
      2 C2          2.5677   12.7541   -4.3189 C.ar      1 <0>        -0.1134
      3 C3          2.9326   12.3965   -3.0344 C.ar      1 <0>        -0.0969
      4 C4          4.2536   12.1089   -2.7459 C.ar      1 <0>        -0.1634
      5 C5          5.2105   12.1841   -3.7406 C.ar      1 <0>        -0.0947
      6 C6          4.8447   12.5361   -5.0264 C.ar      1 <0>        -0.1132
      7 C7          4.6514   11.7195   -1.3455 C.3       1 <0>         0.0489
      8 C8          5.1592    9.8207    0.0677 C.3       1 <0>        -0.0016
      9 C9          5.1748    8.2914    0.1217 C.3       1 <0>        -0.1425
     10 C10         3.7409    7.7667    0.0067 C.3       1 <0>        -0.0960
     11 C11         3.1212    8.2793   -1.2963 C.3       1 <0>        -0.1473
     12 C12         3.1651    9.8090   -1.3092 C.3       1 <0>        -0.0065
     13 C13         3.7553    6.2368   -0.0012 C.3       1 <0>        -0.1302
     14 C14         2.3177    5.7132    0.0096 C.3       1 <0>         0.1168
     15 N1          2.3315    4.2483    0.0021 N.am      1 <0>        -0.7320
     16 C15         1.1708    3.5634    0.0095 C.2       1 <0>         0.5652
     17 O1          0.1123    4.1613    0.0224 O.2       1 <0>        -0.5297
     18 C16         1.1847    2.0863    0.0020 C.ar      1 <0>        -0.1570
     19 C17        -0.0166    1.3742    0.0096 C.ar      1 <0>        -0.0267
     20 C18         0.0021   -0.0041    0.0020 C.ar      1 <0>        -0.1595
     21 C19         1.2107   -0.6834   -0.0132 C.ar      1 <0>         0.1336
     22 C20         2.4063    0.0187   -0.0204 C.ar      1 <0>        -0.1615
     23 C21         2.3991    1.3970   -0.0129 C.ar      1 <0>        -0.0566
     24 F1          1.2234   -2.0344   -0.0205 F         1 <0>        -0.1285
     25 H1          3.2385   13.1024   -6.3186 H         1 <0>         0.1360
     26 H2          1.5357   12.9788   -4.5443 H         1 <0>         0.1362
     27 H3          2.1857   12.3421   -2.2562 H         1 <0>         0.1309
     28 H4          6.2432   11.9637   -3.5142 H         1 <0>         0.1308
     29 H5          5.5916   12.5902   -5.8047 H         1 <0>         0.1361
     30 H6          3.9837   12.2008   -0.6310 H         1 <0>         0.1362
     31 H7          5.6764   12.0388   -1.1569 H         1 <0>         0.1347
     32 H8          4.5740   10.2076    0.9020 H         1 <0>         0.1311
     33 H9          6.1800   10.1970    0.1350 H         1 <0>         0.1294
     34 H10         5.6070    7.9650    1.0677 H         1 <0>         0.1138
     35 H11         5.7714    7.9042   -0.7043 H         1 <0>         0.0890
     36 H12         3.1543    8.1211    0.8542 H         1 <0>         0.0945
     37 H13         3.6855    7.8919   -2.1447 H         1 <0>         0.0891
     38 H14         2.0862    7.9444   -1.3635 H         1 <0>         0.1145
     39 H15         2.5892   10.1959   -0.4685 H         1 <0>         0.1305
     40 H16         2.7376   10.1768   -2.2420 H         1 <0>         0.1294
     41 H17         4.2808    5.8739    0.8821 H         1 <0>         0.0831
     42 H18         4.2642    5.8829   -0.8977 H         1 <0>         0.0780
     43 H19         1.7922    6.0762   -0.8736 H         1 <0>         0.0705
     44 H20         1.8089    6.0672    0.9062 H         1 <0>         0.0723
     45 H21         3.1760    3.7713   -0.0082 H         1 <0>         0.4019
     46 H22        -0.9586    1.9024    0.0169 H         1 <0>         0.1484
     47 H23        -0.9264   -0.5558    0.0083 H         1 <0>         0.1477
     48 H24         3.3450   -0.5154   -0.0315 H         1 <0>         0.1453
     49 H25         3.3310    1.9429   -0.0188 H         1 <0>         0.1341
     50 N2          4.5737   10.2494   -1.2202 N.4       1 <0>        -0.3923
     51 H26         5.1056    9.8209   -1.9868 H         1 <0>         0.4254
@<TRIPOS>BOND
     1    1    6 ar
     2    1    2 ar
     3    1   25 1
     4    2    3 ar
     5    2   26 1
     6    3    4 ar
     7    3   27 1
     8    4    5 ar
     9    4    7 1
    10    5    6 ar
    11    5   28 1
    12    6   29 1
    13    7   30 1
    14    7   31 1
    15    7   50 1
    16    8    9 1
    17    8   32 1
    18    8   33 1
    19    8   50 1
    20    9   10 1
    21    9   34 1
    22    9   35 1
    23   10   11 1
    24   10   13 1
    25   10   36 1
    26   11   12 1
    27   11   37 1
    28   11   38 1
    29   12   39 1
    30   12   40 1
    31   12   50 1
    32   13   14 1
    33   13   41 1
    34   13   42 1
    35   14   15 1
    36   14   43 1
    37   14   44 1
    38   15   16 am
    39   15   45 1
    40   16   17 2
    41   16   18 1
    42   18   23 ar
    43   18   19 ar
    44   19   20 ar
    45   19   46 1
    46   20   21 ar
    47   20   47 1
    48   21   22 ar
    49   21   24 1
    50   22   23 ar
    51   22   48 1
    52   23   49 1
    53   50   51 1
@<TRIPOS>MOLECULE
ZINC03814267
   56    58     0     0     0
SMALL
USER_CHARGES

@<TRIPOS>ATOM
      1 C1          2.5537   -2.8935   -0.1512 C.3       1 <0>        -0.1934
      2 C2          1.2439   -2.1597   -0.0210 C.2       1 <0>         0.3885
      3 O1          0.2081   -2.7815    0.0791 O.2       1 <0>        -0.4440
      4 C3          1.2223   -0.6859   -0.0152 C.ar      1 <0>        -0.1401
      5 C4          0.0018   -0.0042   -0.0107 C.ar      1 <0>        -0.0673
      6 C5         -0.0171    1.3734   -0.0049 C.ar      1 <0>        -0.0685
      7 C6          1.1816    2.0883   -0.0034 C.ar      1 <0>        -0.1127
      8 C7          2.4007    1.4089   -0.0080 C.ar      1 <0>        -0.1000
      9 C8          2.4223    0.0314   -0.0138 C.ar      1 <0>        -0.0818
     10 C9          1.1598    3.5689    0.0029 C.2       1 <0>         0.5600
     11 O2          0.0986    4.1609    0.0068 O.2       1 <0>        -0.5254
     12 N1          2.3170    4.2598    0.0043 N.am      1 <0>        -0.7304
     13 C10         2.2955    5.7246    0.0106 C.3       1 <0>         0.1163
     14 C11         3.7304    6.2557    0.0109 C.3       1 <0>        -0.1300
     15 C12         3.7079    7.7856    0.0175 C.3       1 <0>        -0.0961
     16 C13         3.0961    8.2939   -1.2909 C.3       1 <0>        -0.1474
     17 C14         3.1320    9.8238   -1.3046 C.3       1 <0>        -0.0065
     18 C15         5.1148    9.8470    0.0883 C.3       1 <0>        -0.0017
     19 C16         5.1381    8.3178    0.1436 C.3       1 <0>        -0.1424
     20 C17         4.6086   11.7421   -1.3304 C.3       1 <0>         0.0489
     21 C18         4.2200   12.1283   -2.7343 C.ar      1 <0>        -0.1635
     22 C19         5.1845   12.2078   -3.7214 C.ar      1 <0>        -0.0946
     23 C20         4.8273   12.5570   -5.0103 C.ar      1 <0>        -0.1132
     24 C21         3.5072   12.8374   -5.3097 C.ar      1 <0>        -0.0838
     25 C22         2.5435   12.7635   -4.3213 C.ar      1 <0>        -0.1134
     26 C23         2.8999   12.4088   -3.0337 C.ar      1 <0>        -0.0968
     27 H1          3.3069   -2.2358   -0.1395 H         1 <0>         0.0750
     28 H2          2.6652   -3.5884    0.6811 H         1 <0>         0.0979
     29 H3          2.5687   -3.4463   -1.0905 H         1 <0>         0.0999
     30 H4         -0.9259   -0.5571   -0.0115 H         1 <0>         0.1446
     31 H5         -0.9598    1.9003   -0.0059 H         1 <0>         0.1448
     32 H6          3.3276    1.9633   -0.0069 H         1 <0>         0.1308
     33 H7          3.3658   -0.4941   -0.0169 H         1 <0>         0.1436
     34 H8          3.1641    3.7872    0.0012 H         1 <0>         0.4025
     35 H9          1.7752    6.0842   -0.8772 H         1 <0>         0.0708
     36 H10         1.7776    6.0766    0.9027 H         1 <0>         0.0726
     37 H11         4.2507    5.8962    0.8987 H         1 <0>         0.0833
     38 H12         4.2483    5.9038   -0.8812 H         1 <0>         0.0782
     39 H13         3.1126    8.1375    0.8600 H         1 <0>         0.0946
     40 H14         3.6691    7.9089   -2.1344 H         1 <0>         0.0891
     41 H15         2.0633    7.9535   -1.3661 H         1 <0>         0.1145
     42 H16         2.5474   10.2083   -0.4689 H         1 <0>         0.1305
     43 H17         2.7101   10.1886   -2.2411 H         1 <0>         0.1295
     44 H18         4.5209   10.2314    0.9175 H         1 <0>         0.1312
     45 H19         6.1331   10.2286    0.1636 H         1 <0>         0.1295
     46 H20         5.5643    7.9944    1.0933 H         1 <0>         0.1138
     47 H21         5.7433    7.9331   -0.6773 H         1 <0>         0.0891
     48 H22         3.9326   12.2204   -0.6217 H         1 <0>         0.1362
     49 H23         5.6303   12.0668   -1.1338 H         1 <0>         0.1347
     50 H24         6.2165   11.9930   -3.4864 H         1 <0>         0.1308
     51 H25         5.5801   12.6144   -5.7825 H         1 <0>         0.1361
     52 H26         3.2286   13.1138   -6.3159 H         1 <0>         0.1360
     53 H27         1.5122   12.9826   -4.5552 H         1 <0>         0.1363
     54 H28         2.1471   12.3510   -2.2615 H         1 <0>         0.1309
     55 N2          4.5375   10.2717   -1.2046 N.4       1 <0>        -0.3923
     56 H29         5.0778    9.8454   -1.9666 H         1 <0>         0.4254
@<TRIPOS>BOND
     1    1    2 1
     2    1   27 1
     3    1   28 1
     4    1   29 1
     5    2    3 2
     6    2    4 1
     7    4    9 ar
     8    4    5 ar
     9    5    6 ar
    10    5   30 1
    11    6    7 ar
    12    6   31 1
    13    7    8 ar
    14    7   10 1
    15    8    9 ar
    16    8   32 1
    17    9   33 1
    18   10   11 2
    19   10   12 am
    20   12   13 1
    21   12   34 1
    22   13   14 1
    23   13   35 1
    24   13   36 1
    25   14   15 1
    26   14   37 1
    27   14   38 1
    28   15   19 1
    29   15   16 1
    30   15   39 1
    31   16   17 1
    32   16   40 1
    33   16   41 1
    34   17   42 1
    35   17   43 1
    36   17   55 1
    37   18   19 1
    38   18   44 1
    39   18   45 1
    40   18   55 1
    41   19   46 1
    42   19   47 1
    43   20   21 1
    44   20   48 1
    45   20   49 1
    46   20   55 1
    47   21   26 ar
    48   21   22 ar
    49   22   23 ar
    50   22   50 1
    51   23   24 ar
    52   23   51 1
    53   24   25 ar
    54   24   52 1
    55   25   26 ar
    56   25   53 1
    57   26   54 1
    58   55   56 1
@<TRIPOS>MOLECULE
ZINC03814268
   67    70     0     0     0
SMALL
USER_CHARGES

@<TRIPOS>ATOM
      1 C1        -16.0719    1.0195    2.6530 C.ar      1 <0>        -0.0838
      2 C2        -15.7611    0.0894    1.6788 C.ar      1 <0>        -0.1134
      3 C3        -15.0682   -1.0586    2.0150 C.ar      1 <0>        -0.0968
      4 C4        -14.6865   -1.2766    3.3256 C.ar      1 <0>        -0.1635
      5 C5        -15.0022   -0.3491    4.3009 C.ar      1 <0>        -0.0947
      6 C6        -15.6901    0.8015    3.9636 C.ar      1 <0>        -0.1132
      7 C7        -13.9315   -2.5282    3.6923 C.3       1 <0>         0.0488
      8 C8        -11.7157   -3.3931    4.1426 C.3       1 <0>        -0.0016
      9 C9        -10.2268   -3.0396    4.1309 C.3       1 <0>        -0.1425
     10 C10        -9.7820   -2.7720    2.6904 C.3       1 <0>        -0.0960
     11 C11       -10.6346   -1.6442    2.1024 C.3       1 <0>        -0.1473
     12 C12       -12.1117   -2.0382    2.1729 C.3       1 <0>        -0.0066
     13 C13        -8.3089   -2.3587    2.6786 C.3       1 <0>        -0.1305
     14 C14        -7.8318   -2.2127    1.2322 C.3       1 <0>         0.1159
     15 N1         -6.4213   -1.8170    1.2209 N.am      1 <0>        -0.7288
     16 C15        -5.7838   -1.6283    0.0485 C.2       1 <0>         0.5582
     17 O1         -6.3791   -1.7864   -0.9994 O.2       1 <0>        -0.5213
     18 C16        -4.3603   -1.2289    0.0371 C.ar      1 <0>        -0.0875
     19 C17        -3.6971   -1.0326   -1.1753 C.ar      1 <0>        -0.0776
     20 C18        -2.3689   -0.6596   -1.1789 C.ar      1 <0>        -0.0271
     21 C19        -1.6944   -0.4800    0.0157 C.ar      1 <0>        -0.6378
     22 C20        -2.3445   -0.6780    1.2209 C.ar      1 <0>        -0.0299
     23 C21        -3.6739   -1.0461    1.2386 C.ar      1 <0>        -0.1083
     24 S1          0.0021   -0.0041    0.0020 S.o2      1 <0>         2.4862
     25 O2          0.5022   -0.4799   -1.2400 O.2       1 <0>        -0.9221
     26 O3          0.5258   -0.4932    1.2291 O.2       1 <0>        -0.9241
     27 C22        -0.0225    1.8097    0.0120 C.3       1 <0>        -0.5546
     28 C23         1.3913    2.3314    0.0013 C.ar      1 <0>        -0.1047
     29 C24         2.0492    2.5695    1.1935 C.ar      1 <0>        -0.1021
     30 C25         3.3479    3.0430    1.1837 C.ar      1 <0>        -0.1173
     31 C26         3.9849    3.2886   -0.0183 C.ar      1 <0>        -0.1039
     32 C27         3.3250    3.0559   -1.2105 C.ar      1 <0>        -0.1166
     33 C28         2.0283    2.5770   -1.2007 C.ar      1 <0>        -0.1016
     34 H1        -16.6126    1.9167    2.3902 H         1 <0>         0.1360
     35 H2        -16.0593    0.2597    0.6548 H         1 <0>         0.1362
     36 H3        -14.8254   -1.7852    1.2539 H         1 <0>         0.1308
     37 H4        -14.7079   -0.5215    5.3256 H         1 <0>         0.1308
     38 H5        -15.9327    1.5284    4.7247 H         1 <0>         0.1361
     39 H6        -14.2203   -3.3366    3.0206 H         1 <0>         0.1363
     40 H7        -14.1676   -2.8072    4.7192 H         1 <0>         0.1349
     41 H8        -11.8800   -4.2929    3.5497 H         1 <0>         0.1313
     42 H9        -12.0390   -3.5703    5.1684 H         1 <0>         0.1297
     43 H10        -9.6523   -3.8703    4.5408 H         1 <0>         0.1140
     44 H11       -10.0598   -2.1478    4.7350 H         1 <0>         0.0891
     45 H12        -9.9115   -3.6760    2.0953 H         1 <0>         0.0948
     46 H13       -10.4740   -0.7305    2.6745 H         1 <0>         0.0891
     47 H14       -10.3515   -1.4780    1.0630 H         1 <0>         0.1142
     48 H15       -12.2741   -2.9443    1.5892 H         1 <0>         0.1306
     49 H16       -12.7225   -1.2313    1.7680 H         1 <0>         0.1295
     50 H17        -7.7138   -3.1204    3.1823 H         1 <0>         0.0838
     51 H18        -8.1945   -1.4067    3.1968 H         1 <0>         0.0785
     52 H19        -8.4269   -1.4510    0.7285 H         1 <0>         0.0718
     53 H20        -7.9462   -3.1648    0.7140 H         1 <0>         0.0736
     54 H21        -5.9462   -1.6908    2.0571 H         1 <0>         0.4034
     55 H22        -4.2225   -1.1729   -2.1084 H         1 <0>         0.1496
     56 H23        -1.8547   -0.5071   -2.1163 H         1 <0>         0.1539
     57 H24        -1.8111   -0.5402    2.1498 H         1 <0>         0.1517
     58 H25        -4.1814   -1.1963    2.1800 H         1 <0>         0.1354
     59 H26        -0.5497    2.1708   -0.8711 H         1 <0>         0.1462
     60 H27        -0.5327    2.1613    0.9088 H         1 <0>         0.1453
     61 H28         1.5499    2.3818    2.1326 H         1 <0>         0.1311
     62 H29         3.8635    3.2245    2.1151 H         1 <0>         0.1314
     63 H30         4.9982    3.6621   -0.0260 H         1 <0>         0.1301
     64 H31         3.8227    3.2478   -2.1496 H         1 <0>         0.1319
     65 H32         1.5127    2.3952   -2.1321 H         1 <0>         0.1320
     66 N2        -12.4828   -2.2579    3.5869 N.4       1 <0>        -0.3923
     67 H33       -12.2616   -1.4115    4.1245 H         1 <0>         0.4254
@<TRIPOS>BOND
     1    1    6 ar
     2    1    2 ar
     3    1   34 1
     4    2    3 ar
     5    2   35 1
     6    3    4 ar
     7    3   36 1
     8    4    5 ar
     9    4    7 1
    10    5    6 ar
    11    5   37 1
    12    6   38 1
    13    7   39 1
    14    7   40 1
    15    7   66 1
    16    8    9 1
    17    8   41 1
    18    8   42 1
    19    8   66 1
    20    9   10 1
    21    9   43 1
    22    9   44 1
    23   10   11 1
    24   10   13 1
    25   10   45 1
    26   11   12 1
    27   11   46 1
    28   11   47 1
    29   12   48 1
    30   12   49 1
    31   12   66 1
    32   13   14 1
    33   13   50 1
    34   13   51 1
    35   14   15 1
    36   14   52 1
    37   14   53 1
    38   15   16 am
    39   15   54 1
    40   16   17 2
    41   16   18 1
    42   18   23 ar
    43   18   19 ar
    44   19   20 ar
    45   19   55 1
    46   20   21 ar
    47   20   56 1
    48   21   22 ar
    49   21   24 1
    50   22   23 ar
    51   22   57 1
    52   23   58 1
    53   24   25 2
    54   24   26 2
    55   24   27 1
    56   27   28 1
    57   27   59 1
    58   27   60 1
    59   28   33 ar
    60   28   29 ar
    61   29   30 ar
    62   29   61 1
    63   30   31 ar
    64   30   62 1
    65   31   32 ar
    66   31   63 1
    67   32   33 ar
    68   32   64 1
    69   33   65 1
    70   66   67 1
@<TRIPOS>MOLECULE
ZINC03814269
   50    52     0     0     0
SMALL
USER_CHARGES

@<TRIPOS>ATOM
      1 C1          2.7969   14.4420   -5.2918 C.ar      1 <0>        -0.0841
      2 C2          1.8391   14.4099   -4.2956 C.ar      1 <0>        -0.1135
      3 C3          2.1899   14.0377   -3.0113 C.ar      1 <0>        -0.0968
      4 C4          3.4986   13.6982   -2.7232 C.ar      1 <0>        -0.1631
      5 C5          4.4575   13.7358   -3.7181 C.ar      1 <0>        -0.0947
      6 C6          4.1056   14.1025   -5.0037 C.ar      1 <0>        -0.1132
      7 C7          3.8811   13.2929   -1.3230 C.3       1 <0>         0.0488
      8 C8          4.3138   11.3751    0.0895 C.3       1 <0>        -0.0015
      9 C9          4.2691    9.8463    0.1430 C.3       1 <0>        -0.1426
     10 C10         2.8156    9.3787    0.0281 C.3       1 <0>        -0.0958
     11 C11         2.2163    9.9158   -1.2745 C.3       1 <0>        -0.1475
     12 C12         2.3205   11.4425   -1.2869 C.3       1 <0>        -0.0064
     13 C13         2.7696    7.8494    0.0198 C.3       1 <0>        -0.1297
     14 C14         1.3125    7.3829    0.0308 C.3       1 <0>         0.1154
     15 N1          1.2685    5.9186    0.0228 N.am      1 <0>        -0.7169
     16 C15         0.0816    5.2801    0.0303 C.2       1 <0>         0.5767
     17 O1         -0.9520    5.9189    0.0436 O.2       1 <0>        -0.5288
     18 C16         0.0371    3.7991    0.0222 C.ar      1 <0>         0.0669
     19 C17        -1.1929    3.1450    0.0304 C.ar      1 <0>        -0.1084
     20 C18        -1.2185    1.7594    0.0174 C.ar      1 <0>        -0.0789
     21 C19        -0.0126    1.0758    0.0080 C.ar      1 <0>        -0.1423
     22 C20         1.1738    1.7916    0.0005 C.ar      1 <0>         0.0989
     23 N2          1.1693    3.1068    0.0076 N.ar      1 <0>        -0.4632
     24 H1          2.5227   14.7321   -6.2953 H         1 <0>         0.1359
     25 H2          0.8167   14.6752   -4.5207 H         1 <0>         0.1361
     26 H3          1.4416   14.0126   -2.2330 H         1 <0>         0.1309
     27 H4          5.4808   13.4748   -3.4920 H         1 <0>         0.1308
     28 H5          4.8538   14.1273   -5.7821 H         1 <0>         0.1360
     29 H6          3.2330   13.7999   -0.6081 H         1 <0>         0.1362
     30 H7          4.9179   13.5715   -1.1345 H         1 <0>         0.1346
     31 H8          3.7445   11.7845    0.9240 H         1 <0>         0.1311
     32 H9          5.3486   11.7108    0.1567 H         1 <0>         0.1292
     33 H10         4.6882    9.5029    1.0888 H         1 <0>         0.1140
     34 H11         4.8497    9.4362   -0.6833 H         1 <0>         0.0892
     35 H12         2.2436    9.7557    0.8760 H         1 <0>         0.0943
     36 H13         2.7646    9.5067   -2.1232 H         1 <0>         0.0892
     37 H14         1.1688    9.6219   -1.3415 H         1 <0>         0.1145
     38 H15         1.7605   11.8516   -0.4460 H         1 <0>         0.1304
     39 H16         1.9076   11.8272   -2.2195 H         1 <0>         0.1292
     40 H17         3.2806    7.4657    0.9029 H         1 <0>         0.0837
     41 H18         3.2639    7.4759   -0.8770 H         1 <0>         0.0786
     42 H19         0.8015    7.7666   -0.8523 H         1 <0>         0.0701
     43 H20         0.8182    7.7564    0.9276 H         1 <0>         0.0720
     44 H21         2.0935    5.4087    0.0122 H         1 <0>         0.4134
     45 H22        -2.1134    3.7097    0.0420 H         1 <0>         0.1493
     46 H23        -2.1567    1.2243    0.0185 H         1 <0>         0.1467
     47 H24         0.0021   -0.0041    0.0020 H         1 <0>         0.1456
     48 H25         2.1151    1.2623   -0.0118 H         1 <0>         0.1665
     49 N3          3.7454   11.8269   -1.1982 N.4       1 <0>        -0.3923
     50 H26         4.2598   11.3780   -1.9650 H         1 <0>         0.4254
@<TRIPOS>BOND
     1    1    6 ar
     2    1    2 ar
     3    1   24 1
     4    2    3 ar
     5    2   25 1
     6    3    4 ar
     7    3   26 1
     8    4    5 ar
     9    4    7 1
    10    5    6 ar
    11    5   27 1
    12    6   28 1
    13    7   29 1
    14    7   30 1
    15    7   49 1
    16    8    9 1
    17    8   31 1
    18    8   32 1
    19    8   49 1
    20    9   10 1
    21    9   33 1
    22    9   34 1
    23   10   11 1
    24   10   13 1
    25   10   35 1
    26   11   12 1
    27   11   36 1
    28   11   37 1
    29   12   38 1
    30   12   39 1
    31   12   49 1
    32   13   14 1
    33   13   40 1
    34   13   41 1
    35   14   15 1
    36   14   42 1
    37   14   43 1
    38   15   16 am
    39   15   44 1
    40   16   17 2
    41   16   18 1
    42   18   23 ar
    43   18   19 ar
    44   19   20 ar
    45   19   45 1
    46   20   21 ar
    47   20   46 1
    48   21   22 ar
    49   21   47 1
    50   22   23 ar
    51   22   48 1
    52   49   50 1
@<TRIPOS>MOLECULE
ZINC03814270
   50    52     0     0     0
SMALL
USER_CHARGES

@<TRIPOS>ATOM
      1 C1         -9.2269   -1.3336   -5.3104 C.ar      1 <0>        -0.0839
      2 C2         -8.6803   -2.1403   -4.3300 C.ar      1 <0>        -0.1135
      3 C3         -8.5485   -1.6657   -3.0384 C.ar      1 <0>        -0.0968
      4 C4         -8.9637   -0.3844   -2.7271 C.ar      1 <0>        -0.1634
      5 C5         -9.5156    0.4203   -3.7063 C.ar      1 <0>        -0.0946
      6 C6         -9.6421   -0.0523   -4.9991 C.ar      1 <0>        -0.1132
      7 C7         -8.8205    0.1329   -1.3189 C.3       1 <0>         0.0488
      8 C8         -7.4284    1.5049    0.1094 C.3       1 <0>        -0.0016
      9 C9         -6.1148    2.2876    0.1693 C.3       1 <0>        -0.1426
     10 C10        -4.9401    1.3150    0.0326 C.3       1 <0>        -0.0959
     11 C11        -5.0775    0.5425   -1.2823 C.3       1 <0>        -0.1475
     12 C12        -6.4213   -0.1896   -1.3000 C.3       1 <0>        -0.0066
     13 C13        -3.6256    2.0979    0.0306 C.3       1 <0>        -0.1307
     14 C14        -2.4493    1.1196    0.0198 C.3       1 <0>         0.1170
     15 N1         -1.1906    1.8693    0.0179 N.am      1 <0>        -0.7308
     16 C15        -0.0144    1.2113    0.0087 C.2       1 <0>         0.5689
     17 O1          0.0021   -0.0041    0.0020 O.2       1 <0>        -0.5287
     18 C16         1.2557    1.9679    0.0006 C.ar      1 <0>        -0.1981
     19 C17         2.4844    1.2963   -0.0089 C.ar      1 <0>        -0.0139
     20 C18         3.6440    2.0509   -0.0218 C.ar      1 <0>        -0.1750
     21 C19         3.5536    3.4314   -0.0140 C.ar      1 <0>         0.1294
     22 N2          2.3817    4.0371    0.0005 N.ar      1 <0>        -0.4861
     23 C20         1.2504    3.3631    0.0082 C.ar      1 <0>         0.1350
     24 H1         -9.3292   -1.7041   -6.3197 H         1 <0>         0.1360
     25 H2         -8.3559   -3.1413   -4.5731 H         1 <0>         0.1362
     26 H3         -8.1215   -2.2960   -2.2724 H         1 <0>         0.1308
     27 H4         -9.8440    1.4198   -3.4621 H         1 <0>         0.1309
     28 H5        -10.0688    0.5781   -5.7652 H         1 <0>         0.1361
     29 H6         -8.8964   -0.6978   -0.6172 H         1 <0>         0.1362
     30 H7         -9.6115    0.8545   -1.1147 H         1 <0>         0.1348
     31 H8         -7.4638    0.7912    0.9325 H         1 <0>         0.1311
     32 H9         -8.2672    2.1961    0.1921 H         1 <0>         0.1295
     33 H10        -6.0456    2.8101    1.1234 H         1 <0>         0.1140
     34 H11        -6.0848    3.0111   -0.6454 H         1 <0>         0.0892
     35 H12        -4.9466    0.6162    0.8691 H         1 <0>         0.0945
     36 H13        -5.0313    1.2386   -2.1198 H         1 <0>         0.0892
     37 H14        -4.2673   -0.1819   -1.3652 H         1 <0>         0.1144
     38 H15        -6.4613   -0.8954   -0.4703 H         1 <0>         0.1305
     39 H16        -6.5285   -0.7291   -2.2410 H         1 <0>         0.1293
     40 H17        -3.5721    2.7205    0.9238 H         1 <0>         0.0838
     41 H18        -3.5806    2.7301   -0.8561 H         1 <0>         0.0787
     42 H19        -2.5027    0.4971   -0.8734 H         1 <0>         0.0708
     43 H20        -2.4943    0.4874    0.9065 H         1 <0>         0.0727
     44 H21        -1.2038    2.8392    0.0232 H         1 <0>         0.4024
     45 H22         2.5257    0.2171   -0.0101 H         1 <0>         0.1492
     46 H23         4.6096    1.5673   -0.0337 H         1 <0>         0.1484
     47 H24         4.4572    4.0229   -0.0195 H         1 <0>         0.1667
     48 H25         0.3105    3.8948    0.0200 H         1 <0>         0.1552
     49 N3         -7.5105    0.8038   -1.1897 N.4       1 <0>        -0.3923
     50 H26        -7.4120    1.4913   -1.9459 H         1 <0>         0.4255
@<TRIPOS>BOND
     1    1    6 ar
     2    1    2 ar
     3    1   24 1
     4    2    3 ar
     5    2   25 1
     6    3    4 ar
     7    3   26 1
     8    4    5 ar
     9    4    7 1
    10    5    6 ar
    11    5   27 1
    12    6   28 1
    13    7   29 1
    14    7   30 1
    15    7   49 1
    16    8    9 1
    17    8   31 1
    18    8   32 1
    19    8   49 1
    20    9   10 1
    21    9   33 1
    22    9   34 1
    23   10   11 1
    24   10   13 1
    25   10   35 1
    26   11   12 1
    27   11   36 1
    28   11   37 1
    29   12   38 1
    30   12   39 1
    31   12   49 1
    32   13   14 1
    33   13   40 1
    34   13   41 1
    35   14   15 1
    36   14   42 1
    37   14   43 1
    38   15   16 am
    39   15   44 1
    40   16   17 2
    41   16   18 1
    42   18   23 ar
    43   18   19 ar
    44   19   20 ar
    45   19   45 1
    46   20   21 ar
    47   20   46 1
    48   21   22 ar
    49   21   47 1
    50   22   23 ar
    51   23   48 1
    52   49   50 1
@<TRIPOS>MOLECULE
ZINC03814271
   50    52     0     0     0
SMALL
USER_CHARGES

@<TRIPOS>ATOM
      1 C1          8.9129   10.9556    5.3204 C.ar      1 <0>        -0.0838
      2 C2          9.3717   10.1142    4.3242 C.ar      1 <0>        -0.1134
      3 C3          8.8729   10.2271    3.0400 C.ar      1 <0>        -0.0969
      4 C4          7.9156   11.1818    2.7517 C.ar      1 <0>        -0.1636
      5 C5          7.4610   12.0270    3.7466 C.ar      1 <0>        -0.0947
      6 C6          7.9556   11.9103    5.0322 C.ar      1 <0>        -0.1131
      7 C7          7.3722   11.3052    1.3516 C.3       1 <0>         0.0489
      8 C8          5.5004   10.7035   -0.0608 C.3       1 <0>        -0.0016
      9 C9          4.2062    9.8884   -0.1141 C.3       1 <0>        -0.1425
     10 C10         4.5418    8.3989    0.0009 C.3       1 <0>        -0.0960
     11 C11         5.3089    8.1557    1.3036 C.3       1 <0>        -0.1475
     12 C12         6.5711    9.0210    1.3158 C.3       1 <0>        -0.0065
     13 C13         3.2479    7.5824    0.0094 C.3       1 <0>        -0.1302
     14 C14         3.5863    6.0903   -0.0014 C.3       1 <0>         0.1162
     15 N1          2.3474    5.3085    0.0067 N.am      1 <0>        -0.7284
     16 C15         2.4003    3.9618   -0.0006 C.2       1 <0>         0.5628
     17 O1          3.4756    3.3961   -0.0139 O.2       1 <0>        -0.5225
     18 C16         1.1474    3.1712    0.0077 C.ar      1 <0>        -0.0950
     19 C17         1.1798    1.7735    0.0003 C.ar      1 <0>        -0.1141
     20 C18        -0.0126    1.0758    0.0080 C.ar      1 <0>         0.1035
     21 N2         -1.1679    1.7103    0.0169 N.ar      1 <0>        -0.4638
     22 C19        -1.2432    3.0262    0.0293 C.ar      1 <0>         0.1003
     23 C20        -0.1002    3.8022    0.0225 C.ar      1 <0>        -0.1451
     24 H1          9.3020   10.8669    6.3239 H         1 <0>         0.1361
     25 H2         10.1196    9.3683    4.5494 H         1 <0>         0.1363
     26 H3          9.2313    9.5697    2.2617 H         1 <0>         0.1308
     27 H4          6.7163   12.7758    3.5204 H         1 <0>         0.1308
     28 H5          7.5969   12.5675    5.8105 H         1 <0>         0.1362
     29 H6          8.1381   11.0044    0.6367 H         1 <0>         0.1363
     30 H7          7.0854   12.3397    1.1630 H         1 <0>         0.1348
     31 H8          6.1422   10.4210   -0.8953 H         1 <0>         0.1312
     32 H9          5.2638   11.7654   -0.1281 H         1 <0>         0.1296
     33 H10         3.6974   10.0748   -1.0599 H         1 <0>         0.1139
     34 H11         3.5580   10.1803    0.7122 H         1 <0>         0.0892
     35 H12         5.1571    8.0976   -0.8469 H         1 <0>         0.0947
     36 H13         4.6780    8.4203    2.1522 H         1 <0>         0.0892
     37 H14         5.5879    7.1042    1.3707 H         1 <0>         0.1143
     38 H15         7.2079    8.7464    0.4749 H         1 <0>         0.1306
     39 H16         7.1122    8.8609    2.2484 H         1 <0>         0.1295
     40 H17         2.6578    7.8275   -0.8737 H         1 <0>         0.0836
     41 H18         2.6751    7.8186    0.9062 H         1 <0>         0.0785
     42 H19         4.1764    5.8452    0.8817 H         1 <0>         0.0715
     43 H20         4.1591    5.8542   -0.8982 H         1 <0>         0.0733
     44 H21         1.4890    5.7601    0.0174 H         1 <0>         0.4032
     45 H22         2.1228    1.2471   -0.0115 H         1 <0>         0.1502
     46 H23         0.0021   -0.0041    0.0020 H         1 <0>         0.1683
     47 H24        -2.2115    3.5043    0.0408 H         1 <0>         0.1651
     48 H25        -0.1694    4.8799    0.0282 H         1 <0>         0.1367
     49 N3          6.1784   10.4436    1.2269 N.4       1 <0>        -0.3923
     50 H26         5.5304   10.6588    1.9937 H         1 <0>         0.4254
@<TRIPOS>BOND
     1    1    6 ar
     2    1    2 ar
     3    1   24 1
     4    2    3 ar
     5    2   25 1
     6    3    4 ar
     7    3   26 1
     8    4    5 ar
     9    4    7 1
    10    5    6 ar
    11    5   27 1
    12    6   28 1
    13    7   29 1
    14    7   30 1
    15    7   49 1
    16    8    9 1
    17    8   31 1
    18    8   32 1
    19    8   49 1
    20    9   10 1
    21    9   33 1
    22    9   34 1
    23   10   11 1
    24   10   13 1
    25   10   35 1
    26   11   12 1
    27   11   36 1
    28   11   37 1
    29   12   38 1
    30   12   39 1
    31   12   49 1
    32   13   14 1
    33   13   40 1
    34   13   41 1
    35   14   15 1
    36   14   42 1
    37   14   43 1
    38   15   16 am
    39   15   44 1
    40   16   17 2
    41   16   18 1
    42   18   23 ar
    43   18   19 ar
    44   19   20 ar
    45   19   45 1
    46   20   21 ar
    47   20   46 1
    48   21   22 ar
    49   22   23 ar
    50   22   47 1
    51   23   48 1
    52   49   50 1
@<TRIPOS>MOLECULE
ZINC03814272
   52    54     0     0     0
SMALL
USER_CHARGES

@<TRIPOS>ATOM
      1 C1          3.3417   -3.3244    4.3018 C.ar      1 <0>        -0.0846
      2 C2          2.0388   -3.0012    4.6315 C.ar      1 <0>        -0.1134
      3 C3          1.1680   -2.5577    3.6537 C.ar      1 <0>        -0.0950
      4 C4          1.6001   -2.4380    2.3461 C.ar      1 <0>        -0.1605
      5 C5          2.9015   -2.7667    2.0153 C.ar      1 <0>        -0.0962
      6 C6          3.7738   -3.2047    2.9941 C.ar      1 <0>        -0.1140
      7 C7          0.6507   -1.9551    1.2800 C.3       1 <0>         0.0483
      8 C8          0.0021   -0.0041    0.0020 C.3       1 <0>        -0.0008
      9 C9         -0.0187    1.5261    0.0104 C.3       1 <0>        -0.1433
     10 C10         1.4196    2.0513   -0.0005 C.3       1 <0>        -0.0999
     11 C11         2.1687    1.4902    1.2114 C.3       1 <0>        -0.1450
     12 C12         2.1260   -0.0390    1.1681 C.3       1 <0>        -0.0071
     13 C13         1.4064    3.5796    0.0693 C.3       1 <0>        -0.1169
     14 C14         2.8355    4.1088   -0.0671 C.3       1 <0>        -0.1156
     15 C15         2.8223    5.6371    0.0026 C.3       1 <0>        -0.1588
     16 C16         4.2300    6.1583   -0.1317 C.2       1 <0>         0.3970
     17 O1          5.1526    5.3837   -0.2697 O.2       1 <0>        -0.4527
     18 C17         4.4847    7.6073   -0.0955 C.ar      1 <0>        -0.1802
     19 C18         3.4226    8.5041    0.0576 C.ar      1 <0>        -0.0742
     20 C19         3.6701    9.8600    0.0963 C.ar      1 <0>        -0.1326
     21 C20         4.9642   10.3347   -0.0279 C.ar      1 <0>        -0.0825
     22 C21         6.0201    9.4538   -0.1855 C.ar      1 <0>        -0.1309
     23 C22         5.7896    8.0948   -0.2199 C.ar      1 <0>        -0.0604
     24 H1          4.0222   -3.6702    5.0658 H         1 <0>         0.1358
     25 H2          1.7012   -3.0947    5.6531 H         1 <0>         0.1358
     26 H3          0.1501   -2.3052    3.9113 H         1 <0>         0.1305
     27 H4          3.2378   -2.6774    0.9929 H         1 <0>         0.1303
     28 H5          4.7919   -3.4569    2.7366 H         1 <0>         0.1361
     29 H6         -0.3666   -2.2477    1.5398 H         1 <0>         0.1337
     30 H7          0.9232   -2.3991    0.3226 H         1 <0>         0.1356
     31 H8         -1.0203   -0.3813    0.0242 H         1 <0>         0.1285
     32 H9          0.4992   -0.3556   -0.9021 H         1 <0>         0.1297
     33 H10        -0.5449    1.8878   -0.8730 H         1 <0>         0.1122
     34 H11        -0.5279    1.8782    0.9076 H         1 <0>         0.0880
     35 H12         1.9171    1.7318   -0.9162 H         1 <0>         0.0899
     36 H13         1.6939    1.8417    2.1274 H         1 <0>         0.0870
     37 H14         3.2053    1.8262    1.1860 H         1 <0>         0.1135
     38 H15         2.6463   -0.4415    2.0373 H         1 <0>         0.1308
     39 H16         2.6132   -0.3903    0.2586 H         1 <0>         0.1278
     40 H17         0.7937    3.9751   -0.7409 H         1 <0>         0.0755
     41 H18         0.9916    3.8961    1.0263 H         1 <0>         0.0709
     42 H19         3.4482    3.7133    0.7430 H         1 <0>         0.0713
     43 H20         3.2503    3.7923   -1.0241 H         1 <0>         0.0726
     44 H21         2.2602    5.9998   -0.7407 H         1 <0>         0.0917
     45 H22         2.4075    5.9536    0.9596 H         1 <0>         0.1005
     46 H23         2.4117    8.1353    0.1501 H         1 <0>         0.1302
     47 H24         2.8515   10.5536    0.2193 H         1 <0>         0.1316
     48 H25         5.1512   11.3980   -0.0014 H         1 <0>         0.1309
     49 H26         7.0272    9.8319   -0.2814 H         1 <0>         0.1322
     50 H27         6.6145    7.4087   -0.3429 H         1 <0>         0.1335
     51 N1          0.7156   -0.4809    1.2057 N.4       1 <0>        -0.3916
     52 H28         0.2646   -0.0849    2.0388 H         1 <0>         0.4250
@<TRIPOS>BOND
     1    1    6 ar
     2    1    2 ar
     3    1   24 1
     4    2    3 ar
     5    2   25 1
     6    3    4 ar
     7    3   26 1
     8    4    5 ar
     9    4    7 1
    10    5    6 ar
    11    5   27 1
    12    6   28 1
    13    7   29 1
    14    7   30 1
    15    7   51 1
    16    8    9 1
    17    8   31 1
    18    8   32 1
    19    8   51 1
    20    9   10 1
    21    9   33 1
    22    9   34 1
    23   10   11 1
    24   10   13 1
    25   10   35 1
    26   11   12 1
    27   11   36 1
    28   11   37 1
    29   12   38 1
    30   12   39 1
    31   12   51 1
    32   13   14 1
    33   13   40 1
    34   13   41 1
    35   14   15 1
    36   14   42 1
    37   14   43 1
    38   15   16 1
    39   15   44 1
    40   15   45 1
    41   16   17 2
    42   16   18 1
    43   18   23 ar
    44   18   19 ar
    45   19   20 ar
    46   19   46 1
    47   20   21 ar
    48   20   47 1
    49   21   22 ar
    50   21   48 1
    51   22   23 ar
    52   22   49 1
    53   23   50 1
    54   51   52 1
@<TRIPOS>MOLECULE
ZINC03814273
   56    59     0     0     0
SMALL
USER_CHARGES

@<TRIPOS>ATOM
      1 C1          4.7610    1.3608   -0.0363 C.3       1 <0>         0.0216
      2 O1          3.5512    2.1213   -0.0211 O.3       1 <0>        -0.2946
      3 C2          2.3855    1.4250   -0.0136 C.ar      1 <0>         0.1480
      4 C3          2.4063    0.0370   -0.0208 C.ar      1 <0>        -0.1759
      5 C4          1.2255   -0.6755   -0.0133 C.ar      1 <0>        -0.0480
      6 C5          0.0021   -0.0041    0.0020 C.ar      1 <0>        -0.1868
      7 C6         -0.0169    1.3977    0.0097 C.ar      1 <0>        -0.1038
      8 C7          1.1679    2.1045    0.0022 C.ar      1 <0>         0.0929
      9 O2          1.1483    3.4643    0.0097 O.3       1 <0>        -0.3005
     10 C8         -0.1341    4.0946    0.0254 C.3       1 <0>         0.0218
     11 C9         -1.1060   -0.9788    0.0079 C.2       1 <0>         0.4314
     12 O3         -2.2917   -0.7066    0.0212 O.2       1 <0>        -0.4342
     13 C10        -0.5361   -2.3349   -0.0045 C.2       1 <0>        -0.1729
     14 C11        -1.2083   -3.4844   -0.0042 C.2       1 <0>        -0.0712
     15 C12        -0.4622   -4.7936   -0.0186 C.3       1 <0>        -0.0748
     16 C13        -0.8503   -5.5901   -1.2674 C.3       1 <0>        -0.1392
     17 C14        -0.1376   -6.9442   -1.2447 C.3       1 <0>        -0.0065
     18 C15        -0.1127   -6.9567    1.1784 C.3       1 <0>         0.0002
     19 C16        -0.8259   -5.6036    1.2288 C.3       1 <0>        -0.1412
     20 C17         0.0382   -9.0399   -0.0456 C.3       1 <0>         0.0486
     21 C18        -0.1891   -9.6633   -1.3987 C.ar      1 <0>        -0.1616
     22 C19        -1.3410  -10.3881   -1.6410 C.ar      1 <0>        -0.0943
     23 C20        -1.5515  -10.9562   -2.8835 C.ar      1 <0>        -0.1130
     24 C21        -0.6059  -10.8073   -3.8808 C.ar      1 <0>        -0.0841
     25 C22         0.5485  -10.0870   -3.6368 C.ar      1 <0>        -0.1142
     26 C23         0.7570   -9.5151   -2.3957 C.ar      1 <0>        -0.0968
     27 C24         0.9646   -2.1622   -0.0183 C.3       1 <0>        -0.0448
     28 H1          4.8035    0.7280    0.8502 H         1 <0>         0.0594
     29 H2          4.7868    0.7369   -0.9297 H         1 <0>         0.0594
     30 H3          5.6155    2.0375   -0.0409 H         1 <0>         0.1083
     31 H4          3.3506   -0.4868   -0.0327 H         1 <0>         0.1442
     32 H5         -0.9596    1.9247    0.0171 H         1 <0>         0.1453
     33 H6         -0.0068    5.1771    0.0301 H         1 <0>         0.1081
     34 H7         -0.6953    3.7985   -0.8608 H         1 <0>         0.0583
     35 H8         -0.6782    3.7889    0.9190 H         1 <0>         0.0583
     36 H9         -2.2882   -3.4784    0.0064 H         1 <0>         0.1369
     37 H10         0.6107   -4.6013   -0.0281 H         1 <0>         0.0997
     38 H11        -1.9288   -5.7476   -1.2779 H         1 <0>         0.0923
     39 H12        -0.5541   -5.0367   -2.1586 H         1 <0>         0.1144
     40 H13         0.9408   -6.7861   -1.2493 H         1 <0>         0.1296
     41 H14        -0.4238   -7.5201   -2.1249 H         1 <0>         0.1342
     42 H15         0.9656   -6.7985    1.1624 H         1 <0>         0.1316
     43 H16        -0.3810   -7.5417    2.0581 H         1 <0>         0.1322
     44 H17        -0.5122   -5.0599    2.1200 H         1 <0>         0.1161
     45 H18        -1.9040   -5.7614    1.2587 H         1 <0>         0.0936
     46 H19         1.1079   -8.9959    0.1591 H         1 <0>         0.1363
     47 H20        -0.4537   -9.6414    0.7188 H         1 <0>         0.1347
     48 H21        -2.0780  -10.5076   -0.8607 H         1 <0>         0.1310
     49 H22        -2.4535  -11.5188   -3.0743 H         1 <0>         0.1361
     50 H23        -0.7691  -11.2535   -4.8507 H         1 <0>         0.1359
     51 H24         1.2872   -9.9706   -4.4159 H         1 <0>         0.1361
     52 H25         1.6588   -8.9523   -2.2050 H         1 <0>         0.1303
     53 H26         1.4017   -2.6213    0.8684 H         1 <0>         0.0993
     54 H27         1.3843   -2.6130   -0.9176 H         1 <0>         0.0992
     55 N1         -0.5488   -7.6840   -0.0327 N.4       1 <0>        -0.3931
     56 H28        -1.5724   -7.7640   -0.0227 H         1 <0>         0.4266
@<TRIPOS>BOND
     1    1    2 1
     2    1   28 1
     3    1   29 1
     4    1   30 1
     5    2    3 1
     6    3    8 ar
     7    3    4 ar
     8    4    5 ar
     9    4   31 1
    10    5   27 1
    11    5    6 ar
    12    6    7 ar
    13    6   11 1
    14    7    8 ar
    15    7   32 1
    16    8    9 1
    17    9   10 1
    18   10   33 1
    19   10   34 1
    20   10   35 1
    21   11   12 2
    22   11   13 1
    23   13   14 2
    24   13   27 1
    25   14   15 1
    26   14   36 1
    27   15   19 1
    28   15   16 1
    29   15   37 1
    30   16   17 1
    31   16   38 1
    32   16   39 1
    33   17   40 1
    34   17   41 1
    35   17   55 1
    36   18   19 1
    37   18   42 1
    38   18   43 1
    39   18   55 1
    40   19   44 1
    41   19   45 1
    42   20   21 1
    43   20   46 1
    44   20   47 1
    45   20   55 1
    46   21   26 ar
    47   21   22 ar
    48   22   23 ar
    49   22   48 1
    50   23   24 ar
    51   23   49 1
    52   24   25 ar
    53   24   50 1
    54   25   26 ar
    55   25   51 1
    56   26   52 1
    57   27   53 1
    58   27   54 1
    59   55   56 1
@<TRIPOS>MOLECULE
ZINC03814274
   54    57     0     0     0
SMALL
USER_CHARGES

@<TRIPOS>ATOM
      1 C1          8.0744   -2.9711    0.5095 C.3       1 <0>         0.0239
      2 O1          6.6478   -3.0536    0.5093 O.3       1 <0>        -0.3135
      3 C2          5.9626   -1.8941    0.6921 C.ar      1 <0>         0.1179
      4 C3          6.6517   -0.7012    0.8681 C.ar      1 <0>        -0.1633
      5 C4          5.9585    0.4796    1.0538 C.ar      1 <0>        -0.0782
      6 C5          4.5760    0.4851    1.0666 C.ar      1 <0>        -0.0860
      7 C6          3.8724   -0.7064    0.8915 C.ar      1 <0>        -0.1620
      8 C7          4.5806   -1.9030    0.7033 C.ar      1 <0>        -0.0829
      9 C8          2.4208   -0.4644    0.9414 C.2       1 <0>         0.4142
     10 O2          1.5546   -1.3043    0.8213 O.2       1 <0>        -0.4383
     11 C9          2.1988    1.0113    1.1682 C.3       1 <0>        -0.1294
     12 H1          1.6835    1.1446    2.0148 H         1 <0>         0.1035
     13 C10         3.6031    1.6254    1.2491 C.3       1 <0>        -0.0758
     14 C11         1.4222    1.6167   -0.0028 C.3       1 <0>        -0.1008
     15 C12        -0.0127    1.0858    0.0080 C.3       1 <0>        -0.1153
     16 C13        -0.7320    1.5809    1.2658 C.3       1 <0>        -0.1416
     17 C14        -2.1847    1.0962    1.2393 C.3       1 <0>        -0.0063
     18 C15        -2.2065    1.1092   -1.1838 C.3       1 <0>        -0.0015
     19 C16        -0.7558    1.5943   -1.2305 C.3       1 <0>        -0.1409
     20 C17        -4.2838    1.2801    0.0475 C.3       1 <0>         0.0483
     21 C18        -4.9590    2.0117    1.1787 C.ar      1 <0>        -0.1620
     22 C19        -5.0552    1.4204    2.4245 C.ar      1 <0>        -0.0965
     23 C20        -5.6698    2.0937    3.4636 C.ar      1 <0>        -0.1137
     24 C21        -6.1981    3.3539    3.2541 C.ar      1 <0>        -0.0846
     25 C22        -6.1070    3.9429    2.0068 C.ar      1 <0>        -0.1133
     26 C23        -5.4873    3.2719    0.9692 C.ar      1 <0>        -0.0948
     27 H2          8.4958   -3.9643    0.3543 H         1 <0>         0.1069
     28 H3          8.4001   -2.3088   -0.2926 H         1 <0>         0.0592
     29 H4          8.4154   -2.5772    1.4669 H         1 <0>         0.0594
     30 H5          7.7316   -0.6964    0.8595 H         1 <0>         0.1404
     31 H6          6.5001    1.4040    1.1901 H         1 <0>         0.1352
     32 H7          4.0456   -2.8312    0.5667 H         1 <0>         0.1381
     33 H8          3.7360    2.3614    0.4562 H         1 <0>         0.0951
     34 H9          3.7519    2.0923    2.2227 H         1 <0>         0.0945
     35 H10         1.9047    1.3404   -0.9404 H         1 <0>         0.0807
     36 H11         1.4087    2.7024    0.0927 H         1 <0>         0.0862
     37 H12         0.0021   -0.0041    0.0020 H         1 <0>         0.1065
     38 H13        -0.2313    1.1868    2.1502 H         1 <0>         0.1102
     39 H14        -0.7125    2.6704    1.2911 H         1 <0>         0.0880
     40 H15        -2.7046    1.4590    2.1260 H         1 <0>         0.1284
     41 H16        -2.2034    0.0064    1.2278 H         1 <0>         0.1307
     42 H17        -2.7422    1.4815   -2.0571 H         1 <0>         0.1289
     43 H18        -2.2252    0.0194   -1.1839 H         1 <0>         0.1311
     44 H19        -0.7367    2.6840   -1.2444 H         1 <0>         0.0882
     45 H20        -0.2718    1.2103   -2.1284 H         1 <0>         0.1121
     46 H21        -4.7332    1.5805   -0.8991 H         1 <0>         0.1346
     47 H22        -4.4083    0.2058    0.1840 H         1 <0>         0.1361
     48 H23        -4.6464    0.4340    2.5871 H         1 <0>         0.1309
     49 H24        -5.7407    1.6337    4.4382 H         1 <0>         0.1359
     50 H25        -6.6816    3.8784    4.0649 H         1 <0>         0.1356
     51 H26        -6.5197    4.9274    1.8431 H         1 <0>         0.1359
     52 H27        -5.4161    3.7320   -0.0053 H         1 <0>         0.1308
     53 N1         -2.8508    1.6396    0.0364 N.4       1 <0>        -0.3911
     54 H28        -2.7637    2.6627    0.0411 H         1 <0>         0.4246
@<TRIPOS>BOND
     1    1    2 1
     2    1   27 1
     3    1   28 1
     4    1   29 1
     5    2    3 1
     6    3    8 ar
     7    3    4 ar
     8    4    5 ar
     9    4   30 1
    10    5    6 ar
    11    5   31 1
    12    6   13 1
    13    6    7 ar
    14    7    8 ar
    15    7    9 1
    16    8   32 1
    17    9   10 2
    18    9   11 1
    19   11   12 1
    20   11   13 1
    21   11   14 1
    22   13   33 1
    23   13   34 1
    24   14   15 1
    25   14   35 1
    26   14   36 1
    27   15   19 1
    28   15   16 1
    29   15   37 1
    30   16   17 1
    31   16   38 1
    32   16   39 1
    33   17   40 1
    34   17   41 1
    35   17   53 1
    36   18   19 1
    37   18   42 1
    38   18   43 1
    39   18   53 1
    40   19   44 1
    41   19   45 1
    42   20   21 1
    43   20   46 1
    44   20   47 1
    45   20   53 1
    46   21   26 ar
    47   21   22 ar
    48   22   23 ar
    49   22   48 1
    50   23   24 ar
    51   23   49 1
    52   24   25 ar
    53   24   50 1
    54   25   26 ar
    55   25   51 1
    56   26   52 1
    57   53   54 1
@<TRIPOS>MOLECULE
ZINC03814275
   54    57     0     0     0
SMALL
USER_CHARGES

@<TRIPOS>ATOM
      1 C1         -7.7690    2.0367   -2.4975 C.3       1 <0>         0.0219
      2 O1         -7.1189    2.1750   -1.2325 O.3       1 <0>        -0.3073
      3 C2         -6.4354    3.3263   -1.0139 C.ar      1 <0>         0.1793
      4 C3         -6.3912    4.3060   -2.0000 C.ar      1 <0>        -0.2240
      5 C4         -5.7061    5.4659   -1.7862 C.ar      1 <0>        -0.0019
      6 C5         -5.0392    5.6804   -0.5675 C.ar      1 <0>        -0.2451
      7 C6         -5.0848    4.6953    0.4216 C.ar      1 <0>        -0.0050
      8 C7         -5.7847    3.5281    0.1975 C.ar      1 <0>        -0.1592
      9 C8         -4.3005    5.1530    1.6278 C.3       1 <0>        -0.0837
     10 C9         -3.7541    6.5451    1.2822 C.3       1 <0>        -0.1313
     11 H1         -4.0969    7.2115    1.9443 H         1 <0>         0.1034
     12 C10        -4.2483    6.8329   -0.1146 C.2       1 <0>         0.4189
     13 O2         -4.0303    7.8411   -0.7527 O.2       1 <0>        -0.4490
     14 C11        -2.2244    6.5365    1.3120 C.3       1 <0>        -0.1008
     15 C12        -1.7024    7.9607    1.1123 C.3       1 <0>        -0.1139
     16 C13        -0.1751    7.9358    1.0061 C.3       1 <0>        -0.1391
     17 C14         0.3453    9.3685    0.8692 C.3       1 <0>        -0.0065
     18 C15        -1.5339   10.2341    2.1308 C.3       1 <0>        -0.0005
     19 C16        -2.1103    8.8274    2.3069 C.3       1 <0>        -0.1436
     20 C17         0.5268   11.4983    2.0056 C.3       1 <0>         0.0481
     21 C18         1.9904   11.3888    1.6638 C.ar      1 <0>        -0.1598
     22 C19         2.9272   11.2530    2.6713 C.ar      1 <0>        -0.0948
     23 C20         4.2693   11.1472    2.3575 C.ar      1 <0>        -0.1136
     24 C21         4.6756   11.1882    1.0368 C.ar      1 <0>        -0.0850
     25 C22         3.7394   11.3298    0.0297 C.ar      1 <0>        -0.1142
     26 C23         2.3968   11.4298    0.3432 C.ar      1 <0>        -0.0964
     27 H2         -8.4976    2.8378   -2.6210 H         1 <0>         0.0621
     28 H3         -7.0280    2.0933   -3.2949 H         1 <0>         0.0618
     29 H4         -8.2771    1.0734   -2.5414 H         1 <0>         0.1090
     30 H5         -6.9017    4.1479   -2.9386 H         1 <0>         0.1398
     31 H6         -5.6756    6.2223   -2.5564 H         1 <0>         0.1326
     32 H7         -5.8241    2.7678    0.9636 H         1 <0>         0.1404
     33 H8         -4.9535    5.2124    2.4986 H         1 <0>         0.0988
     34 H9         -3.4782    4.4647    1.8231 H         1 <0>         0.0990
     35 H10        -1.8819    6.1555    2.2741 H         1 <0>         0.0850
     36 H11        -1.8491    5.8966    0.5134 H         1 <0>         0.0798
     37 H12        -2.1244    8.3785    0.1982 H         1 <0>         0.1065
     38 H13         0.2447    7.4812    1.9034 H         1 <0>         0.0869
     39 H14         0.1194    7.3555    0.1316 H         1 <0>         0.1100
     40 H15        -0.0632    9.8173   -0.0363 H         1 <0>         0.1284
     41 H16         1.4335    9.3552    0.8089 H         1 <0>         0.1311
     42 H17        -1.9336   10.6789    1.2194 H         1 <0>         0.1311
     43 H18        -1.8106   10.8497    2.9867 H         1 <0>         0.1288
     44 H19        -3.1975    8.8838    2.3612 H         1 <0>         0.1113
     45 H20        -1.7224    8.3869    3.2254 H         1 <0>         0.0888
     46 H21         0.0221   12.1035    1.2526 H         1 <0>         0.1358
     47 H22         0.4161   11.9678    2.9831 H         1 <0>         0.1339
     48 H23         2.6101   11.2254    3.7033 H         1 <0>         0.1306
     49 H24         5.0007   11.0363    3.1443 H         1 <0>         0.1357
     50 H25         5.7245   11.1094    0.7919 H         1 <0>         0.1355
     51 H26         4.0568   11.3619   -1.0021 H         1 <0>         0.1359
     52 H27         1.6653   11.5404   -0.4436 H         1 <0>         0.1305
     53 N1         -0.0600   10.1435    2.0613 N.4       1 <0>        -0.3908
     54 H28         0.2842    9.6654    2.9022 H         1 <0>         0.4246
@<TRIPOS>BOND
     1    1    2 1
     2    1   27 1
     3    1   28 1
     4    1   29 1
     5    2    3 1
     6    3    8 ar
     7    3    4 ar
     8    4    5 ar
     9    4   30 1
    10    5    6 ar
    11    5   31 1
    12    6   12 1
    13    6    7 ar
    14    7    8 ar
    15    7    9 1
    16    8   32 1
    17    9   10 1
    18    9   33 1
    19    9   34 1
    20   10   11 1
    21   10   12 1
    22   10   14 1
    23   12   13 2
    24   14   15 1
    25   14   35 1
    26   14   36 1
    27   15   19 1
    28   15   16 1
    29   15   37 1
    30   16   17 1
    31   16   38 1
    32   16   39 1
    33   17   40 1
    34   17   41 1
    35   17   53 1
    36   18   19 1
    37   18   42 1
    38   18   43 1
    39   18   53 1
    40   19   44 1
    41   19   45 1
    42   20   21 1
    43   20   46 1
    44   20   47 1
    45   20   53 1
    46   21   26 ar
    47   21   22 ar
    48   22   23 ar
    49   22   48 1
    50   23   24 ar
    51   23   49 1
    52   24   25 ar
    53   24   50 1
    54   25   26 ar
    55   25   51 1
    56   26   52 1
    57   53   54 1
@<TRIPOS>MOLECULE
ZINC03814276
   54    57     0     0     0
SMALL
USER_CHARGES

@<TRIPOS>ATOM
      1 C1         -3.8486    1.0514   -4.6288 C.3       1 <0>         0.0233
      2 O1         -2.9789    1.3790   -3.5432 O.3       1 <0>        -0.3160
      3 C2         -2.4049    0.3420   -2.8780 C.ar      1 <0>         0.1287
      4 C3         -2.6753   -0.9630   -3.2655 C.ar      1 <0>        -0.1679
      5 C4         -2.0933   -2.0217   -2.5928 C.ar      1 <0>        -0.0898
      6 C5         -1.2424   -1.7878   -1.5350 C.ar      1 <0>        -0.0841
      7 C6         -0.9616   -0.4728   -1.1327 C.ar      1 <0>        -0.1572
      8 C7         -1.5506    0.5913   -1.8145 C.ar      1 <0>        -0.0858
      9 C8         -1.0990    1.8964   -1.2043 C.3       1 <0>        -0.0692
     10 C9         -0.1524    1.5293   -0.0532 C.3       1 <0>        -0.1309
     11 H1          0.7464    1.9354   -0.2184 H         1 <0>         0.1041
     12 C10        -0.0973    0.0208   -0.0475 C.2       1 <0>         0.4123
     13 O2          0.5472   -0.6651    0.7170 O.2       1 <0>        -0.4273
     14 C11        -0.7089    2.0445    1.2756 C.3       1 <0>        -0.1034
     15 C12        -0.7194    3.5744    1.2652 C.3       1 <0>        -0.1014
     16 C13         0.7197    4.0958    1.2251 C.3       1 <0>        -0.1462
     17 C14         0.7046    5.6253    1.2780 C.3       1 <0>        -0.0069
     18 C15        -1.3606    5.6197    2.5458 C.3       1 <0>        -0.0001
     19 C16        -1.4071    4.0900    2.5324 C.3       1 <0>        -0.1436
     20 C17         0.1259    7.5270    2.6596 C.3       1 <0>         0.0486
     21 C18         1.5354    7.9768    2.3733 C.ar      1 <0>        -0.1606
     22 C19         2.4589    8.0519    3.3992 C.ar      1 <0>        -0.0945
     23 C20         3.7532    8.4594    3.1355 C.ar      1 <0>        -0.1132
     24 C21         4.1211    8.8024    1.8479 C.ar      1 <0>        -0.0845
     25 C22         3.1961    8.7328    0.8230 C.ar      1 <0>        -0.1143
     26 C23         1.9033    8.3198    1.0857 C.ar      1 <0>        -0.0966
     27 H2         -3.2945    0.4911   -5.3819 H         1 <0>         0.0595
     28 H3         -4.6764    0.4452   -4.2610 H         1 <0>         0.0592
     29 H4         -4.2381    1.9681   -5.0715 H         1 <0>         0.1050
     30 H5         -3.3414   -1.1519   -4.0944 H         1 <0>         0.1399
     31 H6         -2.3063   -3.0355   -2.8980 H         1 <0>         0.1387
     32 H7         -0.7902   -2.6186   -1.0137 H         1 <0>         0.1339
     33 H8         -1.9578    2.4477   -0.8215 H         1 <0>         0.0915
     34 H9         -0.5710    2.4949   -1.9467 H         1 <0>         0.0907
     35 H10        -1.7253    1.6751    1.4115 H         1 <0>         0.0822
     36 H11        -0.0814    1.6911    2.0938 H         1 <0>         0.0827
     37 H12        -1.2599    3.9290    0.3875 H         1 <0>         0.0957
     38 H13         1.2711    3.7084    2.0819 H         1 <0>         0.0898
     39 H14         1.2003    3.7673    0.3036 H         1 <0>         0.1121
     40 H15         0.1659    6.0123    0.4130 H         1 <0>         0.1286
     41 H16         1.7284    5.9991    1.2653 H         1 <0>         0.1317
     42 H17        -1.8896    6.0067    1.6749 H         1 <0>         0.1305
     43 H18        -1.8368    5.9895    3.4538 H         1 <0>         0.1295
     44 H19        -2.4450    3.7574    2.5442 H         1 <0>         0.1139
     45 H20        -0.8905    3.7020    3.4103 H         1 <0>         0.0900
     46 H21        -0.5580    8.0070    1.9597 H         1 <0>         0.1358
     47 H22        -0.1439    7.8038    3.6788 H         1 <0>         0.1338
     48 H23         2.1702    7.7881    4.4059 H         1 <0>         0.1307
     49 H24         4.4760    8.5135    3.9362 H         1 <0>         0.1359
     50 H25         5.1313    9.1244    1.6426 H         1 <0>         0.1357
     51 H26         3.4835    9.0008   -0.1829 H         1 <0>         0.1359
     52 H27         1.1806    8.2655    0.2849 H         1 <0>         0.1303
     53 N1          0.0517    6.0569    2.5321 N.4       1 <0>        -0.3920
     54 H28         0.5407    5.6283    3.3267 H         1 <0>         0.4258
@<TRIPOS>BOND
     1    1    2 1
     2    1   27 1
     3    1   28 1
     4    1   29 1
     5    2    3 1
     6    3    8 ar
     7    3    4 ar
     8    4    5 ar
     9    4   30 1
    10    5    6 ar
    11    5   31 1
    12    6    7 ar
    13    6   32 1
    14    7   12 1
    15    7    8 ar
    16    8    9 1
    17    9   10 1
    18    9   33 1
    19    9   34 1
    20   10   11 1
    21   10   12 1
    22   10   14 1
    23   12   13 2
    24   14   15 1
    25   14   35 1
    26   14   36 1
    27   15   19 1
    28   15   16 1
    29   15   37 1
    30   16   17 1
    31   16   38 1
    32   16   39 1
    33   17   40 1
    34   17   41 1
    35   17   53 1
    36   18   19 1
    37   18   42 1
    38   18   43 1
    39   18   53 1
    40   19   44 1
    41   19   45 1
    42   20   21 1
    43   20   46 1
    44   20   47 1
    45   20   53 1
    46   21   26 ar
    47   21   22 ar
    48   22   23 ar
    49   22   48 1
    50   23   24 ar
    51   23   49 1
    52   24   25 ar
    53   24   50 1
    54   25   26 ar
    55   25   51 1
    56   26   52 1
    57   53   54 1
@<TRIPOS>MOLECULE
ZINC03814277
   58    61     0     0     0
SMALL
USER_CHARGES

@<TRIPOS>ATOM
      1 C1          1.6871    7.9191    8.5476 C.3       1 <0>         0.0216
      2 O1          2.0318    7.2783    7.3177 O.3       1 <0>        -0.3031
      3 C2          1.1268    6.4037    6.8023 C.ar      1 <0>         0.0978
      4 C3         -0.0653    6.1694    7.4664 C.ar      1 <0>        -0.1536
      5 C4         -0.9907    5.2805    6.9463 C.ar      1 <0>        -0.0843
      6 C5         -0.7383    4.6178    5.7624 C.ar      1 <0>        -0.0728
      7 C6          0.4588    4.8410    5.0777 C.ar      1 <0>        -0.1863
      8 C7          1.3982    5.7456    5.6089 C.ar      1 <0>         0.1362
      9 O2          2.5659    5.9745    4.9567 O.3       1 <0>        -0.3194
     10 C8          2.5762    7.0333    3.9971 C.3       1 <0>         0.0438
     11 C9          0.5132    4.0352    3.8514 C.2       1 <0>         0.4148
     12 O3          1.4256    4.0164    3.0523 O.2       1 <0>        -0.4292
     13 C10        -0.7629    3.2346    3.7571 C.3       1 <0>        -0.1293
     14 H1         -0.5438    2.2591    3.7387 H         1 <0>         0.1039
     15 C11        -1.5750    3.6163    5.0024 C.3       1 <0>        -0.0753
     16 C12        -1.5310    3.6092    2.4881 C.3       1 <0>        -0.1004
     17 C13        -0.7644    3.1099    1.2618 C.3       1 <0>        -0.1150
     18 C14        -0.7286    1.5791    1.2674 C.3       1 <0>        -0.1436
     19 C15        -0.0127    1.0858    0.0080 C.3       1 <0>        -0.0016
     20 C16        -0.7289    3.0396   -1.2338 C.3       1 <0>        -0.0060
     21 C17        -1.4660    3.5913   -0.0113 C.3       1 <0>        -0.1392
     22 C18        -0.1453    1.0046   -2.4078 C.3       1 <0>         0.0482
     23 C19        -1.0392    1.3235   -3.5784 C.ar      1 <0>        -0.1619
     24 C20        -2.0509    0.4510   -3.9334 C.ar      1 <0>        -0.0946
     25 C21        -2.8742    0.7461   -5.0039 C.ar      1 <0>        -0.1133
     26 C22        -2.6786    1.9083   -5.7264 C.ar      1 <0>        -0.0846
     27 C23        -1.6636    2.7783   -5.3746 C.ar      1 <0>        -0.1137
     28 C24        -0.8439    2.4859   -4.3006 C.ar      1 <0>        -0.0969
     29 H2          2.4933    8.5889    8.8467 H         1 <0>         0.1078
     30 H3          0.7695    8.4919    8.4141 H         1 <0>         0.0590
     31 H4          1.5357    7.1651    9.3201 H         1 <0>         0.0603
     32 H5         -0.2742    6.6820    8.3938 H         1 <0>         0.1453
     33 H6         -1.9178    5.1042    7.4715 H         1 <0>         0.1386
     34 H7          3.5675    7.1091    3.5502 H         1 <0>         0.0982
     35 H8          1.8418    6.8255    3.2188 H         1 <0>         0.0422
     36 H9          2.3271    7.9730    4.4901 H         1 <0>         0.0493
     37 H10        -2.5228    4.0669    4.7078 H         1 <0>         0.0969
     38 H11        -1.7541    2.7344    5.6175 H         1 <0>         0.0967
     39 H12        -1.6370    4.6927    2.4340 H         1 <0>         0.0796
     40 H13        -2.5185    3.1484    2.5117 H         1 <0>         0.0865
     41 H14         0.2538    3.4983    1.2857 H         1 <0>         0.1066
     42 H15        -1.7471    1.1912    1.2827 H         1 <0>         0.0889
     43 H16        -0.1928    1.2311    2.1505 H         1 <0>         0.1116
     44 H17         0.0021   -0.0041    0.0020 H         1 <0>         0.1288
     45 H18         1.0099    1.4629    0.0003 H         1 <0>         0.1319
     46 H19         0.2971    3.4074   -1.2358 H         1 <0>         0.1299
     47 H20        -1.2345    3.3688   -2.1416 H         1 <0>         0.1286
     48 H21        -1.4570    4.6808   -0.0419 H         1 <0>         0.1102
     49 H22        -2.4963    3.2356   -0.0163 H         1 <0>         0.0876
     50 H23         0.8421    1.4341   -2.5771 H         1 <0>         0.1361
     51 H24        -0.0578   -0.0767   -2.3015 H         1 <0>         0.1347
     52 H25        -2.2006   -0.4593   -3.3719 H         1 <0>         0.1309
     53 H26        -3.6674    0.0666   -5.2785 H         1 <0>         0.1359
     54 H27        -3.3190    2.1367   -6.5655 H         1 <0>         0.1356
     55 H28        -1.5107    3.6863   -5.9391 H         1 <0>         0.1358
     56 H29        -0.0506    3.1655   -4.0260 H         1 <0>         0.1308
     57 N1         -0.7508    1.5622   -1.1809 N.4       1 <0>        -0.3911
     58 H30        -1.7255    1.2458   -1.1167 H         1 <0>         0.4246
@<TRIPOS>BOND
     1    1    2 1
     2    1   29 1
     3    1   30 1
     4    1   31 1
     5    2    3 1
     6    3    8 ar
     7    3    4 ar
     8    4    5 ar
     9    4   32 1
    10    5    6 ar
    11    5   33 1
    12    6   15 1
    13    6    7 ar
    14    7    8 ar
    15    7   11 1
    16    8    9 1
    17    9   10 1
    18   10   34 1
    19   10   35 1
    20   10   36 1
    21   11   12 2
    22   11   13 1
    23   13   14 1
    24   13   15 1
    25   13   16 1
    26   15   37 1
    27   15   38 1
    28   16   17 1
    29   16   39 1
    30   16   40 1
    31   17   21 1
    32   17   18 1
    33   17   41 1
    34   18   19 1
    35   18   42 1
    36   18   43 1
    37   19   44 1
    38   19   45 1
    39   19   57 1
    40   20   21 1
    41   20   46 1
    42   20   47 1
    43   20   57 1
    44   21   48 1
    45   21   49 1
    46   22   23 1
    47   22   50 1
    48   22   51 1
    49   22   57 1
    50   23   28 ar
    51   23   24 ar
    52   24   25 ar
    53   24   52 1
    54   25   26 ar
    55   25   53 1
    56   26   27 ar
    57   26   54 1
    58   27   28 ar
    59   27   55 1
    60   28   56 1
    61   57   58 1
@<TRIPOS>MOLECULE
ZINC03814278
   58    61     0     0     0
SMALL
USER_CHARGES

@<TRIPOS>ATOM
      1 C1          3.0785    7.3258   -4.6340 C.3       1 <0>         0.0214
      2 O1          3.3640    5.9657   -4.3012 O.3       1 <0>        -0.3040
      3 C2          2.6864    5.4326   -3.2537 C.ar      1 <0>         0.2160
      4 C3          2.9174    4.1129   -2.8773 C.ar      1 <0>        -0.1922
      5 C4          2.2418    3.5614   -1.8239 C.ar      1 <0>         0.0254
      6 C5          1.3053    4.3210   -1.1161 C.ar      1 <0>        -0.2739
      7 C6          1.0743    5.6614   -1.4937 C.ar      1 <0>         0.2428
      8 C7          1.7649    6.2044   -2.5611 C.ar      1 <0>        -0.3209
      9 O2          0.1729    6.4130   -0.8145 O.3       1 <0>        -0.2936
     10 C8         -0.0135    7.7591   -1.2562 C.3       1 <0>         0.0192
     11 C9          0.7110    3.5330   -0.0329 C.2       1 <0>         0.4140
     12 O3         -0.1290    3.9222    0.7515 O.2       1 <0>        -0.4343
     13 C10         1.3190    2.1520   -0.0651 C.3       1 <0>        -0.1294
     14 H1          0.5976    1.4733   -0.2026 H         1 <0>         0.1022
     15 C11         2.3154    2.1736   -1.2324 C.3       1 <0>        -0.0776
     16 C12         2.0480    1.8631    1.2487 C.3       1 <0>        -0.1040
     17 C13         2.5404    0.4145    1.2508 C.3       1 <0>        -0.1004
     18 C14         1.3388   -0.5344    1.2612 C.3       1 <0>        -0.1465
     19 C15         1.8371   -1.9800    1.3264 C.3       1 <0>        -0.0069
     20 C16         3.8293   -1.3010    2.5275 C.3       1 <0>         0.0000
     21 C17         3.3904    0.1648    2.4997 C.3       1 <0>        -0.1440
     22 C18         3.0242   -3.5772    2.7048 C.3       1 <0>         0.0486
     23 C19         1.8213   -4.4533    2.4674 C.ar      1 <0>        -0.1606
     24 C20         0.9974   -4.7970    3.5229 C.ar      1 <0>        -0.0945
     25 C21        -0.1090   -5.5963    3.3042 C.ar      1 <0>        -0.1132
     26 C22        -0.3854   -6.0610    2.0319 C.ar      1 <0>        -0.0846
     27 C23         0.4417   -5.7220    0.9775 C.ar      1 <0>        -0.1143
     28 C24         1.5449   -4.9180    1.1952 C.ar      1 <0>        -0.0965
     29 H2          2.0230    7.4239   -4.8876 H         1 <0>         0.0614
     30 H3          3.3082    7.9645   -3.7811 H         1 <0>         0.0612
     31 H4          3.6866    7.6265   -5.4872 H         1 <0>         0.1103
     32 H5          3.6362    3.5190   -3.4221 H         1 <0>         0.1399
     33 H6          1.5870    7.2282   -2.8557 H         1 <0>         0.1456
     34 H7         -0.7593    8.2474   -0.6289 H         1 <0>         0.1097
     35 H8          0.9308    8.2989   -1.1851 H         1 <0>         0.0608
     36 H9         -0.3542    7.7579   -2.2916 H         1 <0>         0.0610
     37 H10         3.3234    1.9744   -0.8684 H         1 <0>         0.0982
     38 H11         2.0331    1.4322   -1.9799 H         1 <0>         0.0977
     39 H12         2.8995    2.5364    1.3475 H         1 <0>         0.0823
     40 H13         1.3651    2.0159    2.0844 H         1 <0>         0.0822
     41 H14         3.1406    0.2325    0.3594 H         1 <0>         0.0948
     42 H15         0.7172   -0.3251    2.1318 H         1 <0>         0.0896
     43 H16         0.7538   -0.3908    0.3527 H         1 <0>         0.1125
     44 H17         2.4463   -2.1931    0.4480 H         1 <0>         0.1285
     45 H18         0.9836   -2.6575    1.3495 H         1 <0>         0.1313
     46 H19         4.4291   -1.5174    1.6434 H         1 <0>         0.1304
     47 H20         4.4228   -1.4856    3.4229 H         1 <0>         0.1291
     48 H21         4.2703    0.8077    2.4756 H         1 <0>         0.1139
     49 H22         2.8023    0.3861    3.3904 H         1 <0>         0.0898
     50 H23         3.8050   -3.8299    1.9874 H         1 <0>         0.1358
     51 H24         3.3956   -3.7365    3.7172 H         1 <0>         0.1337
     52 H25         1.2158   -4.4376    4.5176 H         1 <0>         0.1306
     53 H26        -0.7554   -5.8609    4.1280 H         1 <0>         0.1358
     54 H27        -1.2477   -6.6886    1.8617 H         1 <0>         0.1356
     55 H28         0.2258   -6.0850   -0.0165 H         1 <0>         0.1359
     56 H29         2.1911   -4.6532    0.3713 H         1 <0>         0.1303
     57 N1          2.6272   -2.1612    2.5626 N.4       1 <0>        -0.3923
     58 H30         2.0501   -1.8942    3.3688 H         1 <0>         0.4259
@<TRIPOS>BOND
     1    1    2 1
     2    1   29 1
     3    1   30 1
     4    1   31 1
     5    2    3 1
     6    3    8 ar
     7    3    4 ar
     8    4    5 ar
     9    4   32 1
    10    5   15 1
    11    5    6 ar
    12    6    7 ar
    13    6   11 1
    14    7    8 ar
    15    7    9 1
    16    8   33 1
    17    9   10 1
    18   10   34 1
    19   10   35 1
    20   10   36 1
    21   11   12 2
    22   11   13 1
    23   13   14 1
    24   13   15 1
    25   13   16 1
    26   15   37 1
    27   15   38 1
    28   16   17 1
    29   16   39 1
    30   16   40 1
    31   17   21 1
    32   17   18 1
    33   17   41 1
    34   18   19 1
    35   18   42 1
    36   18   43 1
    37   19   44 1
    38   19   45 1
    39   19   57 1
    40   20   21 1
    41   20   46 1
    42   20   47 1
    43   20   57 1
    44   21   48 1
    45   21   49 1
    46   22   23 1
    47   22   50 1
    48   22   51 1
    49   22   57 1
    50   23   28 ar
    51   23   24 ar
    52   24   25 ar
    53   24   52 1
    54   25   26 ar
    55   25   53 1
    56   26   27 ar
    57   26   54 1
    58   27   28 ar
    59   27   55 1
    60   28   56 1
    61   57   58 1
@<TRIPOS>MOLECULE
ZINC03814279
   58    61     0     0     0
SMALL
USER_CHARGES

@<TRIPOS>ATOM
      1 C1         -2.1955    5.9562    8.7896 C.3       1 <0>         0.0237
      2 O1         -2.0400    5.2029    7.5853 O.3       1 <0>        -0.3134
      3 C2         -0.8743    5.3623    6.9034 C.ar      1 <0>         0.0916
      4 C3          0.0973    6.2286    7.3894 C.ar      1 <0>        -0.1206
      5 C4          1.2835    6.3975    6.7044 C.ar      1 <0>        -0.1870
      6 C5          1.5129    5.7038    5.5279 C.ar      1 <0>         0.1674
      7 C6          0.5338    4.8230    5.0270 C.ar      1 <0>        -0.1991
      8 C7         -0.6625    4.6610    5.7290 C.ar      1 <0>        -0.0428
      9 C8         -1.5454    3.6752    5.0020 C.3       1 <0>        -0.0715
     10 C9         -0.7629    3.2346    3.7571 C.3       1 <0>        -0.1310
     11 H1         -0.6247    2.2445    3.7834 H         1 <0>         0.1042
     12 C10         0.5436    3.9881    3.8192 C.2       1 <0>         0.4214
     13 O2          1.4454    3.9162    3.0112 O.2       1 <0>        -0.4326
     14 C11        -1.5310    3.6092    2.4881 C.3       1 <0>        -0.1004
     15 C12        -0.7644    3.1099    1.2618 C.3       1 <0>        -0.1155
     16 C13        -0.7286    1.5791    1.2674 C.3       1 <0>        -0.1430
     17 C14        -0.0127    1.0858    0.0080 C.3       1 <0>        -0.0013
     18 C15        -0.7289    3.0396   -1.2338 C.3       1 <0>        -0.0057
     19 C16        -1.4660    3.5913   -0.0113 C.3       1 <0>        -0.1394
     20 C17        -0.1453    1.0046   -2.4078 C.3       1 <0>         0.0483
     21 C18        -1.0392    1.3235   -3.5784 C.ar      1 <0>        -0.1615
     22 C19        -2.0509    0.4510   -3.9334 C.ar      1 <0>        -0.0947
     23 C20        -2.8742    0.7461   -5.0039 C.ar      1 <0>        -0.1134
     24 C21        -2.6786    1.9083   -5.7264 C.ar      1 <0>        -0.0849
     25 C22        -1.6636    2.7783   -5.3746 C.ar      1 <0>        -0.1138
     26 C23        -0.8439    2.4859   -4.3006 C.ar      1 <0>        -0.0968
     27 O3          2.6803    5.8726    4.8575 O.3       1 <0>        -0.3000
     28 C24         3.6276    6.7808    5.4228 C.3       1 <0>         0.0205
     29 H2         -1.4064    5.6862    9.4914 H         1 <0>         0.0577
     30 H3         -2.1318    7.0206    8.5631 H         1 <0>         0.0574
     31 H4         -3.1668    5.7365    9.2328 H         1 <0>         0.1056
     32 H5         -0.0763    6.7715    8.3067 H         1 <0>         0.1434
     33 H6          2.0350    7.0723    7.0871 H         1 <0>         0.1433
     34 H7         -2.4788    4.1548    4.7073 H         1 <0>         0.0977
     35 H8         -1.7505    2.8151    5.6393 H         1 <0>         0.0975
     36 H9         -1.6370    4.6927    2.4340 H         1 <0>         0.0801
     37 H10        -2.5185    3.1484    2.5117 H         1 <0>         0.0854
     38 H11         0.2538    3.4983    1.2857 H         1 <0>         0.1084
     39 H12        -1.7471    1.1912    1.2827 H         1 <0>         0.0882
     40 H13        -0.1928    1.2311    2.1505 H         1 <0>         0.1116
     41 H14         0.0021   -0.0041    0.0020 H         1 <0>         0.1282
     42 H15         1.0099    1.4629    0.0003 H         1 <0>         0.1319
     43 H16         0.2971    3.4074   -1.2358 H         1 <0>         0.1299
     44 H17        -1.2345    3.3688   -2.1416 H         1 <0>         0.1281
     45 H18        -1.4570    4.6808   -0.0419 H         1 <0>         0.1103
     46 H19        -2.4963    3.2356   -0.0163 H         1 <0>         0.0871
     47 H20         0.8421    1.4341   -2.5771 H         1 <0>         0.1360
     48 H21        -0.0578   -0.0767   -2.3015 H         1 <0>         0.1344
     49 H22        -2.2006   -0.4593   -3.3719 H         1 <0>         0.1309
     50 H23        -3.6674    0.0666   -5.2785 H         1 <0>         0.1358
     51 H24        -3.3190    2.1367   -6.5655 H         1 <0>         0.1355
     52 H25        -1.5107    3.6863   -5.9391 H         1 <0>         0.1357
     53 H26        -0.0506    3.1655   -4.0260 H         1 <0>         0.1308
     54 H27         4.5137    6.8225    4.7894 H         1 <0>         0.1065
     55 H28         3.1830    7.7737    5.4912 H         1 <0>         0.0600
     56 H29         3.9088    6.4392    6.4190 H         1 <0>         0.0605
     57 N1         -0.7508    1.5622   -1.1809 N.4       1 <0>        -0.3911
     58 H30        -1.7255    1.2458   -1.1167 H         1 <0>         0.4246
@<TRIPOS>BOND
     1    1    2 1
     2    1   29 1
     3    1   30 1
     4    1   31 1
     5    2    3 1
     6    3    8 ar
     7    3    4 ar
     8    4    5 ar
     9    4   32 1
    10    5    6 ar
    11    5   33 1
    12    6    7 ar
    13    6   27 1
    14    7   12 1
    15    7    8 ar
    16    8    9 1
    17    9   10 1
    18    9   34 1
    19    9   35 1
    20   10   11 1
    21   10   12 1
    22   10   14 1
    23   12   13 2
    24   14   15 1
    25   14   36 1
    26   14   37 1
    27   15   19 1
    28   15   16 1
    29   15   38 1
    30   16   17 1
    31   16   39 1
    32   16   40 1
    33   17   41 1
    34   17   42 1
    35   17   57 1
    36   18   19 1
    37   18   43 1
    38   18   44 1
    39   18   57 1
    40   19   45 1
    41   19   46 1
    42   20   21 1
    43   20   47 1
    44   20   48 1
    45   20   57 1
    46   21   26 ar
    47   21   22 ar
    48   22   23 ar
    49   22   49 1
    50   23   24 ar
    51   23   50 1
    52   24   25 ar
    53   24   51 1
    54   25   26 ar
    55   25   52 1
    56   26   53 1
    57   27   28 1
    58   28   54 1
    59   28   55 1
    60   28   56 1
    61   57   58 1
@<TRIPOS>MOLECULE
ZINC03814280
   58    61     0     0     0
SMALL
USER_CHARGES

@<TRIPOS>ATOM
      1 C1         -4.5644    4.2232    4.1337 C.3       1 <0>         0.0193
      2 O1         -3.3043    4.5061    4.7455 O.3       1 <0>        -0.2976
      3 C2         -2.2100    3.9106    4.2064 C.ar      1 <0>         0.1586
      4 C3         -2.3468    3.0701    3.1088 C.ar      1 <0>        -0.2126
      5 C4         -1.2411    2.4653    2.5594 C.ar      1 <0>        -0.0056
      6 C5          0.0343    2.6927    3.1045 C.ar      1 <0>        -0.2250
      7 C6          0.1689    3.5428    4.2046 C.ar      1 <0>        -0.0297
      8 C7         -0.9496    4.1430    4.7542 C.ar      1 <0>         0.0576
      9 O2         -0.8184    4.9666    5.8285 O.3       1 <0>        -0.3202
     10 C8         -0.9119    4.3658    7.1217 C.3       1 <0>         0.0336
     11 C9          1.6220    3.6224    4.6073 C.3       1 <0>        -0.0747
     12 C10         2.3901    2.7288    3.6237 C.3       1 <0>        -0.1305
     13 H1          3.0671    3.2778    3.1335 H         1 <0>         0.1047
     14 C11         1.3428    2.1645    2.6948 C.2       1 <0>         0.4158
     15 O3          1.5462    1.4062    1.7702 O.2       1 <0>        -0.4347
     16 C12         3.0965    1.5986    4.3751 C.3       1 <0>        -0.1040
     17 C13         4.2419    2.1777    5.2079 C.3       1 <0>        -0.1011
     18 C14         5.3142    2.7488    4.2759 C.3       1 <0>        -0.1468
     19 C15         6.4851    3.2699    5.1125 C.3       1 <0>        -0.0065
     20 C16         6.0425    1.6428    6.8528 C.3       1 <0>        -0.0011
     21 C17         4.8591    1.0717    6.0682 C.3       1 <0>        -0.1436
     22 C18         8.2522    2.6055    6.6278 C.3       1 <0>         0.0491
     23 C19         9.3387    2.9119    5.6294 C.ar      1 <0>        -0.1632
     24 C20        10.2124    1.9173    5.2316 C.ar      1 <0>        -0.0945
     25 C21        11.2057    2.1971    4.3118 C.ar      1 <0>        -0.1130
     26 C22        11.3324    3.4743    3.7984 C.ar      1 <0>        -0.0840
     27 C23        10.4620    4.4702    4.2002 C.ar      1 <0>        -0.1136
     28 C24         9.4652    4.1890    5.1157 C.ar      1 <0>        -0.0969
     29 H2         -4.5416    4.5410    3.0913 H         1 <0>         0.0634
     30 H3         -4.7598    3.1520    4.1828 H         1 <0>         0.0620
     31 H4         -5.3528    4.7609    4.6603 H         1 <0>         0.1097
     32 H5         -3.3244    2.8911    2.6862 H         1 <0>         0.1460
     33 H6         -1.3530    1.8128    1.7061 H         1 <0>         0.1389
     34 H7         -0.7901    5.1317    7.8877 H         1 <0>         0.0973
     35 H8         -1.8875    3.8927    7.2328 H         1 <0>         0.0495
     36 H9         -0.1293    3.6150    7.2310 H         1 <0>         0.0417
     37 H10         1.7525    3.2568    5.6258 H         1 <0>         0.0932
     38 H11         1.9725    4.6516    4.5304 H         1 <0>         0.0980
     39 H12         2.3851    1.0996    5.0332 H         1 <0>         0.0821
     40 H13         3.4951    0.8799    3.6592 H         1 <0>         0.0835
     41 H14         3.8598    2.9697    5.8520 H         1 <0>         0.0949
     42 H15         5.6676    1.9659    3.6049 H         1 <0>         0.0903
     43 H16         4.8910    3.5659    3.6917 H         1 <0>         0.1130
     44 H17         6.1339    4.0631    5.7726 H         1 <0>         0.1301
     45 H18         7.2571    3.6631    4.4510 H         1 <0>         0.1292
     46 H19         5.6934    2.4436    7.5048 H         1 <0>         0.1309
     47 H20         6.4932    0.8543    7.4555 H         1 <0>         0.1291
     48 H21         4.1110    0.6913    6.7637 H         1 <0>         0.1137
     49 H22         5.2052    0.2616    5.4262 H         1 <0>         0.0900
     50 H23         8.0322    3.4996    7.2111 H         1 <0>         0.1361
     51 H24         8.5850    1.8097    7.2941 H         1 <0>         0.1345
     52 H25        10.1163    0.9206    5.6363 H         1 <0>         0.1309
     53 H26        11.8855    1.4189    3.9976 H         1 <0>         0.1360
     54 H27        12.1112    3.6940    3.0832 H         1 <0>         0.1358
     55 H28        10.5610    5.4681    3.7991 H         1 <0>         0.1360
     56 H29         8.7854    4.9672    5.4298 H         1 <0>         0.1307
     57 N1          7.0500    2.1524    5.8982 N.4       1 <0>        -0.3925
     58 H30         7.3146    1.3951    5.2574 H         1 <0>         0.4260
@<TRIPOS>BOND
     1    1    2 1
     2    1   29 1
     3    1   30 1
     4    1   31 1
     5    2    3 1
     6    3    8 ar
     7    3    4 ar
     8    4    5 ar
     9    4   32 1
    10    5    6 ar
    11    5   33 1
    12    6   14 1
    13    6    7 ar
    14    7    8 ar
    15    7   11 1
    16    8    9 1
    17    9   10 1
    18   10   34 1
    19   10   35 1
    20   10   36 1
    21   11   12 1
    22   11   37 1
    23   11   38 1
    24   12   13 1
    25   12   14 1
    26   12   16 1
    27   14   15 2
    28   16   17 1
    29   16   39 1
    30   16   40 1
    31   17   21 1
    32   17   18 1
    33   17   41 1
    34   18   19 1
    35   18   42 1
    36   18   43 1
    37   19   44 1
    38   19   45 1
    39   19   57 1
    40   20   21 1
    41   20   46 1
    42   20   47 1
    43   20   57 1
    44   21   48 1
    45   21   49 1
    46   22   23 1
    47   22   50 1
    48   22   51 1
    49   22   57 1
    50   23   28 ar
    51   23   24 ar
    52   24   25 ar
    53   24   52 1
    54   25   26 ar
    55   25   53 1
    56   26   27 ar
    57   26   54 1
    58   27   28 ar
    59   27   55 1
    60   28   56 1
    61   57   58 1
@<TRIPOS>MOLECULE
ZINC03814281
   62    65     0     0     0
SMALL
USER_CHARGES

@<TRIPOS>ATOM
      1 C1          8.6191    0.3376    0.9383 C.3       1 <0>         0.0189
      2 O1          7.9321   -0.9069    0.7926 O.3       1 <0>        -0.2929
      3 C2          6.5754   -0.8698    0.8276 C.ar      1 <0>         0.1738
      4 C3          5.9188    0.3439    0.9992 C.ar      1 <0>        -0.2096
      5 C4          4.5524    0.3982    1.0370 C.ar      1 <0>         0.0042
      6 C5          3.7984   -0.7721    0.9024 C.ar      1 <0>        -0.2546
      7 C6          4.4605   -2.0057    0.7284 C.ar      1 <0>         0.1946
      8 C7          5.8455   -2.0456    0.6922 C.ar      1 <0>         0.0258
      9 O2          6.4896   -3.2329    0.5248 O.3       1 <0>        -0.3148
     10 C8          6.8247   -3.9616    1.7075 C.3       1 <0>         0.0351
     11 O3          3.7432   -3.1501    0.5962 O.3       1 <0>        -0.3240
     12 C9          3.3726   -3.5339   -0.7295 C.3       1 <0>         0.0472
     13 C10         2.3648   -0.4759    0.9723 C.2       1 <0>         0.4184
     14 O4          1.4661   -1.2867    0.8870 O.2       1 <0>        -0.4368
     15 C11         2.1988    1.0113    1.1682 C.3       1 <0>        -0.1298
     16 H1          1.7042    1.1821    2.0204 H         1 <0>         0.1036
     17 C12         3.6247    1.5777    1.2099 C.3       1 <0>        -0.0808
     18 C13         1.4222    1.6167   -0.0028 C.3       1 <0>        -0.1008
     19 C14        -0.0127    1.0858    0.0080 C.3       1 <0>        -0.1161
     20 C15        -0.7320    1.5809    1.2658 C.3       1 <0>        -0.1408
     21 C16        -2.1847    1.0962    1.2393 C.3       1 <0>        -0.0061
     22 C17        -2.2065    1.1092   -1.1838 C.3       1 <0>        -0.0013
     23 C18        -0.7558    1.5943   -1.2305 C.3       1 <0>        -0.1407
     24 C19        -4.2838    1.2801    0.0475 C.3       1 <0>         0.0484
     25 C20        -4.9590    2.0117    1.1787 C.ar      1 <0>        -0.1620
     26 C21        -5.0552    1.4204    2.4245 C.ar      1 <0>        -0.0964
     27 C22        -5.6698    2.0937    3.4636 C.ar      1 <0>        -0.1137
     28 C23        -6.1981    3.3539    3.2541 C.ar      1 <0>        -0.0846
     29 C24        -6.1070    3.9429    2.0068 C.ar      1 <0>        -0.1134
     30 C25        -5.4873    3.2719    0.9692 C.ar      1 <0>        -0.0949
     31 H2          9.6946    0.1664    0.8923 H         1 <0>         0.1106
     32 H3          8.3238    1.0119    0.1345 H         1 <0>         0.0631
     33 H4          8.3630    0.7836    1.8993 H         1 <0>         0.0625
     34 H5          6.4932    1.2524    1.1039 H         1 <0>         0.1453
     35 H6          5.9146   -4.1973    2.2590 H         1 <0>         0.0498
     36 H7          7.3329   -4.8860    1.4330 H         1 <0>         0.0994
     37 H8          7.4821   -3.3573    2.3325 H         1 <0>         0.0481
     38 H9          2.7600   -2.7510   -1.1766 H         1 <0>         0.0450
     39 H10         4.2705   -3.6801   -1.3299 H         1 <0>         0.0552
     40 H11         2.8045   -4.4635   -0.6932 H         1 <0>         0.1003
     41 H12         3.7689    2.2900    0.3975 H         1 <0>         0.1012
     42 H13         3.8080    2.0610    2.1696 H         1 <0>         0.1007
     43 H14         1.9047    1.3404   -0.9404 H         1 <0>         0.0801
     44 H15         1.4087    2.7024    0.0927 H         1 <0>         0.0857
     45 H16         0.0021   -0.0041    0.0020 H         1 <0>         0.1084
     46 H17        -0.2313    1.1868    2.1502 H         1 <0>         0.1101
     47 H18        -0.7125    2.6704    1.2911 H         1 <0>         0.0873
     48 H19        -2.7046    1.4590    2.1260 H         1 <0>         0.1282
     49 H20        -2.2034    0.0064    1.2278 H         1 <0>         0.1309
     50 H21        -2.7422    1.4815   -2.0571 H         1 <0>         0.1287
     51 H22        -2.2252    0.0194   -1.1839 H         1 <0>         0.1310
     52 H23        -0.7367    2.6840   -1.2444 H         1 <0>         0.0879
     53 H24        -0.2718    1.2103   -2.1284 H         1 <0>         0.1115
     54 H25        -4.7332    1.5805   -0.8991 H         1 <0>         0.1345
     55 H26        -4.4083    0.2058    0.1840 H         1 <0>         0.1361
     56 H27        -4.6464    0.4340    2.5871 H         1 <0>         0.1310
     57 H28        -5.7407    1.6337    4.4382 H         1 <0>         0.1359
     58 H29        -6.6816    3.8784    4.0649 H         1 <0>         0.1356
     59 H30        -6.5197    4.9274    1.8431 H         1 <0>         0.1358
     60 H31        -5.4161    3.7320   -0.0053 H         1 <0>         0.1307
     61 N1         -2.8508    1.6396    0.0364 N.4       1 <0>        -0.3911
     62 H32        -2.7637    2.6627    0.0411 H         1 <0>         0.4245
@<TRIPOS>BOND
     1    1    2 1
     2    1   31 1
     3    1   32 1
     4    1   33 1
     5    2    3 1
     6    3    8 ar
     7    3    4 ar
     8    4    5 ar
     9    4   34 1
    10    5   17 1
    11    5    6 ar
    12    6    7 ar
    13    6   13 1
    14    7    8 ar
    15    7   11 1
    16    8    9 1
    17    9   10 1
    18   10   35 1
    19   10   36 1
    20   10   37 1
    21   11   12 1
    22   12   38 1
    23   12   39 1
    24   12   40 1
    25   13   14 2
    26   13   15 1
    27   15   16 1
    28   15   17 1
    29   15   18 1
    30   17   41 1
    31   17   42 1
    32   18   19 1
    33   18   43 1
    34   18   44 1
    35   19   23 1
    36   19   20 1
    37   19   45 1
    38   20   21 1
    39   20   46 1
    40   20   47 1
    41   21   48 1
    42   21   49 1
    43   21   61 1
    44   22   23 1
    45   22   50 1
    46   22   51 1
    47   22   61 1
    48   23   52 1
    49   23   53 1
    50   24   25 1
    51   24   54 1
    52   24   55 1
    53   24   61 1
    54   25   30 ar
    55   25   26 ar
    56   26   27 ar
    57   26   56 1
    58   27   28 ar
    59   27   57 1
    60   28   29 ar
    61   28   58 1
    62   29   30 ar
    63   29   59 1
    64   30   60 1
    65   61   62 1
@<TRIPOS>MOLECULE
ZINC03814282
   61    64     0     0     0
SMALL
USER_CHARGES

@<TRIPOS>ATOM
      1 C1          2.9606    5.7536    0.0033 C.3       1 <0>         0.0210
      2 O1          3.8796    4.6594   -0.0109 O.3       1 <0>        -0.2957
      3 C2          3.3497    3.4096   -0.0121 C.ar      1 <0>         0.1509
      4 C3          1.9721    3.2402   -0.0003 C.ar      1 <0>        -0.1816
      5 C4          1.4251    1.9733   -0.0010 C.ar      1 <0>        -0.0370
      6 C5          2.2576    0.8520   -0.0149 C.ar      1 <0>        -0.2019
      7 C6          3.6523    1.0269   -0.0273 C.ar      1 <0>        -0.1054
      8 C7          4.1898    2.2963   -0.0256 C.ar      1 <0>         0.0869
      9 O2          5.5395    2.4631   -0.0376 O.3       1 <0>        -0.3016
     10 C8          6.3394    1.2791   -0.0516 C.3       1 <0>         0.0233
     11 C9          1.4627   -0.3839   -0.0140 C.2       1 <0>         0.4149
     12 O3          1.9041   -1.5136   -0.0239 O.2       1 <0>        -0.4440
     13 C10         0.0021   -0.0041    0.0020 C.3       1 <0>        -0.1284
     14 H1         -0.4487   -0.3792   -0.8080 H         1 <0>         0.1035
     15 C11        -0.0187    1.5306    0.0105 C.3       1 <0>        -0.0776
     16 C12        -0.6738   -0.5502    1.2613 C.3       1 <0>        -0.1061
     17 C13        -0.7545   -2.0757    1.1760 C.3       1 <0>        -0.1284
     18 C14        -1.4304   -2.6219    2.4353 C.3       1 <0>        -0.0973
     19 C15        -0.5501   -2.3337    3.6545 C.3       1 <0>        -0.1457
     20 C16        -1.2009   -2.9368    4.9015 C.3       1 <0>        -0.0061
     21 C17        -2.2420   -4.6844    3.5846 C.3       1 <0>        -0.0012
     22 C18        -1.6215   -4.1349    2.2981 C.3       1 <0>        -0.1440
     23 C19        -1.8562   -5.0174    5.9512 C.3       1 <0>         0.0488
     24 C20        -0.8125   -4.8987    7.0318 C.ar      1 <0>        -0.1627
     25 C21         0.1383   -5.8902    7.1863 C.ar      1 <0>        -0.0945
     26 C22         1.0983   -5.7792    8.1747 C.ar      1 <0>        -0.1129
     27 C23         1.1020   -4.6812    9.0145 C.ar      1 <0>        -0.0843
     28 C24         0.1480   -3.6923    8.8634 C.ar      1 <0>        -0.1139
     29 C25        -0.8094   -3.8012    7.8722 C.ar      1 <0>        -0.0970
     30 H2          2.3251    5.7058   -0.8809 H         1 <0>         0.0608
     31 H3          2.3420    5.6969    0.8989 H         1 <0>         0.0597
     32 H4          3.5139    6.6928    0.0027 H         1 <0>         0.1082
     33 H5          1.3247    4.1047    0.0098 H         1 <0>         0.1446
     34 H6          4.3037    0.1656   -0.0378 H         1 <0>         0.1422
     35 H7          6.1256    0.6856    0.8373 H         1 <0>         0.0557
     36 H8          6.1086    0.6952   -0.9426 H         1 <0>         0.0575
     37 H9          7.3943    1.5534   -0.0602 H         1 <0>         0.1069
     38 H10        -0.5317    1.9031   -0.8763 H         1 <0>         0.0964
     39 H11        -0.5146    1.8935    0.9107 H         1 <0>         0.0953
     40 H12        -0.0924   -0.2656    2.1382 H         1 <0>         0.0695
     41 H13        -1.6793   -0.1372    1.3422 H         1 <0>         0.0813
     42 H14        -1.3359   -2.3604    0.2990 H         1 <0>         0.0764
     43 H15         0.2510   -2.4888    1.0951 H         1 <0>         0.0857
     44 H16        -2.4006   -2.1424    2.5650 H         1 <0>         0.0892
     45 H17         0.4335   -2.7795    3.5067 H         1 <0>         0.0877
     46 H18        -0.4464   -1.2561    3.7819 H         1 <0>         0.1115
     47 H19        -2.1781   -2.4797    5.0571 H         1 <0>         0.1290
     48 H20        -0.5688   -2.7467    5.7689 H         1 <0>         0.1277
     49 H21        -3.2144   -4.2192    3.7464 H         1 <0>         0.1301
     50 H22        -2.3663   -5.7637    3.4957 H         1 <0>         0.1282
     51 H23        -2.2829   -4.3434    1.4572 H         1 <0>         0.1128
     52 H24        -0.6554   -4.6098    2.1277 H         1 <0>         0.0887
     53 H25        -2.7708   -4.5194    6.2731 H         1 <0>         0.1358
     54 H26        -2.0636   -6.0704    5.7605 H         1 <0>         0.1344
     55 H27         0.1332   -6.7499    6.5326 H         1 <0>         0.1310
     56 H28         1.8439   -6.5516    8.2926 H         1 <0>         0.1361
     57 H29         1.8504   -4.5957    9.7884 H         1 <0>         0.1358
     58 H30         0.1508   -2.8344    9.5195 H         1 <0>         0.1358
     59 H31        -1.5548   -3.0286    7.7541 H         1 <0>         0.1305
     60 N1         -1.3345   -4.3975    4.7157 N.4       1 <0>        -0.3923
     61 H32        -0.4097   -4.7928    4.5092 H         1 <0>         0.4258
@<TRIPOS>BOND
     1    1    2 1
     2    1   30 1
     3    1   31 1
     4    1   32 1
     5    2    3 1
     6    3    8 ar
     7    3    4 ar
     8    4    5 ar
     9    4   33 1
    10    5   15 1
    11    5    6 ar
    12    6    7 ar
    13    6   11 1
    14    7    8 ar
    15    7   34 1
    16    8    9 1
    17    9   10 1
    18   10   35 1
    19   10   36 1
    20   10   37 1
    21   11   12 2
    22   11   13 1
    23   13   14 1
    24   13   15 1
    25   13   16 1
    26   15   38 1
    27   15   39 1
    28   16   17 1
    29   16   40 1
    30   16   41 1
    31   17   18 1
    32   17   42 1
    33   17   43 1
    34   18   22 1
    35   18   19 1
    36   18   44 1
    37   19   20 1
    38   19   45 1
    39   19   46 1
    40   20   47 1
    41   20   48 1
    42   20   60 1
    43   21   22 1
    44   21   49 1
    45   21   50 1
    46   21   60 1
    47   22   51 1
    48   22   52 1
    49   23   24 1
    50   23   53 1
    51   23   54 1
    52   23   60 1
    53   24   29 ar
    54   24   25 ar
    55   25   26 ar
    56   25   55 1
    57   26   27 ar
    58   26   56 1
    59   27   28 ar
    60   27   57 1
    61   28   29 ar
    62   28   58 1
    63   29   59 1
    64   60   61 1
@<TRIPOS>MOLECULE
ZINC03814283
   58    61     0     0     0
SMALL
USER_CHARGES

@<TRIPOS>ATOM
      1 C1         -5.2342    3.6238   -3.7319 C.3       1 <0>         0.0188
      2 O1         -5.2204    4.0663   -2.3732 O.3       1 <0>        -0.2907
      3 C2         -4.4679    3.3502   -1.4994 C.ar      1 <0>         0.1656
      4 C3         -3.7567    2.2432   -1.9415 C.ar      1 <0>        -0.1809
      5 C4         -2.9892    1.5097   -1.0599 C.ar      1 <0>        -0.0346
      6 C5         -2.9242    1.8787    0.2854 C.ar      1 <0>        -0.2106
      7 C6         -3.6465    2.9996    0.7302 C.ar      1 <0>        -0.0982
      8 C7         -4.4093    3.7274   -0.1578 C.ar      1 <0>         0.0924
      9 O2         -5.1060    4.8124    0.2744 O.3       1 <0>        -0.2979
     10 C8         -5.0001    5.1412    1.6610 C.3       1 <0>         0.0215
     11 C9         -2.0530    0.9615    1.0331 C.2       1 <0>         0.4091
     12 O3         -1.8019    1.0260    2.2180 O.2       1 <0>        -0.4469
     13 C10        -1.5247   -0.0748    0.0713 C.3       1 <0>        -0.1530
     14 H1         -1.8030   -0.9855    0.3766 H         1 <0>         0.1202
     15 C11        -2.1360    0.2849   -1.2898 C.3       1 <0>        -0.0693
     16 C12         0.0021   -0.0041    0.0020 C.3       1 <0>         0.0066
     17 C13         1.9464    0.1123    1.4396 C.3       1 <0>        -0.0005
     18 C14         2.4525   -0.1683    2.8563 C.3       1 <0>        -0.1482
     19 C15         2.4001   -1.6752    3.1226 C.3       1 <0>        -0.0926
     20 C16         0.9644   -2.1704    2.9277 C.3       1 <0>        -0.1452
     21 C17         0.5014   -1.8318    1.5089 C.3       1 <0>        -0.0031
     22 C18         2.8475   -1.9566    4.5585 C.3       1 <0>        -0.0751
     23 C19         4.2987   -1.5817    4.7150 C.ar      1 <0>        -0.0942
     24 C20         5.2848   -2.5203    4.4751 C.ar      1 <0>        -0.1159
     25 C21         6.6161   -2.1752    4.6145 C.ar      1 <0>        -0.1141
     26 C22         6.9610   -0.8943    5.0031 C.ar      1 <0>        -0.1165
     27 C23         5.9748    0.0430    5.2476 C.ar      1 <0>        -0.1161
     28 C24         4.6436   -0.3009    5.1040 C.ar      1 <0>        -0.1214
     29 H2         -4.2204    3.6463   -4.1316 H         1 <0>         0.0626
     30 H3         -5.6206    2.6057   -3.7785 H         1 <0>         0.0631
     31 H4         -5.8721    4.2819   -4.3219 H         1 <0>         0.1120
     32 H5         -3.8039    1.9546   -2.9812 H         1 <0>         0.1497
     33 H6         -3.6024    3.2921    1.7690 H         1 <0>         0.1466
     34 H7         -5.3585    4.3048    2.2612 H         1 <0>         0.0590
     35 H8         -3.9581    5.3450    1.9076 H         1 <0>         0.0581
     36 H9         -5.6029    6.0245    1.8721 H         1 <0>         0.1106
     37 H10        -1.3466    0.5078   -2.0077 H         1 <0>         0.1068
     38 H11        -2.7518   -0.5378   -1.6530 H         1 <0>         0.1122
     39 H12         0.3633   -0.6912   -0.7632 H         1 <0>         0.1485
     40 H13         0.3078    1.0118   -0.2483 H         1 <0>         0.1360
     41 H14         2.5860   -0.3959    0.7181 H         1 <0>         0.1320
     42 H15         1.9689    1.1858    1.2519 H         1 <0>         0.1268
     43 H16         1.8215    0.3509    3.5777 H         1 <0>         0.0889
     44 H17         3.4801    0.1826    2.9518 H         1 <0>         0.1167
     45 H18         3.0612   -2.1914    2.4264 H         1 <0>         0.0916
     46 H19         0.3100   -1.6828    3.6502 H         1 <0>         0.0903
     47 H20         0.9287   -3.2500    3.0742 H         1 <0>         0.1145
     48 H21        -0.5256   -2.1703    1.3715 H         1 <0>         0.1256
     49 H22         1.1478   -2.3309    0.7871 H         1 <0>         0.1329
     50 H23         2.2436   -1.3680    5.2491 H         1 <0>         0.0788
     51 H24         2.7204   -3.0168    4.7775 H         1 <0>         0.0835
     52 H25         5.0152   -3.5223    4.1755 H         1 <0>         0.1216
     53 H26         7.3866   -2.9074    4.4231 H         1 <0>         0.1251
     54 H27         8.0011   -0.6256    5.1152 H         1 <0>         0.1251
     55 H28         6.2443    1.0438    5.5512 H         1 <0>         0.1244
     56 H29         3.8731    0.4313    5.2955 H         1 <0>         0.1197
     57 N1          0.5521   -0.3659    1.3247 N.4       1 <0>        -0.4029
     58 H30        -0.0145    0.0813    2.0550 H         1 <0>         0.4309
@<TRIPOS>BOND
     1    1    2 1
     2    1   29 1
     3    1   30 1
     4    1   31 1
     5    2    3 1
     6    3    8 ar
     7    3    4 ar
     8    4    5 ar
     9    4   32 1
    10    5   15 1
    11    5    6 ar
    12    6    7 ar
    13    6   11 1
    14    7    8 ar
    15    7   33 1
    16    8    9 1
    17    9   10 1
    18   10   34 1
    19   10   35 1
    20   10   36 1
    21   11   12 2
    22   11   13 1
    23   13   14 1
    24   13   15 1
    25   13   16 1
    26   15   37 1
    27   15   38 1
    28   16   39 1
    29   16   40 1
    30   16   57 1
    31   17   18 1
    32   17   41 1
    33   17   42 1
    34   17   57 1
    35   18   19 1
    36   18   43 1
    37   18   44 1
    38   19   20 1
    39   19   22 1
    40   19   45 1
    41   20   21 1
    42   20   46 1
    43   20   47 1
    44   21   48 1
    45   21   49 1
    46   21   57 1
    47   22   23 1
    48   22   50 1
    49   22   51 1
    50   23   28 ar
    51   23   24 ar
    52   24   25 ar
    53   24   52 1
    54   25   26 ar
    55   25   53 1
    56   26   27 ar
    57   26   54 1
    58   27   28 ar
    59   27   55 1
    60   28   56 1
    61   57   58 1
@<TRIPOS>MOLECULE
ZINC03814284
   58    61     0     0     0
SMALL
USER_CHARGES

@<TRIPOS>ATOM
      1 C1          2.7758   -3.1223  -11.9247 C.3       1 <0>         0.0171
      2 O1          1.5622   -2.7149  -11.2898 O.3       1 <0>        -0.2864
      3 C2          1.6096   -2.4996   -9.9503 C.ar      1 <0>         0.1758
      4 C3          2.8012   -2.6772   -9.2610 C.ar      1 <0>        -0.1825
      5 C4          2.8580   -2.4610   -7.8992 C.ar      1 <0>        -0.0339
      6 C5          1.7134   -2.0612   -7.2061 C.ar      1 <0>        -0.2207
      7 C6          0.5082   -1.8822   -7.9072 C.ar      1 <0>        -0.0971
      8 C7          0.4608   -2.1005   -9.2674 C.ar      1 <0>         0.0952
      9 O2         -0.7062   -1.9263   -9.9437 O.3       1 <0>        -0.2950
     10 C8         -1.8431   -1.5166   -9.1810 C.3       1 <0>         0.0213
     11 C9          2.0059   -1.8920   -5.7761 C.2       1 <0>         0.4119
     12 O3          1.2131   -1.5528   -4.9230 O.2       1 <0>        -0.4596
     13 C10         3.4633   -2.2144   -5.5524 C.3       1 <0>        -0.1525
     14 H1          3.5414   -2.9722   -4.9046 H         1 <0>         0.1207
     15 C11         4.0147   -2.5842   -6.9361 C.3       1 <0>        -0.0695
     16 C12         4.1976   -0.9916   -4.9986 C.3       1 <0>         0.0060
     17 C13         4.1942   -1.6140   -2.6582 C.3       1 <0>        -0.0299
     18 C14         3.5695   -1.2974   -1.2973 C.3       1 <0>        -0.0272
     19 C15         3.3705    1.0304   -1.9303 C.3       1 <0>        -0.0334
     20 C16         3.9952    0.7138   -3.2911 C.3       1 <0>        -0.0241
     21 C17         3.3671    0.4080    0.4102 C.3       1 <0>         0.0509
     22 C18         3.9147    1.7390    0.8571 C.ar      1 <0>        -0.1792
     23 C19         3.2272    2.9023    0.5657 C.ar      1 <0>        -0.1003
     24 C20         3.7321    4.1236    0.9711 C.ar      1 <0>        -0.1106
     25 C21         4.9197    4.1808    1.6763 C.ar      1 <0>        -0.0728
     26 C22         5.6067    3.0174    1.9686 C.ar      1 <0>        -0.1094
     27 C23         5.1042    1.7965    1.5590 C.ar      1 <0>        -0.0905
     28 H2          3.5375   -2.3566  -11.7779 H         1 <0>         0.0642
     29 H3          3.1162   -4.0617  -11.4890 H         1 <0>         0.0651
     30 H4          2.5994   -3.2595  -12.9916 H         1 <0>         0.1159
     31 H5          3.6887   -2.9859   -9.7932 H         1 <0>         0.1521
     32 H6         -0.3820   -1.5735   -7.3793 H         1 <0>         0.1471
     33 H7         -2.0563   -2.2639   -8.4167 H         1 <0>         0.0596
     34 H8         -1.6349   -0.5587   -8.7045 H         1 <0>         0.0580
     35 H9         -2.7053   -1.4148   -9.8401 H         1 <0>         0.1137
     36 H10         4.8116   -1.8959   -7.2179 H         1 <0>         0.1085
     37 H11         4.3886   -3.6080   -6.9289 H         1 <0>         0.1162
     38 H12         4.0395   -0.1415   -5.6622 H         1 <0>         0.1493
     39 H13         5.2640   -1.2074   -4.9323 H         1 <0>         0.1584
     40 H14         5.2779   -1.5177   -2.5922 H         1 <0>         0.1596
     41 H15         3.9363   -2.6325   -2.9486 H         1 <0>         0.1720
     42 H16         3.9725   -1.9760   -0.5455 H         1 <0>         0.1773
     43 H17         2.4881   -1.4202   -1.3558 H         1 <0>         0.1574
     44 H18         2.2868    0.9341   -1.9963 H         1 <0>         0.1569
     45 H19         3.6284    2.0489   -1.6399 H         1 <0>         0.1751
     46 H20         5.0766    0.8365   -3.2323 H         1 <0>         0.1584
     47 H21         3.5926    1.3923   -4.0432 H         1 <0>         0.1735
     48 H22         3.6743   -0.3659    1.1135 H         1 <0>         0.1478
     49 H23         2.2787    0.4561    0.3754 H         1 <0>         0.1454
     50 H24         2.2978    2.8573    0.0174 H         1 <0>         0.1312
     51 H25         3.1973    5.0328    0.7395 H         1 <0>         0.1404
     52 H26         5.3124    5.1347    1.9960 H         1 <0>         0.1413
     53 H27         6.5363    3.0624    2.5166 H         1 <0>         0.1410
     54 H28         5.6412    0.8876    1.7870 H         1 <0>         0.1332
     55 N1          3.6508   -0.6751   -3.6619 N.4       1 <0>        -0.4152
     56 H29         2.6287   -0.7698   -3.6886 H         1 <0>         0.4401
     57 N2          3.9140    0.0912   -0.9265 N.4       1 <0>        -0.4035
     58 H30         4.9360    0.1858   -0.8997 H         1 <0>         0.4359
@<TRIPOS>BOND
     1    1    2 1
     2    1   28 1
     3    1   29 1
     4    1   30 1
     5    2    3 1
     6    3    8 ar
     7    3    4 ar
     8    4    5 ar
     9    4   31 1
    10    5   15 1
    11    5    6 ar
    12    6    7 ar
    13    6   11 1
    14    7    8 ar
    15    7   32 1
    16    8    9 1
    17    9   10 1
    18   10   33 1
    19   10   34 1
    20   10   35 1
    21   11   12 2
    22   11   13 1
    23   13   14 1
    24   13   15 1
    25   13   16 1
    26   15   36 1
    27   15   37 1
    28   16   38 1
    29   16   39 1
    30   16   55 1
    31   17   18 1
    32   17   40 1
    33   17   41 1
    34   17   55 1
    35   18   42 1
    36   18   43 1
    37   18   57 1
    38   19   20 1
    39   19   44 1
    40   19   45 1
    41   19   57 1
    42   20   46 1
    43   20   47 1
    44   20   55 1
    45   21   22 1
    46   21   48 1
    47   21   49 1
    48   21   57 1
    49   22   27 ar
    50   22   23 ar
    51   23   24 ar
    52   23   50 1
    53   24   25 ar
    54   24   51 1
    55   25   26 ar
    56   25   52 1
    57   26   27 ar
    58   26   53 1
    59   27   54 1
    60   55   56 1
    61   57   58 1
@<TRIPOS>MOLECULE
ZINC03814285
   61    64     0     0     0
SMALL
USER_CHARGES

@<TRIPOS>ATOM
      1 C1         -1.5184   -3.7268   -5.2782 C.3       1 <0>        -0.1381
      2 C2         -0.9809   -4.4846   -4.0917 C.ar      1 <0>        -0.0685
      3 C3          0.0499   -5.3906   -4.2592 C.ar      1 <0>        -0.1125
      4 C4          0.5396   -6.0891   -3.1718 C.ar      1 <0>        -0.0812
      5 C5          0.0012   -5.8791   -1.9158 C.ar      1 <0>        -0.1175
      6 C6         -1.0267   -4.9706   -1.7476 C.ar      1 <0>        -0.0863
      7 C7         -1.5159   -4.2712   -2.8352 C.ar      1 <0>        -0.1623
      8 C8         -2.6367   -3.2805   -2.6519 C.3       1 <0>         0.0474
      9 C9         -3.1825   -0.9411   -2.9512 C.3       1 <0>        -0.0031
     10 C10        -2.5813    0.4463   -3.1873 C.3       1 <0>        -0.1443
     11 C11        -1.7356    0.8439   -1.9743 C.3       1 <0>        -0.1001
     12 C12        -0.6492   -0.2114   -1.7498 C.3       1 <0>        -0.1478
     13 C13        -1.3064   -1.5800   -1.5569 C.3       1 <0>        -0.0023
     14 C14        -1.0826    2.2037   -2.2299 C.3       1 <0>        -0.1042
     15 C15        -0.3491    2.6624   -0.9680 C.3       1 <0>        -0.1294
     16 H1          0.2791    1.9445   -0.6681 H         1 <0>         0.1031
     17 C16        -1.3544    2.9997    0.1417 C.3       1 <0>        -0.0764
     18 C17        -1.1546    4.4617    0.4633 C.ar      1 <0>        -0.0426
     19 C18        -1.7972    5.2724    1.3772 C.ar      1 <0>        -0.1811
     20 C19        -1.4415    6.6079    1.5019 C.ar      1 <0>         0.1501
     21 C20        -0.4298    7.1387    0.7012 C.ar      1 <0>         0.0905
     22 C21         0.2169    6.3370   -0.2142 C.ar      1 <0>        -0.1053
     23 C22        -0.1408    4.9832   -0.3427 C.ar      1 <0>        -0.1978
     24 C23         0.3972    3.9469   -1.2348 C.2       1 <0>         0.4123
     25 O1          1.2840    4.0988   -2.0483 O.2       1 <0>        -0.4360
     26 O2         -0.0815    8.4476    0.8244 O.3       1 <0>        -0.3013
     27 C24         0.9628    8.9239   -0.0269 C.3       1 <0>         0.0223
     28 O3         -2.0779    7.3980    2.4038 O.3       1 <0>        -0.2951
     29 C25        -3.1036    6.7887    3.1904 C.3       1 <0>         0.0217
     30 H2         -1.0279   -2.7555   -5.3415 H         1 <0>         0.0715
     31 H3         -1.3233   -4.2924   -6.1893 H         1 <0>         0.0897
     32 H4         -2.5928   -3.5844   -5.1620 H         1 <0>         0.0716
     33 H5          0.4702   -5.5550   -5.2404 H         1 <0>         0.1354
     34 H6          1.3426   -6.7993   -3.3032 H         1 <0>         0.1361
     35 H7          0.3837   -6.4252   -1.0661 H         1 <0>         0.1360
     36 H8         -1.4475   -4.8068   -0.7666 H         1 <0>         0.1323
     37 H9         -3.0942   -3.4266   -1.6734 H         1 <0>         0.1370
     38 H10        -3.3856   -3.4312   -3.4294 H         1 <0>         0.1353
     39 H11        -3.8219   -0.9145   -2.0688 H         1 <0>         0.1325
     40 H12        -3.7737   -1.2332   -3.8191 H         1 <0>         0.1287
     41 H13        -3.3831    1.1716   -3.3254 H         1 <0>         0.1150
     42 H14        -1.9529    0.4245   -4.0776 H         1 <0>         0.0892
     43 H15        -2.3717    0.9055   -1.0912 H         1 <0>         0.0958
     44 H16         0.0107   -0.2446   -2.6167 H         1 <0>         0.0894
     45 H17        -0.0714    0.0443   -0.8616 H         1 <0>         0.1137
     46 H18        -1.9545   -1.5504   -0.6810 H         1 <0>         0.1310
     47 H19        -0.5347   -2.3362   -1.4122 H         1 <0>         0.1275
     48 H20        -1.8505    2.9326   -2.4890 H         1 <0>         0.0831
     49 H21        -0.3720    2.1168   -3.0519 H         1 <0>         0.0826
     50 H22        -1.1599    2.3918    1.0252 H         1 <0>         0.0931
     51 H23        -2.3710    2.8298   -0.2130 H         1 <0>         0.0933
     52 H24        -2.5808    4.8650    1.9988 H         1 <0>         0.1433
     53 H25         0.9999    6.7489   -0.8336 H         1 <0>         0.1439
     54 H26         0.6692    8.7958   -1.0687 H         1 <0>         0.0577
     55 H27         1.1411    9.9805    0.1731 H         1 <0>         0.1078
     56 H28         1.8748    8.3588    0.1658 H         1 <0>         0.0580
     57 H29        -3.8849    6.4050    2.5344 H         1 <0>         0.0593
     58 H30        -2.6789    5.9679    3.7684 H         1 <0>         0.0598
     59 H31        -3.5292    7.5284    3.8684 H         1 <0>         0.1082
     60 N1         -2.0851   -1.9148   -2.7680 N.4       1 <0>        -0.3948
     61 H32        -1.4642   -1.8744   -3.5848 H         1 <0>         0.4231
@<TRIPOS>BOND
     1    1    2 1
     2    1   30 1
     3    1   31 1
     4    1   32 1
     5    2    7 ar
     6    2    3 ar
     7    3    4 ar
     8    3   33 1
     9    4    5 ar
    10    4   34 1
    11    5    6 ar
    12    5   35 1
    13    6    7 ar
    14    6   36 1
    15    7    8 1
    16    8   37 1
    17    8   38 1
    18    8   60 1
    19    9   10 1
    20    9   39 1
    21    9   40 1
    22    9   60 1
    23   10   11 1
    24   10   41 1
    25   10   42 1
    26   11   12 1
    27   11   14 1
    28   11   43 1
    29   12   13 1
    30   12   44 1
    31   12   45 1
    32   13   46 1
    33   13   47 1
    34   13   60 1
    35   14   15 1
    36   14   48 1
    37   14   49 1
    38   15   16 1
    39   15   24 1
    40   15   17 1
    41   17   18 1
    42   17   50 1
    43   17   51 1
    44   18   23 ar
    45   18   19 ar
    46   19   20 ar
    47   19   52 1
    48   20   21 ar
    49   20   28 1
    50   21   22 ar
    51   21   26 1
    52   22   23 ar
    53   22   53 1
    54   23   24 1
    55   24   25 2
    56   26   27 1
    57   27   54 1
    58   27   55 1
    59   27   56 1
    60   28   29 1
    61   29   57 1
    62   29   58 1
    63   29   59 1
    64   60   61 1
@<TRIPOS>MOLECULE
ZINC03814286
   61    64     0     0     0
SMALL
USER_CHARGES

@<TRIPOS>ATOM
      1 C1         -2.5139    0.9796    0.0192 C.3       1 <0>        -0.1263
      2 C2         -1.2192    1.7508    0.0173 C.ar      1 <0>        -0.0745
      3 C3         -0.0126    1.0758    0.0080 C.ar      1 <0>        -0.0886
      4 C4          1.1748    1.7831    0.0004 C.ar      1 <0>        -0.1082
      5 C5          1.1561    3.1655    0.0081 C.ar      1 <0>        -0.1021
      6 C6         -0.0501    3.8402    0.0228 C.ar      1 <0>        -0.1540
      7 C7         -1.2379    3.1327    0.0294 C.ar      1 <0>        -0.1000
      8 C8         -0.0705    5.3471    0.0321 C.3       1 <0>         0.0483
      9 C9         -1.0692    5.1109   -2.1604 C.3       1 <0>        -0.0065
     10 C10        -0.9593    5.5541   -3.6211 C.3       1 <0>        -0.1414
     11 C11        -1.2189    7.0603   -3.7132 C.3       1 <0>        -0.1145
     12 C12        -0.2160    7.7985   -2.8223 C.3       1 <0>        -0.1410
     13 C13        -0.3474    7.2903   -1.3848 C.3       1 <0>        -0.0004
     14 C14        -1.0516    7.5216   -5.1624 C.3       1 <0>        -0.1006
     15 C15        -2.1345    6.8779   -6.0307 C.3       1 <0>        -0.1301
     16 H1         -2.1237    5.8870   -5.8969 H         1 <0>         0.1033
     17 C16        -1.9099    7.2287   -7.5079 C.3       1 <0>        -0.0790
     18 C17        -3.1386    7.9846   -7.9548 C.ar      1 <0>        -0.0367
     19 C18        -3.4567    8.5287   -9.1828 C.ar      1 <0>        -0.1820
     20 C19        -4.6630    9.1896   -9.3658 C.ar      1 <0>         0.1534
     21 C20        -5.5622    9.3081   -8.3056 C.ar      1 <0>         0.0881
     22 C21        -5.2531    8.7681   -7.0761 C.ar      1 <0>        -0.1046
     23 C22        -4.0317    8.0973   -6.8876 C.ar      1 <0>        -0.2039
     24 C23        -3.4887    7.4484   -5.6862 C.2       1 <0>         0.4176
     25 O1         -4.0347    7.3820   -4.6051 O.2       1 <0>        -0.4465
     26 O2         -6.7441    9.9564   -8.4857 O.3       1 <0>        -0.3011
     27 C24        -7.6166   10.0402   -7.3571 C.3       1 <0>         0.0230
     28 O3         -4.9683    9.7215  -10.5769 O.3       1 <0>        -0.2949
     29 C25        -4.0014    9.5634  -11.6172 C.3       1 <0>         0.0207
     30 H2         -2.8212    0.7881    1.0473 H         1 <0>         0.0806
     31 H3         -3.2839    1.5611   -0.4878 H         1 <0>         0.0717
     32 H4         -2.3731    0.0319   -0.5005 H         1 <0>         0.0753
     33 H5          0.0021   -0.0041    0.0020 H         1 <0>         0.1348
     34 H6          2.1173    1.2559   -0.0111 H         1 <0>         0.1357
     35 H7          2.0840    3.7182    0.0029 H         1 <0>         0.1301
     36 H8         -2.1804    3.6599    0.0413 H         1 <0>         0.1300
     37 H9         -0.9608    5.6951    0.5560 H         1 <0>         0.1355
     38 H10         0.8189    5.7193    0.5404 H         1 <0>         0.1341
     39 H11        -0.8709    4.0414   -2.0895 H         1 <0>         0.1312
     40 H12        -2.0739    5.3190   -1.7924 H         1 <0>         0.1288
     41 H13        -1.6974    5.0203   -4.2198 H         1 <0>         0.1093
     42 H14         0.0406    5.3336   -3.9946 H         1 <0>         0.0876
     43 H15        -2.2329    7.2765   -3.3769 H         1 <0>         0.1065
     44 H16        -0.4229    8.8683   -2.8504 H         1 <0>         0.1117
     45 H17         0.7962    7.6141   -3.1824 H         1 <0>         0.0883
     46 H18        -1.3555    7.4881   -1.0204 H         1 <0>         0.1304
     47 H19         0.3753    7.8037   -0.7507 H         1 <0>         0.1291
     48 H20        -1.1440    8.6065   -5.2114 H         1 <0>         0.0803
     49 H21        -0.0687    7.2238   -5.5274 H         1 <0>         0.0854
     50 H22        -1.0250    7.8564   -7.6134 H         1 <0>         0.0968
     51 H23        -1.7949    6.3180   -8.0958 H         1 <0>         0.0964
     52 H24        -2.7631    8.4393  -10.0058 H         1 <0>         0.1450
     53 H25        -5.9499    8.8600   -6.2561 H         1 <0>         0.1428
     54 H26        -7.1133   10.5683   -6.5472 H         1 <0>         0.0567
     55 H27        -8.5211   10.5806   -7.6364 H         1 <0>         0.1076
     56 H28        -7.8809    9.0357   -7.0268 H         1 <0>         0.0572
     57 H29        -3.0653   10.0347  -11.3179 H         1 <0>         0.0605
     58 H30        -3.8323    8.5018  -11.7978 H         1 <0>         0.0607
     59 H31        -4.3692   10.0330  -12.5295 H         1 <0>         0.1088
     60 N1         -0.0620    5.8398   -1.3607 N.4       1 <0>        -0.3908
     61 H32         0.8670    5.6765   -1.7664 H         1 <0>         0.4246
@<TRIPOS>BOND
     1    1    2 1
     2    1   30 1
     3    1   31 1
     4    1   32 1
     5    2    7 ar
     6    2    3 ar
     7    3    4 ar
     8    3   33 1
     9    4    5 ar
    10    4   34 1
    11    5    6 ar
    12    5   35 1
    13    6    7 ar
    14    6    8 1
    15    7   36 1
    16    8   37 1
    17    8   38 1
    18    8   60 1
    19    9   10 1
    20    9   39 1
    21    9   40 1
    22    9   60 1
    23   10   11 1
    24   10   41 1
    25   10   42 1
    26   11   12 1
    27   11   14 1
    28   11   43 1
    29   12   13 1
    30   12   44 1
    31   12   45 1
    32   13   46 1
    33   13   47 1
    34   13   60 1
    35   14   15 1
    36   14   48 1
    37   14   49 1
    38   15   16 1
    39   15   24 1
    40   15   17 1
    41   17   18 1
    42   17   50 1
    43   17   51 1
    44   18   23 ar
    45   18   19 ar
    46   19   20 ar
    47   19   52 1
    48   20   21 ar
    49   20   28 1
    50   21   22 ar
    51   21   26 1
    52   22   23 ar
    53   22   53 1
    54   23   24 1
    55   24   25 2
    56   26   27 1
    57   27   54 1
    58   27   55 1
    59   27   56 1
    60   28   29 1
    61   29   57 1
    62   29   58 1
    63   29   59 1
    64   60   61 1
@<TRIPOS>MOLECULE
ZINC03814287
   61    64     0     0     0
SMALL
USER_CHARGES

@<TRIPOS>ATOM
      1 C1          1.9079   -6.6626   -3.7268 C.3       1 <0>        -0.1318
      2 C2          0.6503   -5.8722   -3.4720 C.ar      1 <0>        -0.0436
      3 C3          0.1986   -5.6901   -2.1783 C.ar      1 <0>        -0.1182
      4 C4         -0.9544   -4.9644   -1.9445 C.ar      1 <0>        -0.0907
      5 C5         -1.6555   -4.4204   -3.0044 C.ar      1 <0>        -0.1719
      6 C6         -1.2067   -4.6069   -4.2985 C.ar      1 <0>        -0.0882
      7 C7         -0.0513   -5.3290   -4.5320 C.ar      1 <0>        -0.1174
      8 C8         -2.9125   -3.6291   -2.7496 C.3       1 <0>         0.0504
      9 C9         -3.7786   -1.3770   -2.5534 C.3       1 <0>        -0.0010
     10 C10        -3.3789    0.0996   -2.5090 C.3       1 <0>        -0.1440
     11 C11        -2.5416    0.3591   -1.2536 C.3       1 <0>        -0.1001
     12 C12        -1.3151   -0.5574   -1.2676 C.3       1 <0>        -0.1469
     13 C13        -1.7745   -2.0150   -1.3496 C.3       1 <0>        -0.0060
     14 C14        -2.0878    1.8202   -1.2347 C.3       1 <0>        -0.1042
     15 C15        -1.3728    2.1151    0.0854 C.3       1 <0>        -0.1294
     16 H1         -0.6502    1.4394    0.2313 H         1 <0>         0.1030
     17 C16        -2.3724    2.0979    1.2500 C.3       1 <0>        -0.0763
     18 C17        -2.3442    3.4827    1.8520 C.ar      1 <0>        -0.0426
     19 C18        -3.0497    4.0107    2.9145 C.ar      1 <0>        -0.1812
     20 C19        -2.8583    5.3308    3.2968 C.ar      1 <0>         0.1501
     21 C20        -1.9491    6.1329    2.6063 C.ar      1 <0>         0.0905
     22 C21        -1.2407    5.6145    1.5441 C.ar      1 <0>        -0.1054
     23 C22        -1.4321    4.2770    1.1545 C.ar      1 <0>        -0.1978
     24 C23        -0.8014    3.5120    0.0699 C.2       1 <0>         0.4123
     25 O1          0.0303    3.9320   -0.7066 O.2       1 <0>        -0.4360
     26 O2         -1.7617    7.4265    2.9820 O.3       1 <0>        -0.3012
     27 C24        -0.8153    8.1895    2.2310 C.3       1 <0>         0.0222
     28 O3         -3.5555    5.8420    4.3433 O.3       1 <0>        -0.2951
     29 C25        -4.4693    4.9645    5.0046 C.3       1 <0>         0.0216
     30 H2          1.6550   -7.7143   -3.8612 H         1 <0>         0.0836
     31 H3          2.3961   -6.2885   -4.6267 H         1 <0>         0.0760
     32 H4          2.5820   -6.5567   -2.8769 H         1 <0>         0.0758
     33 H5          0.7467   -6.1146   -1.3502 H         1 <0>         0.1352
     34 H6         -1.3073   -4.8221   -0.9338 H         1 <0>         0.1305
     35 H7         -1.7569   -4.1856   -5.1269 H         1 <0>         0.1309
     36 H8          0.3018   -5.4710   -5.5427 H         1 <0>         0.1354
     37 H9         -3.4013   -4.0034   -1.8500 H         1 <0>         0.1353
     38 H10        -3.5866   -3.7340   -3.5997 H         1 <0>         0.1339
     39 H11        -4.3764   -1.6181   -1.6745 H         1 <0>         0.1307
     40 H12        -4.3627   -1.5682   -3.4536 H         1 <0>         0.1289
     41 H13        -4.2757    0.7187   -2.4826 H         1 <0>         0.1139
     42 H14        -2.7927    0.3448   -3.3946 H         1 <0>         0.0897
     43 H15        -3.1408    0.1523   -0.3669 H         1 <0>         0.0949
     44 H16        -0.6954   -0.3229   -2.1331 H         1 <0>         0.0900
     45 H17        -0.7383   -0.4075   -0.3550 H         1 <0>         0.1125
     46 H18        -2.3818   -2.2530   -0.4763 H         1 <0>         0.1296
     47 H19        -0.9032   -2.6693   -1.3754 H         1 <0>         0.1290
     48 H20        -2.9564    2.4717   -1.3308 H         1 <0>         0.0828
     49 H21        -1.4054    1.9995   -2.0655 H         1 <0>         0.0825
     50 H22        -2.0729    1.3599    1.9942 H         1 <0>         0.0930
     51 H23        -3.3719    1.8710    0.8792 H         1 <0>         0.0932
     52 H24        -3.7544    3.3929    3.4513 H         1 <0>         0.1433
     53 H25        -0.5372    6.2362    1.0103 H         1 <0>         0.1439
     54 H26         0.1660    7.7198    2.2989 H         1 <0>         0.0580
     55 H27        -1.1273    8.2299    1.1874 H         1 <0>         0.0577
     56 H28        -0.7625    9.2010    2.6338 H         1 <0>         0.1078
     57 H29        -4.9592    5.4972    5.8196 H         1 <0>         0.1082
     58 H30        -5.2197    4.6186    4.2937 H         1 <0>         0.0593
     59 H31        -3.9259    4.1085    5.4047 H         1 <0>         0.0598
     60 N1         -2.5540   -2.2046   -2.5914 N.4       1 <0>        -0.3927
     61 H32        -1.9805   -1.9142   -3.3920 H         1 <0>         0.4259
@<TRIPOS>BOND
     1    1    2 1
     2    1   30 1
     3    1   31 1
     4    1   32 1
     5    2    7 ar
     6    2    3 ar
     7    3    4 ar
     8    3   33 1
     9    4    5 ar
    10    4   34 1
    11    5    6 ar
    12    5    8 1
    13    6    7 ar
    14    6   35 1
    15    7   36 1
    16    8   37 1
    17    8   38 1
    18    8   60 1
    19    9   10 1
    20    9   39 1
    21    9   40 1
    22    9   60 1
    23   10   11 1
    24   10   41 1
    25   10   42 1
    26   11   12 1
    27   11   14 1
    28   11   43 1
    29   12   13 1
    30   12   44 1
    31   12   45 1
    32   13   46 1
    33   13   47 1
    34   13   60 1
    35   14   15 1
    36   14   48 1
    37   14   49 1
    38   15   16 1
    39   15   24 1
    40   15   17 1
    41   17   18 1
    42   17   50 1
    43   17   51 1
    44   18   23 ar
    45   18   19 ar
    46   19   20 ar
    47   19   52 1
    48   20   21 ar
    49   20   28 1
    50   21   22 ar
    51   21   26 1
    52   22   23 ar
    53   22   53 1
    54   23   24 1
    55   24   25 2
    56   26   27 1
    57   27   54 1
    58   27   55 1
    59   27   56 1
    60   28   29 1
    61   29   57 1
    62   29   58 1
    63   29   59 1
    64   60   61 1
@<TRIPOS>MOLECULE
ZINC03814288
   60    63     0     0     0
SMALL
USER_CHARGES

@<TRIPOS>ATOM
      1 C1         -4.6110    5.5803    4.1560 C.3       1 <0>         0.0217
      2 O1         -3.7150    6.4140    3.4184 O.3       1 <0>        -0.2951
      3 C2         -3.0055    5.8260    2.4216 C.ar      1 <0>         0.1497
      4 C3         -3.1685    4.4728    2.1592 C.ar      1 <0>        -0.1807
      5 C4         -2.4506    3.8669    1.1484 C.ar      1 <0>        -0.0430
      6 C5         -1.5538    4.6147    0.3822 C.ar      1 <0>        -0.1977
      7 C6         -1.3914    5.9850    0.6501 C.ar      1 <0>        -0.1050
      8 C7         -2.1127    6.5818    1.6619 C.ar      1 <0>         0.0905
      9 O2         -1.9536    7.9076    1.9196 O.3       1 <0>        -0.3012
     10 C8         -1.0224    8.6201    1.1028 C.3       1 <0>         0.0222
     11 C9         -0.9050    3.7687   -0.6290 C.2       1 <0>         0.4108
     12 O3         -0.0807    4.1346   -1.4401 O.2       1 <0>        -0.4359
     13 C10        -1.4466    2.3670   -0.4879 C.3       1 <0>        -0.1293
     14 H1         -0.6944    1.7368   -0.2956 H         1 <0>         0.1022
     15 C11        -2.4480    2.4333    0.6733 C.3       1 <0>        -0.0747
     16 C12        -2.1525    1.9394   -1.7762 C.3       1 <0>        -0.1047
     17 C13        -2.5949    0.4798   -1.6550 C.3       1 <0>        -0.0995
     18 C14        -1.3613   -0.4230   -1.5663 C.3       1 <0>        -0.1472
     19 C15        -1.8087   -1.8855   -1.5083 C.3       1 <0>        -0.0084
     20 C16        -3.8047   -1.3869   -2.7889 C.3       1 <0>         0.0032
     21 C17        -3.4169    0.0902   -2.8868 C.3       1 <0>        -0.1440
     22 C18        -2.9195   -3.6398   -2.7529 C.3       1 <0>         0.0390
     23 C19        -1.6511   -4.4431   -2.8834 C.ar      1 <0>        -0.0927
     24 C20        -1.1611   -5.1429   -1.7964 C.ar      1 <0>        -0.0886
     25 C21         0.0022   -5.8796   -1.9161 C.ar      1 <0>        -0.0560
     26 C22         0.6754   -5.9174   -3.1232 C.ar      1 <0>        -0.0853
     27 C23         0.1850   -5.2186   -4.2101 C.ar      1 <0>        -0.0415
     28 C24        -0.9808   -4.4848   -4.0914 C.ar      1 <0>        -0.0370
     29 N1         -1.5087   -3.7405   -5.2568 N.pl3     1 <0>         0.0253
     30 O4         -0.9735   -3.8538   -6.3451 O.2       1 <0>        -0.0815
     31 O5         -2.4782   -3.0146   -5.1276 O.3       1 <0>        -0.2205
     32 H2         -5.1133    6.1734    4.9202 H         1 <0>         0.1082
     33 H3         -5.3528    5.1561    3.4794 H         1 <0>         0.0594
     34 H4         -4.0503    4.7753    4.6311 H         1 <0>         0.0595
     35 H5         -3.8605    3.8907    2.7498 H         1 <0>         0.1433
     36 H6         -0.7001    6.5711    0.0627 H         1 <0>         0.1439
     37 H7         -0.0315    8.1795    1.2125 H         1 <0>         0.0579
     38 H8         -1.3334    8.5598    0.0599 H         1 <0>         0.0579
     39 H9         -0.9919    9.6646    1.4130 H         1 <0>         0.1079
     40 H10        -2.1345    1.7718    1.4809 H         1 <0>         0.0928
     41 H11        -3.4417    2.1527    0.3242 H         1 <0>         0.0940
     42 H12        -3.0256    2.5713   -1.9391 H         1 <0>         0.0845
     43 H13        -1.4672    2.0427   -2.6175 H         1 <0>         0.0825
     44 H14        -3.2018    0.3564   -0.7581 H         1 <0>         0.0966
     45 H15        -0.7343   -0.2698   -2.4447 H         1 <0>         0.0873
     46 H16        -0.7954   -0.1787   -0.6674 H         1 <0>         0.1148
     47 H17        -2.4234   -2.0413   -0.6217 H         1 <0>         0.1347
     48 H18        -0.9322   -2.5316   -1.4607 H         1 <0>         0.1201
     49 H19        -4.4100   -1.5451   -1.8963 H         1 <0>         0.1312
     50 H20        -4.3779   -1.6711   -3.6713 H         1 <0>         0.1355
     51 H21        -4.3185    0.7011   -2.9306 H         1 <0>         0.1169
     52 H22        -2.8234    0.2524   -3.7865 H         1 <0>         0.0908
     53 H23        -3.4357   -3.9225   -1.8355 H         1 <0>         0.1473
     54 H24        -3.5647   -3.8380   -3.6087 H         1 <0>         0.1521
     55 H25        -1.6871   -5.1136   -0.8536 H         1 <0>         0.1596
     56 H26         0.3852   -6.4259   -1.0669 H         1 <0>         0.1598
     57 H27         1.5842   -6.4934   -3.2168 H         1 <0>         0.1636
     58 H28         0.7106   -5.2484   -5.1531 H         1 <0>         0.1686
     59 N2         -2.5734   -2.2035   -2.7328 N.4       1 <0>        -0.3871
     60 H29        -1.9938   -1.9888   -3.5526 H         1 <0>         0.4214
@<TRIPOS>BOND
     1    1    2 1
     2    1   32 1
     3    1   33 1
     4    1   34 1
     5    2    3 1
     6    3    8 ar
     7    3    4 ar
     8    4    5 ar
     9    4   35 1
    10    5   15 1
    11    5    6 ar
    12    6    7 ar
    13    6   11 1
    14    7    8 ar
    15    7   36 1
    16    8    9 1
    17    9   10 1
    18   10   37 1
    19   10   38 1
    20   10   39 1
    21   11   12 2
    22   11   13 1
    23   13   14 1
    24   13   15 1
    25   13   16 1
    26   15   40 1
    27   15   41 1
    28   16   17 1
    29   16   42 1
    30   16   43 1
    31   17   21 1
    32   17   18 1
    33   17   44 1
    34   18   19 1
    35   18   45 1
    36   18   46 1
    37   19   47 1
    38   19   48 1
    39   19   59 1
    40   20   21 1
    41   20   49 1
    42   20   50 1
    43   20   59 1
    44   21   51 1
    45   21   52 1
    46   22   23 1
    47   22   53 1
    48   22   54 1
    49   22   59 1
    50   23   28 ar
    51   23   24 ar
    52   24   25 ar
    53   24   55 1
    54   25   26 ar
    55   25   56 1
    56   26   27 ar
    57   26   57 1
    58   27   28 ar
    59   27   58 1
    60   28   29 1
    61   29   30 2
    62   29   31 1
    63   59   60 1
@<TRIPOS>MOLECULE
ZINC03814289
   60    63     0     0     0
SMALL
USER_CHARGES

@<TRIPOS>ATOM
      1 C1         -4.4674    4.9636    5.0061 C.3       1 <0>         0.0216
      2 O1         -3.5540    5.8412    4.3446 O.3       1 <0>        -0.2948
      3 C2         -2.8574    5.3304    3.2975 C.ar      1 <0>         0.1503
      4 C3         -3.0491    4.0100    2.9148 C.ar      1 <0>        -0.1808
      5 C4         -2.3444    3.4825    1.8521 C.ar      1 <0>        -0.0435
      6 C5         -1.4321    4.2771    1.1544 C.ar      1 <0>        -0.1983
      7 C6         -1.2405    5.6140    1.5442 C.ar      1 <0>        -0.1050
      8 C7         -1.9489    6.1324    2.6069 C.ar      1 <0>         0.0908
      9 O2         -1.7616    7.4261    2.9826 O.3       1 <0>        -0.3010
     10 C8         -0.8156    8.1893    2.2312 C.3       1 <0>         0.0222
     11 C9         -0.8015    3.5120    0.0698 C.2       1 <0>         0.4108
     12 O3          0.0302    3.9319   -0.7068 O.2       1 <0>        -0.4360
     13 C10        -1.3728    2.1151    0.0854 C.3       1 <0>        -0.1294
     14 H1         -0.6341    1.4544    0.2186 H         1 <0>         0.1026
     15 C11        -2.3724    2.0978    1.2500 C.3       1 <0>        -0.0744
     16 C12        -2.0878    1.8201   -1.2346 C.3       1 <0>        -0.1046
     17 C13        -2.5415    0.3590   -1.2535 C.3       1 <0>        -0.1002
     18 C14        -1.3150   -0.5575   -1.2675 C.3       1 <0>        -0.1477
     19 C15        -1.7744   -2.0150   -1.3495 C.3       1 <0>        -0.0090
     20 C16        -3.7785   -1.3772   -2.5533 C.3       1 <0>        -0.0005
     21 C17        -3.3789    0.0994   -2.5089 C.3       1 <0>        -0.1447
     22 C18        -2.9124   -3.6293   -2.7494 C.3       1 <0>         0.0434
     23 C19        -1.6554   -4.4205   -3.0042 C.ar      1 <0>        -0.1149
     24 C20        -1.2066   -4.6071   -4.2983 C.ar      1 <0>        -0.0911
     25 C21        -0.0514   -5.3295   -4.5318 C.ar      1 <0>        -0.0497
     26 C22         0.6505   -5.8723   -3.4718 C.ar      1 <0>        -0.0109
     27 C23         0.1988   -5.6902   -2.1781 C.ar      1 <0>        -0.0511
     28 C24        -0.9543   -4.9645   -1.9443 C.ar      1 <0>        -0.0944
     29 N1          1.8854   -6.6490   -3.7220 N.pl3     1 <0>         0.0119
     30 O4          2.5036   -7.1276   -2.7881 O.2       1 <0>        -0.1353
     31 O5          2.2834   -6.8095   -4.8619 O.3       1 <0>        -0.1351
     32 H2         -4.9568    5.4961    5.8216 H         1 <0>         0.1084
     33 H3         -5.2182    4.6179    4.2956 H         1 <0>         0.0593
     34 H4         -3.9238    4.1075    5.4057 H         1 <0>         0.0598
     35 H5         -3.7531    3.3920    3.4521 H         1 <0>         0.1434
     36 H6         -0.5371    6.2358    1.0104 H         1 <0>         0.1440
     37 H7          0.1658    7.7197    2.2988 H         1 <0>         0.0581
     38 H8         -1.1280    8.2296    1.1877 H         1 <0>         0.0578
     39 H9         -0.7629    9.2008    2.6341 H         1 <0>         0.1081
     40 H10        -2.0728    1.3597    1.9941 H         1 <0>         0.0930
     41 H11        -3.3719    1.8708    0.8791 H         1 <0>         0.0932
     42 H12        -2.9564    2.4715   -1.3308 H         1 <0>         0.0838
     43 H13        -1.4054    1.9994   -2.0655 H         1 <0>         0.0827
     44 H14        -3.1407    0.1522   -0.3668 H         1 <0>         0.0963
     45 H15        -0.6954   -0.3230   -2.1330 H         1 <0>         0.0909
     46 H16        -0.7382   -0.4075   -0.3549 H         1 <0>         0.1151
     47 H17        -2.3817   -2.2531   -0.4761 H         1 <0>         0.1345
     48 H18        -0.9031   -2.6694   -1.3753 H         1 <0>         0.1264
     49 H19        -4.3763   -1.6182   -1.6743 H         1 <0>         0.1336
     50 H20        -4.3626   -1.5685   -3.4534 H         1 <0>         0.1316
     51 H21        -4.2757    0.7185   -2.4826 H         1 <0>         0.1164
     52 H22        -2.7926    0.3446   -3.3945 H         1 <0>         0.0907
     53 H23        -3.4012   -4.0035   -1.8498 H         1 <0>         0.1460
     54 H24        -3.5864   -3.7343   -3.5995 H         1 <0>         0.1446
     55 H25        -1.7567   -4.1858   -5.1267 H         1 <0>         0.1570
     56 H26         0.3014   -5.4721   -5.5425 H         1 <0>         0.1673
     57 H27         0.7470   -6.1146   -1.3499 H         1 <0>         0.1671
     58 H28        -1.3072   -4.8222   -0.9335 H         1 <0>         0.1563
     59 N2         -2.5538   -2.2047   -2.5912 N.4       1 <0>        -0.3942
     60 H29        -1.9804   -1.9144   -3.3919 H         1 <0>         0.4276
@<TRIPOS>BOND
     1    1    2 1
     2    1   32 1
     3    1   33 1
     4    1   34 1
     5    2    3 1
     6    3    8 ar
     7    3    4 ar
     8    4    5 ar
     9    4   35 1
    10    5   15 1
    11    5    6 ar
    12    6    7 ar
    13    6   11 1
    14    7    8 ar
    15    7   36 1
    16    8    9 1
    17    9   10 1
    18   10   37 1
    19   10   38 1
    20   10   39 1
    21   11   12 2
    22   11   13 1
    23   13   14 1
    24   13   15 1
    25   13   16 1
    26   15   40 1
    27   15   41 1
    28   16   17 1
    29   16   42 1
    30   16   43 1
    31   17   21 1
    32   17   18 1
    33   17   44 1
    34   18   19 1
    35   18   45 1
    36   18   46 1
    37   19   47 1
    38   19   48 1
    39   19   59 1
    40   20   21 1
    41   20   49 1
    42   20   50 1
    43   20   59 1
    44   21   51 1
    45   21   52 1
    46   22   23 1
    47   22   53 1
    48   22   54 1
    49   22   59 1
    50   23   28 ar
    51   23   24 ar
    52   24   25 ar
    53   24   55 1
    54   25   26 ar
    55   25   56 1
    56   26   27 ar
    57   26   29 1
    58   27   28 ar
    59   27   57 1
    60   28   58 1
    61   29   30 2
    62   29   31 1
    63   59   60 1
@<TRIPOS>MOLECULE
ZINC03814290
   61    64     0     0     0
SMALL
USER_CHARGES

@<TRIPOS>ATOM
      1 C1         -4.4674    4.9636    5.0061 C.3       1 <0>         0.0216
      2 O1         -3.5540    5.8412    4.3446 O.3       1 <0>        -0.2950
      3 C2         -2.8574    5.3304    3.2975 C.ar      1 <0>         0.1500
      4 C3         -3.0491    4.0100    2.9148 C.ar      1 <0>        -0.1809
      5 C4         -2.3444    3.4825    1.8521 C.ar      1 <0>        -0.0429
      6 C5         -1.4321    4.2771    1.1544 C.ar      1 <0>        -0.1982
      7 C6         -1.2405    5.6140    1.5442 C.ar      1 <0>        -0.1050
      8 C7         -1.9489    6.1324    2.6069 C.ar      1 <0>         0.0904
      9 O2         -1.7616    7.4261    2.9826 O.3       1 <0>        -0.3012
     10 C8         -0.8156    8.1893    2.2312 C.3       1 <0>         0.0222
     11 C9         -0.8015    3.5120    0.0698 C.2       1 <0>         0.4110
     12 O3          0.0302    3.9319   -0.7068 O.2       1 <0>        -0.4363
     13 C10        -1.3728    2.1151    0.0854 C.3       1 <0>        -0.1291
     14 H1         -0.6341    1.4544    0.2186 H         1 <0>         0.1030
     15 C11        -2.3724    2.0978    1.2500 C.3       1 <0>        -0.0748
     16 C12        -2.0878    1.8201   -1.2346 C.3       1 <0>        -0.1044
     17 C13        -2.5415    0.3590   -1.2535 C.3       1 <0>        -0.1003
     18 C14        -1.3150   -0.5575   -1.2675 C.3       1 <0>        -0.1481
     19 C15        -1.7744   -2.0150   -1.3495 C.3       1 <0>        -0.0103
     20 C16        -3.7785   -1.3772   -2.5533 C.3       1 <0>         0.0003
     21 C17        -3.3789    0.0994   -2.5089 C.3       1 <0>        -0.1443
     22 C18        -2.9124   -3.6293   -2.7494 C.3       1 <0>        -0.0007
     23 C19        -1.6690   -4.4884   -2.5113 C.3       1 <0>        -0.1022
     24 C20        -2.0196   -5.9422   -2.6979 C.ar      1 <0>        -0.1090
     25 C21        -2.4538   -6.6921   -1.6209 C.ar      1 <0>        -0.1103
     26 C22        -2.7796   -8.0245   -1.7930 C.ar      1 <0>        -0.1142
     27 C23        -2.6625   -8.6092   -3.0401 C.ar      1 <0>        -0.1044
     28 C24        -2.2232   -7.8606   -4.1160 C.ar      1 <0>        -0.1138
     29 C25        -1.9016   -6.5271   -3.9448 C.ar      1 <0>        -0.1104
     30 H2         -5.2182    4.6179    4.2956 H         1 <0>         0.0593
     31 H3         -3.9238    4.1075    5.4057 H         1 <0>         0.0598
     32 H4         -4.9568    5.4961    5.8216 H         1 <0>         0.1083
     33 H5         -3.7532    3.3920    3.4521 H         1 <0>         0.1434
     34 H6         -0.5371    6.2358    1.0104 H         1 <0>         0.1439
     35 H7         -0.7629    9.2008    2.6341 H         1 <0>         0.1079
     36 H8          0.1658    7.7197    2.2988 H         1 <0>         0.0580
     37 H9         -1.1280    8.2296    1.1877 H         1 <0>         0.0577
     38 H10        -2.0728    1.3597    1.9941 H         1 <0>         0.0932
     39 H11        -3.3719    1.8708    0.8791 H         1 <0>         0.0932
     40 H12        -2.9564    2.4715   -1.3308 H         1 <0>         0.0828
     41 H13        -1.4054    1.9994   -2.0655 H         1 <0>         0.0827
     42 H14        -3.1407    0.1522   -0.3668 H         1 <0>         0.0948
     43 H15        -0.6954   -0.3230   -2.1330 H         1 <0>         0.0911
     44 H16        -0.7382   -0.4075   -0.3549 H         1 <0>         0.1134
     45 H17        -2.3817   -2.2531   -0.4761 H         1 <0>         0.1309
     46 H18        -0.9031   -2.6694   -1.3753 H         1 <0>         0.1331
     47 H19        -4.3763   -1.6182   -1.6743 H         1 <0>         0.1302
     48 H20        -4.3626   -1.5685   -3.4534 H         1 <0>         0.1290
     49 H21        -4.2757    0.7185   -2.4826 H         1 <0>         0.1138
     50 H22        -2.7929    0.3452   -3.3945 H         1 <0>         0.0903
     51 H23        -3.6894   -3.9098   -2.0383 H         1 <0>         0.1315
     52 H24        -3.2748   -3.7882   -3.7650 H         1 <0>         0.1296
     53 H25        -0.8920   -4.2079   -3.2224 H         1 <0>         0.0942
     54 H26        -1.3065   -4.3295   -1.4957 H         1 <0>         0.0969
     55 H27        -2.5418   -6.2363   -0.6458 H         1 <0>         0.1233
     56 H28        -3.1232   -8.6093   -0.9525 H         1 <0>         0.1293
     57 H29        -2.9145   -9.6508   -3.1740 H         1 <0>         0.1297
     58 H30        -2.1317   -8.3174   -5.0903 H         1 <0>         0.1294
     59 H31        -1.5584   -5.9422   -4.7854 H         1 <0>         0.1239
     60 N1         -2.5538   -2.2047   -2.5912 N.4       1 <0>        -0.3944
     61 H32        -1.9804   -1.9144   -3.3919 H         1 <0>         0.4272
@<TRIPOS>BOND
     1    1    2 1
     2    1   30 1
     3    1   31 1
     4    1   32 1
     5    2    3 1
     6    3    8 ar
     7    3    4 ar
     8    4    5 ar
     9    4   33 1
    10    5   15 1
    11    5    6 ar
    12    6    7 ar
    13    6   11 1
    14    7    8 ar
    15    7   34 1
    16    8    9 1
    17    9   10 1
    18   10   35 1
    19   10   36 1
    20   10   37 1
    21   11   12 2
    22   11   13 1
    23   13   14 1
    24   13   15 1
    25   13   16 1
    26   15   38 1
    27   15   39 1
    28   16   17 1
    29   16   40 1
    30   16   41 1
    31   17   21 1
    32   17   18 1
    33   17   42 1
    34   18   19 1
    35   18   43 1
    36   18   44 1
    37   19   45 1
    38   19   46 1
    39   19   60 1
    40   20   21 1
    41   20   47 1
    42   20   48 1
    43   20   60 1
    44   21   49 1
    45   21   50 1
    46   22   23 1
    47   22   51 1
    48   22   52 1
    49   22   60 1
    50   23   24 1
    51   23   53 1
    52   23   54 1
    53   24   29 ar
    54   24   25 ar
    55   25   26 ar
    56   25   55 1
    57   26   27 ar
    58   26   56 1
    59   27   28 ar
    60   27   57 1
    61   28   29 ar
    62   28   58 1
    63   29   59 1
    64   60   61 1
@<TRIPOS>MOLECULE
ZINC03814291
   60    63     0     0     0
SMALL
USER_CHARGES

@<TRIPOS>ATOM
      1 C1         -2.8816    2.7317    4.5389 C.3       1 <0>         0.0250
      2 O1         -2.0901    2.3528    3.4111 O.3       1 <0>        -0.3019
      3 C2         -2.6869    1.5698    2.4730 C.ar      1 <0>         0.1109
      4 C3         -4.0057    1.1793    2.6311 C.ar      1 <0>        -0.1614
      5 C4         -4.6144    0.3768    1.6804 C.ar      1 <0>        -0.0922
      6 C5         -3.9061   -0.0321    0.5654 C.ar      1 <0>        -0.1361
      7 C6         -2.5883    0.3610    0.4004 C.ar      1 <0>        -0.1518
      8 C7         -1.9758    1.1628    1.3483 C.ar      1 <0>         0.1060
      9 O2         -0.6816    1.5467    1.1837 O.3       1 <0>        -0.3023
     10 C8         -0.0127    1.0858    0.0080 C.3       1 <0>         0.0243
     11 C9         -4.7881   -0.8935   -0.3132 C.3       1 <0>         0.1546
     12 H1         -5.1574   -0.3157   -1.1606 H         1 <0>         0.0733
     13 C10        -5.9610   -1.3259    0.5920 C.3       1 <0>        -0.0797
     14 H2         -5.7483   -2.2777    1.0787 H         1 <0>         0.0955
     15 C11        -6.0205   -0.1819    1.6263 C.3       1 <0>        -0.0716
     16 C12        -7.2637   -1.4052   -0.2066 C.3       1 <0>        -0.1070
     17 C13        -8.4064   -1.8218    0.7217 C.3       1 <0>        -0.1001
     18 C14        -8.1620   -3.2466    1.2265 C.3       1 <0>        -0.1445
     19 C15        -9.3376   -3.6799    2.1052 C.3       1 <0>        -0.0071
     20 C16       -10.8605   -2.2568    0.8692 C.3       1 <0>        -0.0004
     21 C17        -9.7304   -1.7810   -0.0464 C.3       1 <0>        -0.1437
     22 C18       -11.7093   -4.1650    2.0934 C.3       1 <0>         0.0484
     23 C19       -11.2979   -5.4587    2.7479 C.ar      1 <0>        -0.1605
     24 C20       -11.4819   -6.6577    2.0850 C.ar      1 <0>        -0.0946
     25 C21       -11.1004   -7.8439    2.6835 C.ar      1 <0>        -0.1132
     26 C22       -10.5435   -7.8320    3.9486 C.ar      1 <0>        -0.0845
     27 C23       -10.3644   -6.6334    4.6136 C.ar      1 <0>        -0.1142
     28 C24       -10.7418   -5.4468    4.0134 C.ar      1 <0>        -0.0965
     29 O3         -4.0658   -2.0388   -0.7698 O.3       1 <0>        -0.5592
     30 H3         -3.7522    3.2931    4.1996 H         1 <0>         0.0558
     31 H4         -3.2099    1.8378    5.0692 H         1 <0>         0.0553
     32 H5         -2.2867    3.3533    5.2080 H         1 <0>         0.1051
     33 H6         -4.5604    1.4977    3.5014 H         1 <0>         0.1355
     34 H7         -2.0366    0.0410   -0.4712 H         1 <0>         0.1340
     35 H8          0.0021   -0.0041    0.0020 H         1 <0>         0.0562
     36 H9          1.0099    1.4631    0.0003 H         1 <0>         0.1055
     37 H10        -0.5399    1.4469   -0.8751 H         1 <0>         0.0558
     38 H11        -6.3112   -0.5696    2.6027 H         1 <0>         0.0769
     39 H12        -6.7210    0.5875    1.3017 H         1 <0>         0.0847
     40 H13        -7.4846   -0.4296   -0.6394 H         1 <0>         0.0775
     41 H14        -7.1568   -2.1407   -1.0040 H         1 <0>         0.0776
     42 H15        -8.4554   -1.1376    1.5688 H         1 <0>         0.0916
     43 H16        -8.0738   -3.9236    0.3768 H         1 <0>         0.0887
     44 H17        -7.2420   -3.2730    1.8105 H         1 <0>         0.1125
     45 H18        -9.4166   -3.0108    2.9620 H         1 <0>         0.1274
     46 H19        -9.1734   -4.6993    2.4545 H         1 <0>         0.1310
     47 H20       -10.9324   -1.5943    1.7318 H         1 <0>         0.1296
     48 H21       -11.8025   -2.2426    0.3209 H         1 <0>         0.1286
     49 H22        -9.9309   -0.7602   -0.3718 H         1 <0>         0.1126
     50 H23        -9.6666   -2.4344   -0.9165 H         1 <0>         0.0888
     51 H24       -12.0038   -3.4478    2.8596 H         1 <0>         0.1355
     52 H25       -12.5501   -4.3477    1.4243 H         1 <0>         0.1336
     53 H26       -11.9204   -6.6673    1.0981 H         1 <0>         0.1306
     54 H27       -11.2401   -8.7803    2.1638 H         1 <0>         0.1359
     55 H28       -10.2479   -8.7590    4.4173 H         1 <0>         0.1357
     56 H29        -9.9292   -6.6241    5.6021 H         1 <0>         0.1359
     57 H30       -10.6018   -4.5104    4.5329 H         1 <0>         0.1300
     58 H31        -3.2914   -1.8264   -1.3085 H         1 <0>         0.3829
     59 N1        -10.5774   -3.6421    1.3007 N.4       1 <0>        -0.3918
     60 H32       -10.4528   -4.2310    0.4689 H         1 <0>         0.4255
@<TRIPOS>BOND
     1    1    2 1
     2    1   30 1
     3    1   31 1
     4    1   32 1
     5    2    3 1
     6    3    8 ar
     7    3    4 ar
     8    4    5 ar
     9    4   33 1
    10    5   15 1
    11    5    6 ar
    12    6    7 ar
    13    6   11 1
    14    7    8 ar
    15    7   34 1
    16    8    9 1
    17    9   10 1
    18   10   35 1
    19   10   36 1
    20   10   37 1
    21   11   12 1
    22   11   13 1
    23   11   29 1
    24   13   14 1
    25   13   15 1
    26   13   16 1
    27   15   38 1
    28   15   39 1
    29   16   17 1
    30   16   40 1
    31   16   41 1
    32   17   21 1
    33   17   18 1
    34   17   42 1
    35   18   19 1
    36   18   43 1
    37   18   44 1
    38   19   45 1
    39   19   46 1
    40   19   59 1
    41   20   21 1
    42   20   47 1
    43   20   48 1
    44   20   59 1
    45   21   49 1
    46   21   50 1
    47   22   23 1
    48   22   51 1
    49   22   52 1
    50   22   59 1
    51   23   28 ar
    52   23   24 ar
    53   24   25 ar
    54   24   53 1
    55   25   26 ar
    56   25   54 1
    57   26   27 ar
    58   26   55 1
    59   27   28 ar
    60   27   56 1
    61   28   57 1
    62   29   58 1
    63   59   60 1
@<TRIPOS>MOLECULE
ZINC03814292
   50    53     0     0     0
SMALL
USER_CHARGES

@<TRIPOS>ATOM
      1 C1          5.4203   -7.5586    1.9657 C.ar      1 <0>        -0.0844
      2 C2          6.1245   -7.0040    0.9134 C.ar      1 <0>        -0.1143
      3 C3          6.9670   -5.9307    1.1349 C.ar      1 <0>        -0.0967
      4 C4          7.1057   -5.4123    2.4088 C.ar      1 <0>        -0.1609
      5 C5          6.4059   -5.9705    3.4621 C.ar      1 <0>        -0.0945
      6 C6          5.5590   -7.0402    3.2396 C.ar      1 <0>        -0.1131
      7 C7          8.0245   -4.2424    2.6503 C.3       1 <0>         0.0486
      8 C8          8.1795   -1.8325    2.4805 C.3       1 <0>         0.0000
      9 C9          7.3582   -0.5415    2.4562 C.3       1 <0>        -0.1439
     10 C10         6.4731   -0.5288    1.2068 C.3       1 <0>        -0.1001
     11 C11         5.5751   -1.7691    1.2128 C.3       1 <0>        -0.1466
     12 C12         6.4482   -3.0245    1.2747 C.3       1 <0>        -0.0067
     13 C13         5.6049    0.7310    1.2080 C.3       1 <0>        -0.1041
     14 C14         4.8256    0.8146   -0.1060 C.3       1 <0>        -0.1307
     15 H1          4.3363   -0.0441   -0.2586 H         1 <0>         0.1028
     16 C15         5.7789    1.1108   -1.2718 C.3       1 <0>        -0.0802
     17 C16         5.3323    2.4274   -1.8607 C.ar      1 <0>        -0.0523
     18 C17         5.8381    3.1532   -2.9226 C.ar      1 <0>        -0.1214
     19 C18         5.2565    4.3532   -3.2884 C.ar      1 <0>        -0.0747
     20 C19         4.1620    4.8370   -2.5926 C.ar      1 <0>        -0.1315
     21 C20         3.6465    4.1256   -1.5324 C.ar      1 <0>        -0.0470
     22 C21         4.2299    2.9063   -1.1535 C.ar      1 <0>        -0.1979
     23 C22         3.8643    1.9779   -0.0709 C.2       1 <0>         0.4086
     24 O1          2.9498    2.1223    0.7121 O.2       1 <0>        -0.4329
     25 H2          4.7616   -8.3967    1.7925 H         1 <0>         0.1358
     26 H3          6.0162   -7.4091   -0.0819 H         1 <0>         0.1360
     27 H4          7.5172   -5.4974    0.3127 H         1 <0>         0.1302
     28 H5          6.5176   -5.5682    4.4582 H         1 <0>         0.1307
     29 H6          5.0086   -7.4732    4.0618 H         1 <0>         0.1360
     30 H7          8.8450   -4.2708    1.9334 H         1 <0>         0.1359
     31 H8          8.4246   -4.2977    3.6628 H         1 <0>         0.1340
     32 H9          8.8161   -1.8747    1.5967 H         1 <0>         0.1304
     33 H10         8.8003   -1.8513    3.3762 H         1 <0>         0.1296
     34 H11         8.0298    0.3168    2.4351 H         1 <0>         0.1140
     35 H12         6.7315   -0.4914    3.3466 H         1 <0>         0.0900
     36 H13         7.1007   -0.5378    0.3157 H         1 <0>         0.0945
     37 H14         4.9196   -1.7395    2.0831 H         1 <0>         0.0898
     38 H15         4.9737   -1.7873    0.3039 H         1 <0>         0.1119
     39 H16         7.0929   -3.0611    0.3965 H         1 <0>         0.1284
     40 H17         5.8114   -3.9089    1.2948 H         1 <0>         0.1317
     41 H18         6.2408    1.6104    1.3099 H         1 <0>         0.0824
     42 H19         4.9056    0.6896    2.0431 H         1 <0>         0.0822
     43 H20         6.8028    1.1922   -0.9067 H         1 <0>         0.0931
     44 H21         5.7105    0.3221   -2.0210 H         1 <0>         0.0923
     45 H22         6.6919    2.7812   -3.4695 H         1 <0>         0.1299
     46 H23         5.6546    4.9124   -4.1221 H         1 <0>         0.1350
     47 H24         3.7111    5.7746   -2.8824 H         1 <0>         0.1353
     48 H25         2.7922    4.5059   -0.9920 H         1 <0>         0.1310
     49 N1          7.2571   -2.9875    2.5115 N.4       1 <0>        -0.3922
     50 H26         6.6286   -2.8902    3.3176 H         1 <0>         0.4260
@<TRIPOS>BOND
     1    1    6 ar
     2    1    2 ar
     3    1   25 1
     4    2    3 ar
     5    2   26 1
     6    3    4 ar
     7    3   27 1
     8    4    5 ar
     9    4    7 1
    10    5    6 ar
    11    5   28 1
    12    6   29 1
    13    7   30 1
    14    7   31 1
    15    7   49 1
    16    8    9 1
    17    8   32 1
    18    8   33 1
    19    8   49 1
    20    9   10 1
    21    9   34 1
    22    9   35 1
    23   10   11 1
    24   10   13 1
    25   10   36 1
    26   11   12 1
    27   11   37 1
    28   11   38 1
    29   12   39 1
    30   12   40 1
    31   12   49 1
    32   13   14 1
    33   13   41 1
    34   13   42 1
    35   14   15 1
    36   14   23 1
    37   14   16 1
    38   16   17 1
    39   16   43 1
    40   16   44 1
    41   17   22 ar
    42   17   18 ar
    43   18   19 ar
    44   18   45 1
    45   19   20 ar
    46   19   46 1
    47   20   21 ar
    48   20   47 1
    49   21   22 ar
    50   21   48 1
    51   22   23 1
    52   23   24 2
    53   49   50 1
