@<TRIPOS>MOLECULE
ZINC01614355
   43    44     0     0     0
SMALL
USER_CHARGES

@<TRIPOS>ATOM
      1 C1         -6.9756   -8.7630   -4.1837 C.3       1 <0>        -0.1548
      2 C2         -6.5228   -7.3112   -4.0159 C.3       1 <0>        -0.1261
      3 C3         -5.5700   -7.2087   -2.8232 C.3       1 <0>        -0.1211
      4 C4         -5.1172   -5.7569   -2.6554 C.3       1 <0>        -0.1198
      5 C5         -4.1644   -5.6544   -1.4627 C.3       1 <0>        -0.1195
      6 C6         -3.7116   -4.2026   -1.2950 C.3       1 <0>        -0.1344
      7 C7         -2.6597   -4.1213   -0.1869 C.3       1 <0>         0.1057
      8 H1         -1.8459   -4.8121   -0.4071 H         1 <0>         0.1179
      9 C8         -3.2988   -4.4962    1.1516 C.3       1 <0>         0.0940
     10 H2         -3.7064   -5.5052    1.0897 H         1 <0>         0.0837
     11 C9         -2.2408   -4.4404    2.2554 C.3       1 <0>        -0.1478
     12 O1         -4.3497   -3.5756    1.4522 O.3       1 <0>        -0.5575
     13 N1         -2.1342   -2.7558   -0.1117 N.pl3     1 <0>        -0.4605
     14 C10        -2.8517   -1.6293    0.1614 C.2       1 <0>         0.2815
     15 N2         -2.0688   -0.5898    0.1499 N.2       1 <0>        -0.4738
     16 C11        -0.8005   -0.9834   -0.1181 C.ar      1 <0>        -0.1024
     17 C12        -0.8269   -2.3782   -0.2870 C.ar      1 <0>         0.2912
     18 N3          0.3067   -3.0179   -0.5550 N.ar      1 <0>        -0.5407
     19 C13         1.4397   -2.3570   -0.6669 C.ar      1 <0>         0.3458
     20 N4          1.5131   -1.0466   -0.5225 N.ar      1 <0>        -0.5498
     21 C14         0.4318   -0.3221   -0.2531 C.ar      1 <0>         0.4538
     22 N5          0.5187    1.0510   -0.1035 N.pl3     1 <0>        -0.7520
     23 H3         -7.4888   -9.0903   -3.2795 H         1 <0>         0.0538
     24 H4         -7.6544   -8.8360   -5.0334 H         1 <0>         0.0543
     25 H5         -6.1062   -9.3970   -4.3577 H         1 <0>         0.0538
     26 H6         -7.3922   -6.6772   -3.8420 H         1 <0>         0.0610
     27 H7         -6.0095   -6.9839   -4.9201 H         1 <0>         0.0607
     28 H8         -4.7006   -7.8427   -2.9972 H         1 <0>         0.0622
     29 H9         -6.0833   -7.5360   -1.9190 H         1 <0>         0.0622
     30 H10        -5.9866   -5.1229   -2.4815 H         1 <0>         0.0641
     31 H11        -4.6040   -5.4296   -3.5596 H         1 <0>         0.0634
     32 H12        -3.2950   -6.2884   -1.6367 H         1 <0>         0.0700
     33 H13        -4.6777   -5.9817   -0.5585 H         1 <0>         0.0686
     34 H14        -4.5682   -3.5833   -1.0289 H         1 <0>         0.0733
     35 H15        -3.2819   -3.8456   -2.2309 H         1 <0>         0.0783
     36 H16        -1.9068   -3.4112    2.3869 H         1 <0>         0.0592
     37 H17        -2.6698   -4.8052    3.1887 H         1 <0>         0.0706
     38 H18        -1.3920   -5.0651    1.9770 H         1 <0>         0.0740
     39 H19        -5.0572   -3.5576    0.7932 H         1 <0>         0.3773
     40 H20        -3.9149   -1.6022    0.3497 H         1 <0>         0.2225
     41 H21         2.3430   -2.9073   -0.8853 H         1 <0>         0.2079
     42 H22         1.1352    1.2654    0.6541 H         1 <0>         0.3667
     43 H23        -0.2783    1.5692    0.0890 H         1 <0>         0.3827
@<TRIPOS>BOND
     1    1    2 1
     2    1   23 1
     3    1   24 1
     4    1   25 1
     5    2    3 1
     6    2   26 1
     7    2   27 1
     8    3    4 1
     9    3   28 1
    10    3   29 1
    11    4    5 1
    12    4   30 1
    13    4   31 1
    14    5    6 1
    15    5   32 1
    16    5   33 1
    17    6    7 1
    18    6   34 1
    19    6   35 1
    20    7    8 1
    21    7    9 1
    22    7   13 1
    23    9   10 1
    24    9   11 1
    25    9   12 1
    26   11   36 1
    27   11   37 1
    28   11   38 1
    29   12   39 1
    30   13   17 1
    31   13   14 1
    32   14   15 2
    33   14   40 1
    34   15   16 1
    35   16   21 ar
    36   16   17 ar
    37   17   18 ar
    38   18   19 ar
    39   19   20 ar
    40   19   41 1
    41   20   21 ar
    42   21   22 1
    43   22   42 1
    44   22   43 1
@<TRIPOS>MOLECULE
ZINC02169852
   31    33     0     0     0
SMALL
USER_CHARGES

@<TRIPOS>ATOM
      1 C1          5.5422   -0.2663   -3.3785 C.2       1 <0>         0.3783
      2 N1          4.4159    0.0690   -2.7850 N.2       1 <0>        -0.5014
      3 C2          4.4203    0.5370   -1.5419 C.2       1 <0>         0.2769
      4 C3          5.6467    0.6727   -0.8674 C.2       1 <0>        -0.0722
      5 C4          6.8193    0.3066   -1.5446 C.2       1 <0>         0.5126
      6 N2          6.7161   -0.1584   -2.7835 N.am      1 <0>        -0.5809
      7 O1          8.0285    0.4116   -0.9425 O.2       1 <0>        -0.5742
      8 N3          5.3713    1.1616    0.3660 N.2       1 <0>        -0.4238
      9 C5          4.0872    1.3347    0.4866 C.2       1 <0>         0.2473
     10 N4          3.4569    0.9668   -0.6647 N.pl3     1 <0>        -0.4530
     11 C6          2.0146    1.0153   -0.9168 C.3       1 <0>         0.3088
     12 H1          1.8201    1.3123   -1.9474 H         1 <0>         0.1262
     13 C7          1.3706   -0.3575   -0.6221 C.3       1 <0>         0.0792
     14 H2          1.9790   -0.9208    0.0855 H         1 <0>         0.0876
     15 C8          0.0021   -0.0041    0.0020 C.3       1 <0>         0.0471
     16 H3         -0.0661   -0.3925    1.0182 H         1 <0>         0.0889
     17 C9         -0.0189    1.5406    0.0105 C.3       1 <0>         0.0501
     18 H4         -0.5253    1.9181   -0.8778 H         1 <0>         0.1014
     19 O2          1.3722    1.9285   -0.0007 O.3       1 <0>        -0.3446
     20 C10        -0.7057    2.0570    1.2764 C.3       1 <0>         0.0813
     21 O3         -0.8186    3.4800    1.2104 O.3       1 <0>        -0.5636
     22 O4         -1.0642   -0.5149   -0.8005 O.3       1 <0>        -0.5405
     23 O5          1.1932   -1.0974   -1.8317 O.3       1 <0>        -0.5272
     24 H5          5.5045   -0.6436   -4.3898 H         1 <0>         0.2256
     25 H6          7.5426   -0.4322   -3.2754 H         1 <0>         0.4413
     26 H7          3.5934    1.7138    1.3691 H         1 <0>         0.2288
     27 H8         -1.6997    1.6169    1.3558 H         1 <0>         0.0679
     28 H9         -0.1148    1.7795    2.1493 H         1 <0>         0.0621
     29 H10        -1.2456    3.8769    1.9819 H         1 <0>         0.3878
     30 H11        -1.9453   -0.2710   -0.4854 H         1 <0>         0.3894
     31 H12         0.7383   -1.9425   -1.7128 H         1 <0>         0.3928
@<TRIPOS>BOND
     1    1   24 1
     2    1    2 2
     3    1    6 1
     4    2    3 1
     5    3   10 1
     6    3    4 2
     7    4    8 1
     8    4    5 1
     9    5    6 am
    10    5    7 2
    11    6   25 1
    12    8    9 2
    13    9   10 1
    14    9   26 1
    15   10   11 1
    16   11   12 1
    17   11   19 1
    18   11   13 1
    19   13   14 1
    20   13   15 1
    21   13   23 1
    22   15   16 1
    23   15   17 1
    24   15   22 1
    25   17   18 1
    26   17   19 1
    27   17   20 1
    28   20   21 1
    29   20   27 1
    30   20   28 1
    31   21   29 1
    32   22   30 1
    33   23   31 1
@<TRIPOS>MOLECULE
ZINC02169852
   31    33     0     0     0
SMALL
USER_CHARGES

@<TRIPOS>ATOM
      1 C1          5.5422   -0.2663   -3.3785 C.2       1 <0>         0.3783
      2 N1          4.4159    0.0690   -2.7850 N.2       1 <0>        -0.5014
      3 C2          4.4203    0.5370   -1.5419 C.2       1 <0>         0.2769
      4 C3          5.6467    0.6727   -0.8674 C.2       1 <0>        -0.0722
      5 C4          6.8193    0.3066   -1.5446 C.2       1 <0>         0.5126
      6 N2          6.7161   -0.1584   -2.7835 N.am      1 <0>        -0.5809
      7 O1          8.0285    0.4116   -0.9425 O.2       1 <0>        -0.5742
      8 N3          5.3713    1.1616    0.3660 N.2       1 <0>        -0.4238
      9 C5          4.0872    1.3347    0.4866 C.2       1 <0>         0.2473
     10 N4          3.4569    0.9668   -0.6647 N.pl3     1 <0>        -0.4530
     11 C6          2.0146    1.0153   -0.9168 C.3       1 <0>         0.3088
     12 H1          1.8201    1.3123   -1.9474 H         1 <0>         0.1262
     13 C7          1.3706   -0.3575   -0.6221 C.3       1 <0>         0.0792
     14 H2          1.9790   -0.9208    0.0855 H         1 <0>         0.0876
     15 C8          0.0021   -0.0041    0.0020 C.3       1 <0>         0.0471
     16 H3         -0.0661   -0.3925    1.0182 H         1 <0>         0.0889
     17 C9         -0.0189    1.5406    0.0105 C.3       1 <0>         0.0501
     18 H4         -0.5253    1.9181   -0.8778 H         1 <0>         0.1014
     19 O2          1.3722    1.9285   -0.0007 O.3       1 <0>        -0.3446
     20 C10        -0.7057    2.0570    1.2764 C.3       1 <0>         0.0813
     21 O3         -0.8186    3.4800    1.2104 O.3       1 <0>        -0.5636
     22 O4         -1.0642   -0.5149   -0.8005 O.3       1 <0>        -0.5405
     23 O5          1.1932   -1.0974   -1.8317 O.3       1 <0>        -0.5272
     24 H5          5.5045   -0.6436   -4.3898 H         1 <0>         0.2256
     25 H6          7.5426   -0.4322   -3.2754 H         1 <0>         0.4413
     26 H7          3.5934    1.7138    1.3691 H         1 <0>         0.2288
     27 H8         -1.6997    1.6169    1.3558 H         1 <0>         0.0679
     28 H9         -0.1148    1.7795    2.1493 H         1 <0>         0.0621
     29 H10        -1.2456    3.8769    1.9819 H         1 <0>         0.3878
     30 H11        -1.9453   -0.2710   -0.4854 H         1 <0>         0.3894
     31 H12         0.7383   -1.9425   -1.7128 H         1 <0>         0.3928
@<TRIPOS>BOND
     1    1   24 1
     2    1    2 2
     3    1    6 1
     4    2    3 1
     5    3   10 1
     6    3    4 2
     7    4    8 1
     8    4    5 1
     9    5    6 am
    10    5    7 2
    11    6   25 1
    12    8    9 2
    13    9   10 1
    14    9   26 1
    15   10   11 1
    16   11   12 1
    17   11   19 1
    18   11   13 1
    19   13   14 1
    20   13   15 1
    21   13   23 1
    22   15   16 1
    23   15   17 1
    24   15   22 1
    25   17   18 1
    26   17   19 1
    27   17   20 1
    28   20   21 1
    29   20   27 1
    30   20   28 1
    31   21   29 1
    32   22   30 1
    33   23   31 1
@<TRIPOS>MOLECULE
ZINC03814293
   33    35     0     0     0
SMALL
USER_CHARGES

@<TRIPOS>ATOM
      1 C1          0.0021   -0.0041    0.0020 C.2       1 <0>         0.1937
      2 N1          1.2468   -0.4131   -0.0119 N.2       1 <0>        -0.4530
      3 C2          2.0537    0.6375   -0.0139 C.2       1 <0>        -0.0648
      4 C3          1.2814    1.7731   -0.0007 C.2       1 <0>         0.2171
      5 N2         -0.0164    1.3605    0.0095 N.pl3     1 <0>        -0.4391
      6 C4         -1.2047    2.2173    0.0201 C.3       1 <0>         0.3144
      7 H1         -1.0406    3.0914    0.6504 H         1 <0>         0.1210
      8 C5         -1.5810    2.6464   -1.4210 C.3       1 <0>         0.0810
      9 H2         -1.4077    1.8339   -2.1265 H         1 <0>         0.0894
     10 C6         -3.0936    2.9471   -1.2853 C.3       1 <0>         0.0445
     11 H3         -3.6354    2.5792   -2.1566 H         1 <0>         0.0873
     12 C7         -3.5197    2.1771   -0.0203 C.3       1 <0>         0.0528
     13 H4         -3.8738    2.8761    0.7374 H         1 <0>         0.0981
     14 O1         -2.3618    1.4765    0.4639 O.3       1 <0>        -0.3483
     15 C8         -4.6277    1.1804   -0.3666 C.3       1 <0>         0.0771
     16 O2         -5.0968    0.5551    0.8297 O.3       1 <0>        -0.5629
     17 O3         -3.3116    4.3494   -1.1176 O.3       1 <0>        -0.5356
     18 O4         -0.8609    3.8183   -1.8086 O.3       1 <0>        -0.5175
     19 N3          1.8329    3.0214   -0.0005 N.2       1 <0>        -0.5115
     20 C9          3.1142    3.1376    0.2333 C.2       1 <0>         0.3932
     21 N4          3.9026    2.0537    0.5158 N.pl3     1 <0>        -0.7612
     22 C10         3.5617    0.7256   -0.0279 C.3       1 <0>         0.4120
     23 H5          3.9884   -0.0568    0.5998 H         1 <0>         0.0998
     24 O5          4.0483    0.6008   -1.3657 O.3       1 <0>        -0.5674
     25 H6         -0.8684   -0.6434    0.0071 H         1 <0>         0.2156
     26 H7         -5.4517    1.7062   -0.8489 H         1 <0>         0.0661
     27 H8         -4.2352    0.4215   -1.0434 H         1 <0>         0.0591
     28 H9         -5.8019   -0.0908    0.6854 H         1 <0>         0.3858
     29 H10        -4.2427    4.5947   -1.0275 H         1 <0>         0.3853
     30 H11        -1.0623    4.1259   -2.7029 H         1 <0>         0.3856
     31 H12         3.5647    4.1187    0.2030 H         1 <0>         0.1921
     32 H13         4.6876    2.1599    1.0757 H         1 <0>         0.4098
     33 H14         5.0112    0.6495   -1.4402 H         1 <0>         0.3804
@<TRIPOS>BOND
     1    1    5 1
     2    1    2 2
     3    1   25 1
     4    2    3 1
     5    3   22 1
     6    3    4 2
     7    4    5 1
     8    4   19 1
     9    5    6 1
    10    6    7 1
    11    6   14 1
    12    6    8 1
    13    8    9 1
    14    8   10 1
    15    8   18 1
    16   10   11 1
    17   10   12 1
    18   10   17 1
    19   12   13 1
    20   12   14 1
    21   12   15 1
    22   15   16 1
    23   15   26 1
    24   15   27 1
    25   16   28 1
    26   17   29 1
    27   18   30 1
    28   19   20 2
    29   20   21 1
    30   20   31 1
    31   21   22 1
    32   21   32 1
    33   22   23 1
    34   22   24 1
    35   24   33 1
@<TRIPOS>MOLECULE
ZINC03814294
   35    37     0     0     0
SMALL
USER_CHARGES

@<TRIPOS>ATOM
      1 C1         -2.2143    1.5047    2.8308 C.2       1 <0>         0.2160
      2 N1         -1.7351    0.8401    1.8198 N.2       1 <0>        -0.4788
      3 C2         -0.7658    1.5589    1.2196 C.2       1 <0>        -0.0315
      4 C3         -0.6273    2.7235    1.8980 C.2       1 <0>         0.2401
      5 N2         -1.5617    2.6904    2.9215 N.pl3     1 <0>        -0.4665
      6 C4         -1.7994    3.7396    3.9158 C.3       1 <0>         0.3110
      7 H1         -0.8569    4.2182    4.1819 H         1 <0>         0.1125
      8 C5         -2.7772    4.7871    3.3489 C.3       1 <0>        -0.1908
      9 C6         -3.9603    4.7813    4.3473 C.3       1 <0>         0.0793
     10 H2         -4.7726    4.1517    3.9843 H         1 <0>         0.0822
     11 C7         -3.3117    4.1707    5.6157 C.3       1 <0>         0.0903
     12 H3         -2.7627    4.9317    6.1704 H         1 <0>         0.0980
     13 O1         -2.4080    3.1730    5.0884 O.3       1 <0>        -0.3559
     14 C8         -4.3740    3.5203    6.5042 C.3       1 <0>         0.0855
     15 O2         -3.7691    3.0694    7.7177 O.3       1 <0>        -0.5660
     16 O3         -4.4217    6.1102    4.5990 O.3       1 <0>        -0.5510
     17 N3          0.2112    3.7664    1.7019 N.2       1 <0>        -0.5743
     18 C9          1.1314    3.9124    0.8314 C.2       1 <0>         0.4318
     19 N4          1.4551    3.0412   -0.1462 N.pl3     1 <0>        -0.7483
     20 C10         1.4139    1.5996   -0.0029 C.3       1 <0>         0.0871
     21 C11        -0.0127    1.0858    0.0080 C.3       1 <0>         0.1710
     22 H4          0.0021   -0.0041    0.0020 H         1 <0>         0.0786
     23 O4         -0.6835    1.5487   -1.1658 O.3       1 <0>        -0.5545
     24 H5         -3.0018    1.1680    3.4888 H         1 <0>         0.2092
     25 H6         -2.3079    5.7704    3.3191 H         1 <0>         0.1045
     26 H7         -3.1137    4.4957    2.3539 H         1 <0>         0.0909
     27 H8         -5.1510    4.2493    6.7346 H         1 <0>         0.0717
     28 H9         -4.8154    2.6720    5.9811 H         1 <0>         0.0573
     29 H10        -4.3853    2.6455    8.3306 H         1 <0>         0.3853
     30 H11        -4.7541    6.5664    3.8138 H         1 <0>         0.3892
     31 H12         1.7089    4.8236    0.8821 H         1 <0>         0.1769
     32 H13         1.7343    3.4036   -1.0016 H         1 <0>         0.4023
     33 H14         1.9008    1.3200    0.9314 H         1 <0>         0.0749
     34 H15         1.9511    1.1430   -0.8342 H         1 <0>         0.0973
     35 H16        -0.2672    1.2694   -1.9927 H         1 <0>         0.3746
@<TRIPOS>BOND
     1    1    5 1
     2    1    2 2
     3    1   24 1
     4    2    3 1
     5    3   21 1
     6    3    4 2
     7    4    5 1
     8    4   17 1
     9    5    6 1
    10    6    7 1
    11    6   13 1
    12    6    8 1
    13    8    9 1
    14    8   25 1
    15    8   26 1
    16    9   10 1
    17    9   11 1
    18    9   16 1
    19   11   12 1
    20   11   13 1
    21   11   14 1
    22   14   15 1
    23   14   27 1
    24   14   28 1
    25   15   29 1
    26   16   30 1
    27   17   18 2
    28   18   19 1
    29   18   31 1
    30   19   20 1
    31   19   32 1
    32   20   21 1
    33   20   33 1
    34   20   34 1
    35   21   22 1
    36   21   23 1
    37   23   35 1
@<TRIPOS>MOLECULE
ZINC03814294
   36    38     0     0     0
SMALL
USER_CHARGES

@<TRIPOS>ATOM
      1 C1         -2.2143    1.5047    2.8308 C.cat     1 <0>         0.3213
      2 C2         -0.7658    1.5589    1.2196 C.2       1 <0>        -0.0454
      3 C3         -0.6273    2.7235    1.8980 C.2       1 <0>         0.3409
      4 N1         -1.5617    2.6904    2.9215 N.pl3     1 <0>        -0.4253
      5 C4         -1.7994    3.7396    3.9158 C.3       1 <0>         0.3023
      6 H1         -0.8569    4.2182    4.1819 H         1 <0>         0.1424
      7 C5         -2.7772    4.7871    3.3489 C.3       1 <0>        -0.1962
      8 C6         -3.9603    4.7813    4.3473 C.3       1 <0>         0.0808
      9 H2         -4.7726    4.1517    3.9843 H         1 <0>         0.0860
     10 C7         -3.3117    4.1707    5.6157 C.3       1 <0>         0.0894
     11 H3         -2.7627    4.9317    6.1704 H         1 <0>         0.1094
     12 O1         -2.4080    3.1730    5.0884 O.3       1 <0>        -0.3566
     13 C8         -4.3740    3.5203    6.5042 C.3       1 <0>         0.0845
     14 O2         -3.7691    3.0694    7.7177 O.3       1 <0>        -0.5665
     15 O3         -4.4217    6.1102    4.5990 O.3       1 <0>        -0.5435
     16 N2          0.2112    3.7664    1.7019 N.2       1 <0>        -0.5905
     17 C9          1.1314    3.9124    0.8314 C.2       1 <0>         0.4882
     18 N3          1.4551    3.0412   -0.1462 N.pl3     1 <0>        -0.7340
     19 C10         1.4139    1.5996   -0.0029 C.3       1 <0>         0.0776
     20 C11        -0.0127    1.0858    0.0080 C.3       1 <0>         0.1554
     21 H4          0.0021   -0.0041    0.0020 H         1 <0>         0.0958
     22 O4         -0.6835    1.5487   -1.1658 O.3       1 <0>        -0.5525
     23 H5         -3.0018    1.1680    3.4888 H         1 <0>         0.2607
     24 H6         -2.3079    5.7704    3.3191 H         1 <0>         0.1207
     25 H7         -3.1137    4.4957    2.3539 H         1 <0>         0.0951
     26 H8         -5.1510    4.2493    6.7346 H         1 <0>         0.0794
     27 H9         -4.8154    2.6720    5.9811 H         1 <0>         0.0567
     28 H10        -4.3853    2.6455    8.3306 H         1 <0>         0.3920
     29 H11        -4.7541    6.5664    3.8138 H         1 <0>         0.3953
     30 H12         1.7089    4.8236    0.8821 H         1 <0>         0.2020
     31 H13         1.7343    3.4036   -1.0016 H         1 <0>         0.4192
     32 H14         1.9008    1.3200    0.9314 H         1 <0>         0.0907
     33 H15         1.9511    1.1430   -0.8342 H         1 <0>         0.1206
     34 H16        -0.2672    1.2694   -1.9927 H         1 <0>         0.3976
     35 N4         -1.7357    0.8383    1.8192 N.pl3     1 <0>        -0.4699
     36 H17        -2.0490   -0.0936    1.5233 H         1 <0>         0.4764
@<TRIPOS>BOND
     1    1    4 1
     2    1   23 1
     3    1   35 2
     4    2   20 1
     5    2    3 2
     6    2   35 1
     7    3    4 1
     8    3   16 1
     9    4    5 1
    10    5    6 1
    11    5   12 1
    12    5    7 1
    13    7    8 1
    14    7   24 1
    15    7   25 1
    16    8    9 1
    17    8   10 1
    18    8   15 1
    19   10   11 1
    20   10   12 1
    21   10   13 1
    22   13   14 1
    23   13   26 1
    24   13   27 1
    25   14   28 1
    26   15   29 1
    27   16   17 2
    28   17   18 1
    29   17   30 1
    30   18   19 1
    31   18   31 1
    32   19   20 1
    33   19   32 1
    34   19   33 1
    35   20   21 1
    36   20   22 1
    37   22   34 1
    38   35   36 1
@<TRIPOS>MOLECULE
ZINC03814295
   36    38     0     0     0
SMALL
USER_CHARGES

@<TRIPOS>ATOM
      1 C1          1.4705    1.8550   -0.0020 C.3       1 <0>        -0.1852
      2 C2          2.1941    0.6401   -0.6246 C.3       1 <0>         0.0780
      3 H1          2.9084    0.2156    0.0809 H         1 <0>         0.0760
      4 C3          1.0577   -0.3652   -0.9151 C.3       1 <0>         0.0789
      5 H2          0.7162   -0.2646   -1.9453 H         1 <0>         0.0839
      6 O1          0.0021   -0.0041    0.0020 O.3       1 <0>        -0.3240
      7 C4         -0.0175    1.4400    0.0100 C.3       1 <0>         0.1132
      8 H3         -0.5239    1.8175   -0.8784 H         1 <0>         0.0705
      9 C5         -0.7043    1.9564    1.2759 C.3       1 <0>        -0.0756
     10 H4         -0.2139    1.6227    2.0810 H         1 <0>         0.1153
     11 C6         -0.7814    3.4671    1.2647 C.2       1 <0>         0.0924
     12 N1         -2.0310    3.7662    1.2810 N.2       1 <0>        -0.4320
     13 C7         -2.8660    2.6910    1.3022 C.2       1 <0>        -0.0481
     14 C8         -2.1707    1.5356    1.3045 C.2       1 <0>         0.1129
     15 N2         -2.5630    0.2655    1.3176 N.2       1 <0>        -0.5480
     16 C9         -3.7380   -0.2360    1.3762 C.2       1 <0>         0.4166
     17 N3         -4.8904    0.4597    1.4039 N.pl3     1 <0>        -0.7481
     18 C10        -5.0498    1.7335    2.0758 C.3       1 <0>         0.0841
     19 C11        -4.3662    2.8533    1.3212 C.3       1 <0>         0.1617
     20 H5         -4.7342    2.8653    0.2952 H         1 <0>         0.0659
     21 O2         -4.6908    4.0982    1.9432 O.3       1 <0>        -0.5413
     22 C12         1.5303   -1.7955   -0.6467 C.3       1 <0>         0.0882
     23 O3          0.4796   -2.7113   -0.9619 O.3       1 <0>        -0.5628
     24 O4          2.8519    1.0160   -1.8362 O.3       1 <0>        -0.5580
     25 H6          1.6145    2.7424   -0.6184 H         1 <0>         0.0932
     26 H7          1.8257    2.0321    1.0131 H         1 <0>         0.0883
     27 H8          0.0491    4.1574    1.2461 H         1 <0>         0.1923
     28 H9         -3.8124   -1.3130    1.4065 H         1 <0>         0.1780
     29 H10        -5.6598    0.0860    0.9464 H         1 <0>         0.4031
     30 H11        -4.6204    1.6644    3.0753 H         1 <0>         0.0751
     31 H12        -6.1128    1.9590    2.1606 H         1 <0>         0.0973
     32 H13        -5.6397    4.2769    1.9940 H         1 <0>         0.3763
     33 H14         2.4001   -2.0131   -1.2665 H         1 <0>         0.0617
     34 H15         1.7985   -1.8982    0.4048 H         1 <0>         0.0544
     35 H16         0.7095   -3.6391   -0.8153 H         1 <0>         0.3808
     36 H17         3.5747    1.6463   -1.7121 H         1 <0>         0.3851
@<TRIPOS>BOND
     1    1    7 1
     2    1    2 1
     3    1   25 1
     4    1   26 1
     5    2    3 1
     6    2    4 1
     7    2   24 1
     8    4    5 1
     9    4    6 1
    10    4   22 1
    11    6    7 1
    12    7    8 1
    13    7    9 1
    14    9   10 1
    15    9   14 1
    16    9   11 1
    17   11   12 2
    18   11   27 1
    19   12   13 1
    20   13   19 1
    21   13   14 2
    22   14   15 1
    23   15   16 2
    24   16   17 1
    25   16   28 1
    26   17   18 1
    27   17   29 1
    28   18   19 1
    29   18   30 1
    30   18   31 1
    31   19   20 1
    32   19   21 1
    33   21   32 1
    34   22   23 1
    35   22   33 1
    36   22   34 1
    37   23   35 1
    38   24   36 1
@<TRIPOS>MOLECULE
ZINC03814295
   36    38     0     0     0
SMALL
USER_CHARGES

@<TRIPOS>ATOM
      1 C1          1.4695    1.8557   -0.0059 C.3       1 <0>        -0.1689
      2 C2          2.1925    0.6412   -0.6299 C.3       1 <0>         0.0796
      3 H1          2.9074    0.2163    0.0748 H         1 <0>         0.0819
      4 C3          1.0559   -0.3639   -0.9201 C.3       1 <0>         0.0777
      5 H2          0.7136   -0.2627   -1.9499 H         1 <0>         0.0907
      6 O1          0.0010   -0.0033   -0.0019 O.3       1 <0>        -0.3345
      7 C4         -0.0185    1.4407    0.0070 C.3       1 <0>         0.1231
      8 H3         -0.5256    1.8188   -0.8808 H         1 <0>         0.1058
      9 C5         -0.7043    1.9564    1.2737 C.2       1 <0>         0.0832
     10 H4         -0.6803    1.5487    3.3179 H         1 <0>         0.1792
     11 C6         -0.7814    3.4671    1.2647 C.2       1 <0>         0.1827
     12 N1         -2.0310    3.7662    1.2810 N.2       1 <0>        -0.5368
     13 C7         -1.7284    2.7601    3.1495 C.2       1 <0>        -0.2070
     14 C8         -1.3704    1.5841    2.5951 C.3       1 <0>         0.1826
     15 N2         -1.5197    0.3288    3.0063 N.2       1 <0>        -0.6131
     16 C9         -2.0187   -0.1321    4.0899 C.2       1 <0>         0.3840
     17 N3         -2.5589    0.6006    5.0819 N.pl3     1 <0>        -0.7652
     18 C10        -2.0713    1.9053    5.4811 C.3       1 <0>         0.0890
     19 C11        -2.4323    2.9708    4.4676 C.3       1 <0>         0.1023
     20 H5         -3.5094    2.9518    4.3010 H         1 <0>         0.0604
     21 O2         -2.0680    4.2502    4.9894 O.3       1 <0>        -0.5364
     22 C12         1.5287   -1.7944   -0.6529 C.3       1 <0>         0.0867
     23 O3          0.4777   -2.7100   -0.9679 O.3       1 <0>        -0.5643
     24 O4          2.8494    1.0178   -1.8417 O.3       1 <0>        -0.5559
     25 H6          1.6130    2.7435   -0.6219 H         1 <0>         0.1049
     26 H7          1.8255    2.0322    1.0090 H         1 <0>         0.1004
     27 H8          0.0491    4.1574    1.2479 H         1 <0>         0.1441
     28 H9         -2.0052   -1.2040    4.2210 H         1 <0>         0.1757
     29 H10        -3.3203    0.2332    5.5576 H         1 <0>         0.4045
     30 H11        -0.9869    1.8636    5.5831 H         1 <0>         0.0751
     31 H12        -2.5089    2.1680    6.4442 H         1 <0>         0.1025
     32 H13        -2.4808    4.4610    5.8380 H         1 <0>         0.3729
     33 H14         2.3980   -2.0116   -1.2735 H         1 <0>         0.0653
     34 H15         1.7977   -1.8977    0.3983 H         1 <0>         0.0565
     35 H16         0.7077   -3.6379   -0.8220 H         1 <0>         0.3827
     36 H17         3.5723    1.6481   -1.7178 H         1 <0>         0.3880
@<TRIPOS>BOND
     1    1    7 1
     2    1    2 1
     3    1   25 1
     4    1   26 1
     5    2    3 1
     6    2    4 1
     7    2   24 1
     8    4    5 1
     9    4    6 1
    10    4   22 1
    11    6    7 1
    12    7    8 1
    13    7    9 1
    14    9   14 1
    15    9   11 2
    16   10   14 1
    17   11   27 1
    18   11   12 1
    19   12   13 2
    20   13   19 1
    21   13   14 1
    22   14   15 1
    23   15   16 2
    24   16   17 1
    25   16   28 1
    26   17   18 1
    27   17   29 1
    28   18   19 1
    29   18   30 1
    30   18   31 1
    31   19   20 1
    32   19   21 1
    33   21   32 1
    34   22   23 1
    35   22   33 1
    36   22   34 1
    37   23   35 1
    38   24   36 1
@<TRIPOS>MOLECULE
ZINC03814296
   36    38     0     0     0
SMALL
USER_CHARGES

@<TRIPOS>ATOM
      1 C1         -0.0126    1.0758    0.0080 C.2       1 <0>         0.2091
      2 N1          1.0347    1.8483    0.0021 N.2       1 <0>        -0.4619
      3 C2          0.6484    3.1396    0.0145 C.2       1 <0>        -0.0325
      4 C3         -0.7053    3.1721    0.0224 C.2       1 <0>         0.2340
      5 N2         -1.1256    1.8510    0.0168 N.pl3     1 <0>        -0.4622
      6 C4         -2.5129    1.3802    0.0231 C.3       1 <0>         0.3188
      7 H1         -3.1307    2.0182    0.6551 H         1 <0>         0.1207
      8 C5         -3.0783    1.3288   -1.4191 C.3       1 <0>         0.0824
      9 H2         -2.3148    1.0015   -2.1248 H         1 <0>         0.0863
     10 C6         -4.2010    0.2707   -1.2898 C.3       1 <0>         0.0441
     11 H3         -4.2157   -0.3789   -2.1650 H         1 <0>         0.0855
     12 C7         -3.8231   -0.5286   -0.0276 C.3       1 <0>         0.0535
     13 H4         -4.6004   -0.4168    0.7284 H         1 <0>         0.0972
     14 O1         -2.5815    0.0061    0.4610 O.3       1 <0>        -0.3508
     15 C8         -3.6498   -2.0072   -0.3806 C.3       1 <0>         0.0769
     16 O2         -3.4146   -2.7574    0.8127 O.3       1 <0>        -0.5627
     17 O3         -5.4696    0.9058   -1.1185 O.3       1 <0>        -0.5359
     18 O4         -3.6144    2.5968   -1.8022 O.3       1 <0>        -0.5166
     19 N3         -1.5648    4.2164    0.0231 N.2       1 <0>        -0.5520
     20 C9         -1.3184    5.4668   -0.0138 C.2       1 <0>         0.4218
     21 N4         -0.0991    6.0433   -0.0255 N.pl3     1 <0>        -0.7560
     22 C10         1.0567    5.4970   -0.7085 C.3       1 <0>         0.0883
     23 C11         1.6136    4.2919    0.0244 C.3       1 <0>         0.1772
     24 H5          1.8244    4.5700    1.0570 H         1 <0>         0.0655
     25 O5          2.8307    3.8856   -0.6046 O.3       1 <0>        -0.5415
     26 H6          0.0021   -0.0041    0.0020 H         1 <0>         0.2104
     27 H7         -4.5538   -2.3729   -0.8674 H         1 <0>         0.0651
     28 H8         -2.8016   -2.1226   -1.0554 H         1 <0>         0.0584
     29 H9         -3.2951   -3.7054    0.6641 H         1 <0>         0.3854
     30 H10        -6.2096    0.2893   -1.0321 H         1 <0>         0.3846
     31 H11        -3.9803    2.6150   -2.6971 H         1 <0>         0.3826
     32 H12        -2.1704    6.1301   -0.0384 H         1 <0>         0.1774
     33 H13         0.0116    6.8788    0.4546 H         1 <0>         0.4024
     34 H14         0.7676    5.1993   -1.7164 H         1 <0>         0.0729
     35 H15         1.8288    6.2639   -0.7721 H         1 <0>         0.0954
     36 H16         3.5063    4.5767   -0.6375 H         1 <0>         0.3763
@<TRIPOS>BOND
     1    1    5 1
     2    1    2 2
     3    1   26 1
     4    2    3 1
     5    3   23 1
     6    3    4 2
     7    4    5 1
     8    4   19 1
     9    5    6 1
    10    6    7 1
    11    6   14 1
    12    6    8 1
    13    8    9 1
    14    8   10 1
    15    8   18 1
    16   10   11 1
    17   10   12 1
    18   10   17 1
    19   12   13 1
    20   12   14 1
    21   12   15 1
    22   15   16 1
    23   15   27 1
    24   15   28 1
    25   16   29 1
    26   17   30 1
    27   18   31 1
    28   19   20 2
    29   20   21 1
    30   20   32 1
    31   21   22 1
    32   21   33 1
    33   22   23 1
    34   22   34 1
    35   22   35 1
    36   23   24 1
    37   23   25 1
    38   25   36 1
@<TRIPOS>MOLECULE
ZINC03814296
   37    39     0     0     0
SMALL
USER_CHARGES

@<TRIPOS>ATOM
      1 C1         -0.0126    1.0758    0.0080 C.cat     1 <0>         0.3149
      2 C2          0.6484    3.1396    0.0145 C.2       1 <0>        -0.0410
      3 C3         -0.7053    3.1721    0.0224 C.2       1 <0>         0.3318
      4 N1         -1.1256    1.8510    0.0168 N.pl3     1 <0>        -0.4200
      5 C4         -2.5129    1.3802    0.0231 C.3       1 <0>         0.3082
      6 H1         -3.1307    2.0182    0.6551 H         1 <0>         0.1498
      7 C5         -3.0783    1.3288   -1.4191 C.3       1 <0>         0.0824
      8 H2         -2.3148    1.0015   -2.1248 H         1 <0>         0.0907
      9 C6         -4.2010    0.2707   -1.2898 C.3       1 <0>         0.0464
     10 H3         -4.2157   -0.3789   -2.1650 H         1 <0>         0.0952
     11 C7         -3.8231   -0.5286   -0.0276 C.3       1 <0>         0.0536
     12 H4         -4.6004   -0.4168    0.7284 H         1 <0>         0.1082
     13 O1         -2.5815    0.0061    0.4610 O.3       1 <0>        -0.3528
     14 C8         -3.6498   -2.0072   -0.3806 C.3       1 <0>         0.0752
     15 O2         -3.4146   -2.7574    0.8127 O.3       1 <0>        -0.5644
     16 O3         -5.4696    0.9058   -1.1185 O.3       1 <0>        -0.5344
     17 O4         -3.6144    2.5968   -1.8022 O.3       1 <0>        -0.5183
     18 N2         -1.5648    4.2164    0.0231 N.2       1 <0>        -0.5692
     19 C9         -1.3184    5.4668   -0.0138 C.2       1 <0>         0.4803
     20 N3         -0.0991    6.0433   -0.0255 N.pl3     1 <0>        -0.7424
     21 C10         1.0567    5.4970   -0.7085 C.3       1 <0>         0.0787
     22 C11         1.6136    4.2919    0.0244 C.3       1 <0>         0.1604
     23 H5          1.8244    4.5700    1.0570 H         1 <0>         0.0957
     24 O5          2.8307    3.8856   -0.6046 O.3       1 <0>        -0.5621
     25 H6          0.0021   -0.0041    0.0020 H         1 <0>         0.2621
     26 H7         -4.5538   -2.3729   -0.8674 H         1 <0>         0.0733
     27 H8         -2.8016   -2.1226   -1.0554 H         1 <0>         0.0587
     28 H9         -3.2951   -3.7054    0.6641 H         1 <0>         0.3919
     29 H10        -6.2096    0.2893   -1.0321 H         1 <0>         0.3939
     30 H11        -3.9803    2.6150   -2.6971 H         1 <0>         0.3953
     31 H12        -2.1704    6.1301   -0.0384 H         1 <0>         0.2025
     32 H13         0.0116    6.8788    0.4546 H         1 <0>         0.4193
     33 H14         0.7676    5.1993   -1.7164 H         1 <0>         0.0885
     34 H15         1.8288    6.2639   -0.7721 H         1 <0>         0.1189
     35 H16         3.5063    4.5767   -0.6375 H         1 <0>         0.4090
     36 N4          1.0364    1.8477    0.0021 N.pl3     1 <0>        -0.4611
     37 H17         2.0102    1.5225   -0.0102 H         1 <0>         0.4810
@<TRIPOS>BOND
     1    1    4 1
     2    1   25 1
     3    1   36 2
     4    2   22 1
     5    2    3 2
     6    2   36 1
     7    3    4 1
     8    3   18 1
     9    4    5 1
    10    5    6 1
    11    5   13 1
    12    5    7 1
    13    7    8 1
    14    7    9 1
    15    7   17 1
    16    9   10 1
    17    9   11 1
    18    9   16 1
    19   11   12 1
    20   11   13 1
    21   11   14 1
    22   14   15 1
    23   14   26 1
    24   14   27 1
    25   15   28 1
    26   16   29 1
    27   17   30 1
    28   18   19 2
    29   19   20 1
    30   19   31 1
    31   20   21 1
    32   20   32 1
    33   21   22 1
    34   21   33 1
    35   21   34 1
    36   22   23 1
    37   22   24 1
    38   24   35 1
    39   36   37 1
@<TRIPOS>MOLECULE
ZINC03814297
   41    41     0     0     0
SMALL
USER_CHARGES

@<TRIPOS>ATOM
      1 C1         -3.0445    3.9662   -3.8719 C.3       1 <0>        -0.1550
      2 C2         -2.0109    3.4890   -2.8496 C.3       1 <0>        -0.1250
      3 C3         -1.8445    1.9723   -2.9626 C.3       1 <0>        -0.1215
      4 C4         -0.8110    1.4951   -1.9404 C.3       1 <0>        -0.1181
      5 C5         -0.6445   -0.0216   -2.0534 C.3       1 <0>        -0.1197
      6 C6          0.3890   -0.4989   -1.0311 C.3       1 <0>        -0.1359
      7 C7          0.4570   -2.0272   -1.0501 C.3       1 <0>         0.0966
      8 H1         -0.5404   -2.4373   -0.8920 H         1 <0>         0.1131
      9 C8          1.3892   -2.5101    0.0629 C.3       1 <0>         0.0953
     10 H2          1.0246   -2.1489    1.0245 H         1 <0>         0.0799
     11 C9          1.4230   -4.0397    0.0721 C.3       1 <0>        -0.1514
     12 O1          2.7065   -2.0059   -0.1668 O.3       1 <0>        -0.5555
     13 N1          0.9702   -2.4771   -2.3464 N.pl3     1 <0>        -0.4393
     14 C10         0.3241   -3.2773   -3.2267 C.2       1 <0>         0.0346
     15 C11         1.1563   -3.4444   -4.2946 C.2       1 <0>        -0.0701
     16 N2          2.2910   -2.7429   -4.0425 N.2       1 <0>        -0.4694
     17 C12         2.1775   -2.1615   -2.8833 C.2       1 <0>         0.2091
     18 C13         0.8749   -4.2405   -5.5019 C.2       1 <0>         0.6091
     19 O2         -0.1854   -4.8264   -5.6104 O.2       1 <0>        -0.5516
     20 N3          1.7924   -4.3196   -6.4860 N.am      1 <0>        -0.8420
     21 H3         -3.1630    5.0467   -3.7913 H         1 <0>         0.0543
     22 H4         -2.7064    3.7116   -4.8763 H         1 <0>         0.0538
     23 H5         -4.0003    3.4802   -3.6762 H         1 <0>         0.0536
     24 H6         -2.3491    3.7436   -1.8451 H         1 <0>         0.0605
     25 H7         -1.0551    3.9750   -3.0453 H         1 <0>         0.0606
     26 H8         -1.5064    1.7177   -3.9671 H         1 <0>         0.0613
     27 H9         -2.8003    1.4863   -2.7669 H         1 <0>         0.0613
     28 H10        -1.1491    1.7496   -0.9359 H         1 <0>         0.0629
     29 H11         0.1449    1.9811   -2.1361 H         1 <0>         0.0625
     30 H12        -1.6004   -0.5076   -1.8577 H         1 <0>         0.0649
     31 H13        -0.3064   -0.2762   -3.0578 H         1 <0>         0.0647
     32 H14         1.3666   -0.0885   -1.2841 H         1 <0>         0.0756
     33 H15         0.0992   -0.1604   -0.0363 H         1 <0>         0.0890
     34 H16         1.8559   -4.3992   -0.8614 H         1 <0>         0.0653
     35 H17         2.0286   -4.3847    0.9102 H         1 <0>         0.0706
     36 H18         0.4084   -4.4249    0.1742 H         1 <0>         0.0732
     37 H19         2.7605   -1.0406   -0.1855 H         1 <0>         0.3774
     38 H20        -0.6617   -3.7019   -3.1066 H         1 <0>         0.1843
     39 H21         2.9239   -1.5319   -2.4218 H         1 <0>         0.2087
     40 H22         2.6380   -3.8524   -6.3994 H         1 <0>         0.4092
     41 H23         1.6070   -4.8438   -7.2808 H         1 <0>         0.4034
@<TRIPOS>BOND
     1    1    2 1
     2    1   21 1
     3    1   22 1
     4    1   23 1
     5    2    3 1
     6    2   24 1
     7    2   25 1
     8    3    4 1
     9    3   26 1
    10    3   27 1
    11    4    5 1
    12    4   28 1
    13    4   29 1
    14    5    6 1
    15    5   30 1
    16    5   31 1
    17    6    7 1
    18    6   32 1
    19    6   33 1
    20    7    8 1
    21    7    9 1
    22    7   13 1
    23    9   10 1
    24    9   11 1
    25    9   12 1
    26   11   34 1
    27   11   35 1
    28   11   36 1
    29   12   37 1
    30   13   17 1
    31   13   14 1
    32   14   15 2
    33   14   38 1
    34   15   16 1
    35   15   18 1
    36   16   17 2
    37   17   39 1
    38   18   19 2
    39   18   20 am
    40   20   40 1
    41   20   41 1
@<TRIPOS>MOLECULE
ZINC03814297
   42    42     0     0     0
SMALL
USER_CHARGES

@<TRIPOS>ATOM
      1 C1         -3.0445    3.9662   -3.8719 C.3       1 <0>        -0.1568
      2 C2         -2.0109    3.4890   -2.8496 C.3       1 <0>        -0.1263
      3 C3         -1.8445    1.9723   -2.9626 C.3       1 <0>        -0.1214
      4 C4         -0.8110    1.4951   -1.9404 C.3       1 <0>        -0.1212
      5 C5         -0.6445   -0.0216   -2.0534 C.3       1 <0>        -0.1248
      6 C6          0.3890   -0.4989   -1.0311 C.3       1 <0>        -0.1451
      7 C7          0.4570   -2.0272   -1.0501 C.3       1 <0>         0.0872
      8 H1         -0.5404   -2.4373   -0.8920 H         1 <0>         0.1450
      9 C8          1.3892   -2.5101    0.0629 C.3       1 <0>         0.0900
     10 H2          1.0246   -2.1489    1.0245 H         1 <0>         0.1046
     11 C9          1.4230   -4.0397    0.0721 C.3       1 <0>        -0.1587
     12 O1          2.7065   -2.0059   -0.1668 O.3       1 <0>        -0.5607
     13 N1          0.9702   -2.4771   -2.3464 N.pl3     1 <0>        -0.3980
     14 C10         0.3241   -3.2773   -3.2267 C.2       1 <0>         0.1148
     15 C11         1.1563   -3.4444   -4.2946 C.2       1 <0>        -0.0351
     16 C12         2.1775   -2.1615   -2.8833 C.cat     1 <0>         0.3233
     17 C13         0.8749   -4.2405   -5.5019 C.2       1 <0>         0.5941
     18 O2         -0.1854   -4.8264   -5.6104 O.2       1 <0>        -0.4905
     19 N2          1.7924   -4.3196   -6.4860 N.am      1 <0>        -0.8375
     20 H3         -3.1630    5.0467   -3.7913 H         1 <0>         0.0581
     21 H4         -2.7064    3.7116   -4.8763 H         1 <0>         0.0534
     22 H5         -4.0003    3.4802   -3.6762 H         1 <0>         0.0552
     23 H6         -2.3491    3.7436   -1.8451 H         1 <0>         0.0634
     24 H7         -1.0551    3.9750   -3.0453 H         1 <0>         0.0611
     25 H8         -1.5064    1.7177   -3.9671 H         1 <0>         0.0593
     26 H9         -2.8003    1.4863   -2.7669 H         1 <0>         0.0640
     27 H10        -1.1491    1.7496   -0.9359 H         1 <0>         0.0701
     28 H11         0.1449    1.9811   -2.1361 H         1 <0>         0.0646
     29 H12        -1.6004   -0.5076   -1.8577 H         1 <0>         0.0747
     30 H13        -0.3064   -0.2762   -3.0578 H         1 <0>         0.0574
     31 H14         1.3666   -0.0885   -1.2841 H         1 <0>         0.0812
     32 H15         0.0992   -0.1604   -0.0363 H         1 <0>         0.1123
     33 H16         1.8559   -4.3992   -0.8614 H         1 <0>         0.0573
     34 H17         2.0286   -4.3847    0.9102 H         1 <0>         0.0848
     35 H18         0.4084   -4.4249    0.1742 H         1 <0>         0.0839
     36 H19         2.7605   -1.0406   -0.1855 H         1 <0>         0.3853
     37 H20        -0.6617   -3.7019   -3.1066 H         1 <0>         0.2333
     38 H21         2.9239   -1.5319   -2.4218 H         1 <0>         0.2638
     39 H22         2.6380   -3.8524   -6.3994 H         1 <0>         0.3995
     40 H23         1.6070   -4.8438   -7.2808 H         1 <0>         0.4276
     41 N3          2.2879   -2.7432   -4.0402 N.pl3     1 <0>        -0.4725
     42 H24         3.1025   -2.6813   -4.6622 H         1 <0>         0.4792
@<TRIPOS>BOND
     1    1    2 1
     2    1   20 1
     3    1   21 1
     4    1   22 1
     5    2    3 1
     6    2   23 1
     7    2   24 1
     8    3    4 1
     9    3   25 1
    10    3   26 1
    11    4    5 1
    12    4   27 1
    13    4   28 1
    14    5    6 1
    15    5   29 1
    16    5   30 1
    17    6    7 1
    18    6   31 1
    19    6   32 1
    20    7    8 1
    21    7    9 1
    22    7   13 1
    23    9   10 1
    24    9   11 1
    25    9   12 1
    26   11   33 1
    27   11   34 1
    28   11   35 1
    29   12   36 1
    30   13   16 1
    31   13   14 1
    32   14   15 2
    33   14   37 1
    34   15   17 1
    35   15   41 1
    36   16   38 1
    37   16   41 2
    38   17   18 2
    39   17   19 am
    40   19   39 1
    41   19   40 1
    42   41   42 1
@<TRIPOS>MOLECULE
ZINC03814298
   34    36     0     0     0
SMALL
USER_CHARGES

@<TRIPOS>ATOM
      1 C1          0.5574    5.5757    0.0259 C.ar      1 <0>        -0.0433
      2 C2         -0.8288    5.5282    0.0393 C.ar      1 <0>        -0.2072
      3 C3         -1.4880    4.3127    0.0400 C.ar      1 <0>         0.2937
      4 C4         -0.7467    3.1211    0.0260 C.ar      1 <0>        -0.0157
      5 C5          0.6551    3.1809    0.0129 C.ar      1 <0>         0.1048
      6 C6          1.2976    4.4131    0.0130 C.ar      1 <0>        -0.1776
      7 N1          1.0922    1.8714    0.0017 N.pl3     1 <0>        -0.4919
      8 C7         -0.0126    1.0758    0.0080 C.2       1 <0>         0.2648
      9 N2         -1.0883    1.8069    0.0165 N.2       1 <0>        -0.4893
     10 C8          2.4863    1.4214   -0.0145 C.3       1 <0>         0.3086
     11 H1          3.1007    2.1125   -0.5915 H         1 <0>         0.1073
     12 C9          3.0266    1.2927    1.4270 C.3       1 <0>        -0.1961
     13 C10         3.9370    0.0453    1.3768 C.3       1 <0>         0.0810
     14 H2          3.5679   -0.7244    2.0546 H         1 <0>         0.0829
     15 C11         3.8390   -0.4321   -0.0891 C.3       1 <0>         0.0885
     16 H3          4.6624   -0.0256   -0.6764 H         1 <0>         0.0978
     17 O1          2.5781    0.0887   -0.5633 O.3       1 <0>        -0.3525
     18 C12         3.8416   -1.9608   -0.1528 C.3       1 <0>         0.0856
     19 O2          3.7935   -2.3808   -1.5178 O.3       1 <0>        -0.5646
     20 O3          5.2847    0.3922    1.7013 O.3       1 <0>        -0.5539
     21 N3         -2.8837    4.2710    0.0540 N.pl3     1 <0>        -0.6044
     22 O4         -3.6279    5.4756    0.0676 O.3       1 <0>        -0.3277
     23 H4          1.0607    6.5313    0.0259 H         1 <0>         0.1321
     24 H5         -1.3970    6.4466    0.0498 H         1 <0>         0.1338
     25 H6          2.3766    4.4597    0.0026 H         1 <0>         0.1193
     26 H7          0.0021   -0.0041    0.0020 H         1 <0>         0.2122
     27 H8          3.6042    2.1763    1.6987 H         1 <0>         0.1026
     28 H9          2.2075    1.1397    2.1297 H         1 <0>         0.0942
     29 H10         4.7503   -2.3422    0.3129 H         1 <0>         0.0705
     30 H11         2.9715   -2.3480    0.3774 H         1 <0>         0.0578
     31 H12         3.7924   -3.3408   -1.6341 H         1 <0>         0.3859
     32 H13         5.4038    0.6989    2.6106 H         1 <0>         0.3896
     33 H14        -3.3435    3.4169    0.0544 H         1 <0>         0.4199
     34 H15        -4.5861    5.3459    0.0767 H         1 <0>         0.3914
@<TRIPOS>BOND
     1    1    6 ar
     2    1    2 ar
     3    1   23 1
     4    2    3 ar
     5    2   24 1
     6    3    4 ar
     7    3   21 1
     8    4    9 1
     9    4    5 ar
    10    5    6 ar
    11    5    7 1
    12    6   25 1
    13    7    8 1
    14    7   10 1
    15    8    9 2
    16    8   26 1
    17   10   11 1
    18   10   17 1
    19   10   12 1
    20   12   13 1
    21   12   27 1
    22   12   28 1
    23   13   14 1
    24   13   15 1
    25   13   20 1
    26   15   16 1
    27   15   17 1
    28   15   18 1
    29   18   19 1
    30   18   29 1
    31   18   30 1
    32   19   31 1
    33   20   32 1
    34   21   22 1
    35   21   33 1
    36   22   34 1
@<TRIPOS>MOLECULE
ZINC03814298
   35    37     0     0     0
SMALL
USER_CHARGES

@<TRIPOS>ATOM
      1 C1          0.5574    5.5757    0.0259 C.ar      1 <0>        -0.0104
      2 C2         -0.8288    5.5282    0.0393 C.ar      1 <0>        -0.1587
      3 C3         -1.4880    4.3127    0.0400 C.ar      1 <0>         0.2883
      4 C4         -0.7467    3.1211    0.0260 C.ar      1 <0>        -0.0288
      5 C5          0.6551    3.1809    0.0129 C.ar      1 <0>         0.1357
      6 C6          1.2976    4.4131    0.0130 C.ar      1 <0>        -0.1513
      7 N1          1.0922    1.8714    0.0017 N.pl3     1 <0>        -0.4384
      8 C7         -0.0126    1.0758    0.0080 C.cat     1 <0>         0.3860
      9 C8          2.4863    1.4214   -0.0145 C.3       1 <0>         0.2971
     10 H1          3.1007    2.1125   -0.5915 H         1 <0>         0.1374
     11 C9          3.0266    1.2927    1.4270 C.3       1 <0>        -0.1998
     12 C10         3.9370    0.0453    1.3768 C.3       1 <0>         0.0825
     13 H2          3.5679   -0.7244    2.0546 H         1 <0>         0.0902
     14 C11         3.8390   -0.4321   -0.0891 C.3       1 <0>         0.0897
     15 H3          4.6624   -0.0256   -0.6764 H         1 <0>         0.1086
     16 O1          2.5781    0.0887   -0.5633 O.3       1 <0>        -0.3554
     17 C12         3.8416   -1.9608   -0.1528 C.3       1 <0>         0.0838
     18 O2          3.7935   -2.3808   -1.5178 O.3       1 <0>        -0.5662
     19 O3          5.2847    0.3922    1.7013 O.3       1 <0>        -0.5479
     20 N2         -2.8837    4.2710    0.0540 N.pl3     1 <0>        -0.6052
     21 O4         -3.6279    5.4756    0.0676 O.3       1 <0>        -0.3069
     22 H4          1.0607    6.5313    0.0259 H         1 <0>         0.1584
     23 H5         -1.3970    6.4466    0.0498 H         1 <0>         0.1586
     24 H6          2.3766    4.4597    0.0026 H         1 <0>         0.1489
     25 H7          0.0021   -0.0041    0.0020 H         1 <0>         0.2636
     26 H8          3.6042    2.1763    1.6987 H         1 <0>         0.1161
     27 H9          2.2075    1.1397    2.1297 H         1 <0>         0.0983
     28 H10         4.7503   -2.3422    0.3129 H         1 <0>         0.0786
     29 H11         2.9715   -2.3480    0.3774 H         1 <0>         0.0586
     30 H12         3.7924   -3.3408   -1.6341 H         1 <0>         0.3926
     31 H13         5.4038    0.6989    2.6106 H         1 <0>         0.3960
     32 H14        -3.3435    3.4169    0.0544 H         1 <0>         0.4124
     33 H15        -4.5861    5.3459    0.0767 H         1 <0>         0.4055
     34 N3         -1.0893    1.8065    0.0165 N.pl3     1 <0>        -0.4916
     35 H16        -2.0503    1.4450    0.0161 H         1 <0>         0.4737
@<TRIPOS>BOND
     1    1    6 ar
     2    1    2 ar
     3    1   22 1
     4    2    3 ar
     5    2   23 1
     6    3    4 ar
     7    3   20 1
     8    4    5 ar
     9    4   34 1
    10    5    6 ar
    11    5    7 1
    12    6   24 1
    13    7    8 1
    14    7    9 1
    15    8   25 1
    16    8   34 2
    17    9   10 1
    18    9   16 1
    19    9   11 1
    20   11   12 1
    21   11   26 1
    22   11   27 1
    23   12   13 1
    24   12   14 1
    25   12   19 1
    26   14   15 1
    27   14   16 1
    28   14   17 1
    29   17   18 1
    30   17   28 1
    31   17   29 1
    32   18   30 1
    33   19   31 1
    34   20   21 1
    35   20   32 1
    36   21   33 1
    37   34   35 1
@<TRIPOS>MOLECULE
ZINC03814299
   36    36     0     0     0
SMALL
USER_CHARGES

@<TRIPOS>ATOM
      1 C1         -1.5919   -2.3109   -4.2121 C.3       1 <0>        -0.1547
      2 C2         -2.2182   -1.7818   -2.9203 C.3       1 <0>        -0.1261
      3 C3         -1.1305   -1.1550   -2.0457 C.3       1 <0>        -0.1211
      4 C4         -1.7568   -0.6258   -0.7539 C.3       1 <0>        -0.1190
      5 C5         -0.6692    0.0009    0.1208 C.3       1 <0>        -0.1165
      6 C6         -1.2955    0.5301    1.4125 C.3       1 <0>        -0.1279
      7 C7         -0.2078    1.1568    2.2872 C.3       1 <0>         0.1246
      8 H1          0.3223    1.9197    1.7169 H         1 <0>         0.1129
      9 C8          0.7781    0.0737    2.7295 C.3       1 <0>         0.0916
     10 H2          1.2088   -0.4064    1.8507 H         1 <0>         0.1237
     11 C9          1.8937    0.7086    3.5620 C.3       1 <0>        -0.1874
     12 O1          0.0923   -0.9018    3.5171 O.3       1 <0>        -0.5524
     13 N1         -0.8228    1.7689    3.4676 N.pl3     1 <0>        -0.3739
     14 C10        -1.8914    1.3157    4.1457 C.2       1 <0>         0.2489
     15 N2         -2.1256    2.1414    5.1332 N.2       1 <0>        -0.5422
     16 C11        -1.2317    3.1294    5.1179 C.2       1 <0>         0.1979
     17 N3         -0.4094    2.9423    4.1192 N.2       1 <0>        -0.3168
     18 H3         -0.8415   -3.0636   -3.9703 H         1 <0>         0.0538
     19 H4         -2.3668   -2.7575   -4.8352 H         1 <0>         0.0539
     20 H5         -1.1212   -1.4887   -4.7510 H         1 <0>         0.0534
     21 H6         -2.6889   -2.6040   -2.3814 H         1 <0>         0.0613
     22 H7         -2.9686   -1.0291   -3.1621 H         1 <0>         0.0605
     23 H8         -0.6598   -0.3328   -2.5846 H         1 <0>         0.0614
     24 H9         -0.3802   -1.9077   -1.8038 H         1 <0>         0.0625
     25 H10        -2.2275   -1.4481   -0.2149 H         1 <0>         0.0651
     26 H11        -2.5072    0.1269   -0.9957 H         1 <0>         0.0625
     27 H12         0.0812   -0.7518    0.3626 H         1 <0>         0.0710
     28 H13        -0.1985    0.8232   -0.4182 H         1 <0>         0.0664
     29 H14        -2.0458    1.2828    1.1707 H         1 <0>         0.0743
     30 H15        -1.7662   -0.2922    1.9515 H         1 <0>         0.0834
     31 H16         1.4630    1.1887    4.4407 H         1 <0>         0.0611
     32 H17         2.5961   -0.0630    3.8771 H         1 <0>         0.0694
     33 H18         2.4168    1.4527    2.9613 H         1 <0>         0.0713
     34 H19        -0.2498   -0.5610    4.3549 H         1 <0>         0.3719
     35 H20        -2.4574    0.4251    3.9159 H         1 <0>         0.2177
     36 H21        -1.1906    3.9494    5.8195 H         1 <0>         0.2176
@<TRIPOS>BOND
     1    1    2 1
     2    1   18 1
     3    1   19 1
     4    1   20 1
     5    2    3 1
     6    2   21 1
     7    2   22 1
     8    3    4 1
     9    3   23 1
    10    3   24 1
    11    4    5 1
    12    4   25 1
    13    4   26 1
    14    5    6 1
    15    5   27 1
    16    5   28 1
    17    6    7 1
    18    6   29 1
    19    6   30 1
    20    7    8 1
    21    7    9 1
    22    7   13 1
    23    9   10 1
    24    9   11 1
    25    9   12 1
    26   11   31 1
    27   11   32 1
    28   11   33 1
    29   12   34 1
    30   13   17 1
    31   13   14 1
    32   14   15 2
    33   14   35 1
    34   15   16 1
    35   16   17 2
    36   16   36 1
@<TRIPOS>MOLECULE
ZINC03814300
   35    35     0     0     0
SMALL
USER_CHARGES

@<TRIPOS>ATOM
      1 C1         -0.6811    1.5524    6.2635 C.3       1 <0>        -0.1545
      2 C2          0.0350    1.0590    5.0047 C.3       1 <0>        -0.1266
      3 C3         -0.7050    1.5658    3.7651 C.3       1 <0>        -0.1203
      4 C4          0.0111    1.0724    2.5063 C.3       1 <0>        -0.1199
      5 C5         -0.7288    1.5792    1.2668 C.3       1 <0>        -0.1155
      6 C6         -0.0127    1.0858    0.0080 C.3       1 <0>        -0.1308
      7 C7         -0.7527    1.5927   -1.2315 C.3       1 <0>         0.1529
      8 H1         -0.8452    2.6775   -1.1811 H         1 <0>         0.1287
      9 C8         -2.1465    0.9639   -1.2860 C.3       1 <0>         0.0920
     10 H2         -2.7048    1.2398   -0.3914 H         1 <0>         0.0958
     11 C9         -2.8865    1.4708   -2.5256 C.3       1 <0>        -0.1967
     12 O1         -2.0252   -0.4584   -1.3521 O.3       1 <0>        -0.5649
     13 N1         -0.0023    1.2218   -2.4339 N.pl3     1 <0>        -0.3033
     14 C10        -0.0730    0.0489   -3.0904 C.2       1 <0>         0.1753
     15 N2          0.7553    0.1339   -4.1026 N.2       1 <0>        -0.3163
     16 N3          1.3060    1.2982   -4.0696 N.2       1 <0>        -0.0772
     17 N4          0.8463    1.9602   -3.0657 N.2       1 <0>        -0.1010
     18 H3         -0.6959    2.6423    6.2695 H         1 <0>         0.0537
     19 H4         -1.7037    1.1751    6.2712 H         1 <0>         0.0535
     20 H5         -0.1540    1.1913    7.1465 H         1 <0>         0.0542
     21 H6          0.0498   -0.0309    4.9987 H         1 <0>         0.0610
     22 H7          1.0576    1.4363    4.9969 H         1 <0>         0.0610
     23 H8         -0.7198    2.6557    3.7711 H         1 <0>         0.0621
     24 H9         -1.7276    1.1885    3.7729 H         1 <0>         0.0617
     25 H10         0.0259   -0.0175    2.5003 H         1 <0>         0.0646
     26 H11         1.0337    1.4497    2.4986 H         1 <0>         0.0637
     27 H12        -0.7436    2.6691    1.2728 H         1 <0>         0.0682
     28 H13        -1.7514    1.2020    1.2746 H         1 <0>         0.0692
     29 H14         0.0021   -0.0041    0.0020 H         1 <0>         0.0869
     30 H15         1.0099    1.4631    0.0003 H         1 <0>         0.0767
     31 H16        -2.3282    1.1949   -3.4202 H         1 <0>         0.0625
     32 H17        -3.8794    1.0228   -2.5644 H         1 <0>         0.0745
     33 H18        -2.9790    2.5557   -2.4752 H         1 <0>         0.0740
     34 H19        -2.8719   -0.9240   -1.3892 H         1 <0>         0.3925
     35 H20        -0.6917   -0.7980   -2.8327 H         1 <0>         0.2421
@<TRIPOS>BOND
     1    1    2 1
     2    1   18 1
     3    1   19 1
     4    1   20 1
     5    2    3 1
     6    2   21 1
     7    2   22 1
     8    3    4 1
     9    3   23 1
    10    3   24 1
    11    4    5 1
    12    4   25 1
    13    4   26 1
    14    5    6 1
    15    5   27 1
    16    5   28 1
    17    6    7 1
    18    6   29 1
    19    6   30 1
    20    7    8 1
    21    7    9 1
    22    7   13 1
    23    9   10 1
    24    9   11 1
    25    9   12 1
    26   11   31 1
    27   11   32 1
    28   11   33 1
    29   12   34 1
    30   13   17 1
    31   13   14 1
    32   14   15 2
    33   14   35 1
    34   15   16 1
    35   16   17 2
@<TRIPOS>MOLECULE
ZINC03814301
   37    37     0     0     0
SMALL
USER_CHARGES

@<TRIPOS>ATOM
      1 C1         -8.9204   -2.5602    2.1416 C.3       1 <0>        -0.1544
      2 C2         -7.4369   -2.3402    2.4445 C.3       1 <0>        -0.1263
      3 C3         -6.8658   -1.3061    1.4723 C.3       1 <0>        -0.1206
      4 C4         -5.3823   -1.0861    1.7752 C.3       1 <0>        -0.1191
      5 C5         -4.8112   -0.0519    0.8030 C.3       1 <0>        -0.1174
      6 C6         -3.3277    0.1681    1.1058 C.3       1 <0>        -0.1254
      7 C7         -2.7566    1.2023    0.1336 C.3       1 <0>         0.1017
      8 H1         -3.3504    2.1149    0.1838 H         1 <0>         0.1069
      9 C8         -2.8004    0.6429   -1.2898 C.3       1 <0>         0.0936
     10 H2         -3.8301    0.4015   -1.5537 H         1 <0>         0.1200
     11 C9         -2.2554    1.6879   -2.2654 C.3       1 <0>        -0.1911
     12 O1         -2.0006   -0.5391   -1.3619 O.3       1 <0>        -0.5550
     13 N1         -1.3695    1.5014    0.4982 N.pl3     1 <0>        -0.4518
     14 C10        -0.8374    2.7432    0.7185 C.2       1 <0>        -0.0552
     15 C11         0.4623    2.5620    1.0213 C.2       1 <0>        -0.0286
     16 N2          0.7154    1.2452    0.9923 N.2       1 <0>        -0.4897
     17 C12        -0.3781    0.6034    0.6831 C.2       1 <0>         0.1701
     18 H3         -9.0329   -2.9215    1.1194 H         1 <0>         0.0537
     19 H4         -9.3273   -3.2970    2.8342 H         1 <0>         0.0540
     20 H5         -9.4580   -1.6188    2.2554 H         1 <0>         0.0532
     21 H6         -6.8994   -3.2816    2.3307 H         1 <0>         0.0612
     22 H7         -7.3245   -1.9789    3.4667 H         1 <0>         0.0604
     23 H8         -7.4034   -0.3647    1.5861 H         1 <0>         0.0609
     24 H9         -6.9783   -1.6674    0.4501 H         1 <0>         0.0620
     25 H10        -4.8448   -2.0275    1.6614 H         1 <0>         0.0644
     26 H11        -5.2699   -0.7248    2.7974 H         1 <0>         0.0618
     27 H12        -5.3487    0.8895    0.9168 H         1 <0>         0.0638
     28 H13        -4.9236   -0.4132   -0.2192 H         1 <0>         0.0692
     29 H14        -2.7901   -0.7733    0.9920 H         1 <0>         0.0815
     30 H15        -3.2152    0.5294    2.1280 H         1 <0>         0.0711
     31 H16        -1.2257    1.9292   -2.0015 H         1 <0>         0.0618
     32 H17        -2.2867    1.2894   -3.2795 H         1 <0>         0.0716
     33 H18        -2.8655    2.5895   -2.2104 H         1 <0>         0.0692
     34 H19        -1.0525   -0.3794   -1.2584 H         1 <0>         0.3749
     35 H20        -1.3584    3.6872    0.6565 H         1 <0>         0.1728
     36 H21         1.1756    3.3406    1.2480 H         1 <0>         0.1696
     37 H22        -0.4732   -0.4680    0.5866 H         1 <0>         0.2050
@<TRIPOS>BOND
     1    1    2 1
     2    1   18 1
     3    1   19 1
     4    1   20 1
     5    2    3 1
     6    2   21 1
     7    2   22 1
     8    3    4 1
     9    3   23 1
    10    3   24 1
    11    4    5 1
    12    4   25 1
    13    4   26 1
    14    5    6 1
    15    5   27 1
    16    5   28 1
    17    6    7 1
    18    6   29 1
    19    6   30 1
    20    7    8 1
    21    7    9 1
    22    7   13 1
    23    9   10 1
    24    9   11 1
    25    9   12 1
    26   11   31 1
    27   11   32 1
    28   11   33 1
    29   12   34 1
    30   13   17 1
    31   13   14 1
    32   14   15 2
    33   14   35 1
    34   15   16 1
    35   15   36 1
    36   16   17 2
    37   17   37 1
@<TRIPOS>MOLECULE
ZINC03814301
   38    38     0     0     0
SMALL
USER_CHARGES

@<TRIPOS>ATOM
      1 C1         -8.9204   -2.5602    2.1416 C.3       1 <0>        -0.1566
      2 C2         -7.4369   -2.3402    2.4445 C.3       1 <0>        -0.1261
      3 C3         -6.8658   -1.3061    1.4723 C.3       1 <0>        -0.1221
      4 C4         -5.3823   -1.0861    1.7752 C.3       1 <0>        -0.1193
      5 C5         -4.8112   -0.0519    0.8030 C.3       1 <0>        -0.1193
      6 C6         -3.3277    0.1681    1.1058 C.3       1 <0>        -0.1326
      7 C7         -2.7566    1.2023    0.1336 C.3       1 <0>         0.0905
      8 H1         -3.3504    2.1149    0.1838 H         1 <0>         0.1397
      9 C8         -2.8004    0.6429   -1.2898 C.3       1 <0>         0.0883
     10 H2         -3.8301    0.4015   -1.5537 H         1 <0>         0.1427
     11 C9         -2.2554    1.6879   -2.2654 C.3       1 <0>        -0.1977
     12 O1         -2.0006   -0.5391   -1.3619 O.3       1 <0>        -0.5416
     13 N1         -1.3695    1.5014    0.4982 N.pl3     1 <0>        -0.4011
     14 C10        -0.8374    2.7432    0.7185 C.2       1 <0>         0.0240
     15 C11         0.4623    2.5620    1.0213 C.2       1 <0>         0.0081
     16 C12        -0.3781    0.6034    0.6831 C.cat     1 <0>         0.2678
     17 H3         -9.0329   -2.9215    1.1194 H         1 <0>         0.0549
     18 H4         -9.3273   -3.2970    2.8342 H         1 <0>         0.0568
     19 H5         -9.4580   -1.6188    2.2554 H         1 <0>         0.0545
     20 H6         -6.8994   -3.2816    2.3307 H         1 <0>         0.0616
     21 H7         -7.3245   -1.9789    3.4667 H         1 <0>         0.0610
     22 H8         -7.4034   -0.3647    1.5861 H         1 <0>         0.0632
     23 H9         -6.9783   -1.6674    0.4501 H         1 <0>         0.0640
     24 H10        -4.8448   -2.0275    1.6614 H         1 <0>         0.0661
     25 H11        -5.2699   -0.7248    2.7974 H         1 <0>         0.0640
     26 H12        -5.3487    0.8895    0.9168 H         1 <0>         0.0715
     27 H13        -4.9236   -0.4132   -0.2192 H         1 <0>         0.0750
     28 H14        -2.7901   -0.7733    0.9920 H         1 <0>         0.0879
     29 H15        -3.2152    0.5294    2.1280 H         1 <0>         0.0812
     30 H16        -1.2257    1.9292   -2.0015 H         1 <0>         0.0541
     31 H17        -2.2867    1.2894   -3.2795 H         1 <0>         0.0862
     32 H18        -2.8655    2.5895   -2.2104 H         1 <0>         0.0811
     33 H19        -1.0525   -0.3794   -1.2584 H         1 <0>         0.3635
     34 H20        -1.3584    3.6872    0.6565 H         1 <0>         0.2224
     35 H21         1.1756    3.3406    1.2480 H         1 <0>         0.2245
     36 H22        -0.4732   -0.4680    0.5866 H         1 <0>         0.2587
     37 N2          0.7142    1.2458    0.9921 N.pl3     1 <0>        -0.4792
     38 H23         1.6247    0.8112    1.1830 H         1 <0>         0.4824
@<TRIPOS>BOND
     1    1    2 1
     2    1   17 1
     3    1   18 1
     4    1   19 1
     5    2    3 1
     6    2   20 1
     7    2   21 1
     8    3    4 1
     9    3   22 1
    10    3   23 1
    11    4    5 1
    12    4   24 1
    13    4   25 1
    14    5    6 1
    15    5   26 1
    16    5   27 1
    17    6    7 1
    18    6   28 1
    19    6   29 1
    20    7    8 1
    21    7    9 1
    22    7   13 1
    23    9   10 1
    24    9   11 1
    25    9   12 1
    26   11   30 1
    27   11   31 1
    28   11   32 1
    29   12   33 1
    30   13   16 1
    31   13   14 1
    32   14   15 2
    33   14   34 1
    34   15   35 1
    35   15   37 1
    36   16   36 1
    37   16   37 2
    38   37   38 1
@<TRIPOS>MOLECULE
ZINC03814302
   35    37     0     0     0
SMALL
USER_CHARGES

@<TRIPOS>ATOM
      1 C1          4.9429    2.5387    4.5393 C.ar      1 <0>        -0.0466
      2 C2          5.8034    3.5732    4.2028 C.ar      1 <0>        -0.2052
      3 C3          5.6391    4.2629    3.0156 C.ar      1 <0>         0.2901
      4 C4          4.5936    3.9116    2.1479 C.ar      1 <0>        -0.0172
      5 C5          3.7254    2.8674    2.5010 C.ar      1 <0>         0.1118
      6 C6          3.9120    2.1833    3.6962 C.ar      1 <0>        -0.1656
      7 N1          2.8204    2.7572    1.4643 N.pl3     1 <0>        -0.4898
      8 C7          3.1420    3.7072    0.5436 C.2       1 <0>         0.2593
      9 N2          4.1793    4.3825    0.9435 N.2       1 <0>        -0.4870
     10 C8          1.7151    1.7999    1.3745 C.3       1 <0>         0.3161
     11 H1          1.9860    0.8541    1.8439 H         1 <0>         0.1175
     12 C9          0.4337    2.3834    2.0224 C.3       1 <0>         0.0769
     13 H2          0.3482    3.4514    1.8221 H         1 <0>         0.0923
     14 C10        -0.6841    1.5937    1.2988 C.3       1 <0>         0.0446
     15 H3         -1.5216    2.2494    1.0606 H         1 <0>         0.0876
     16 C11        -0.0127    1.0858    0.0080 C.3       1 <0>         0.0519
     17 H4          0.0021   -0.0041    0.0020 H         1 <0>         0.0980
     18 O1          1.3323    1.5929   -0.0021 O.3       1 <0>        -0.3472
     19 C12        -0.7727    1.6023   -1.2153 C.3       1 <0>         0.0769
     20 O2         -0.2068    1.0390   -2.4004 O.3       1 <0>        -0.5628
     21 O3         -1.1201    0.4948    2.1015 O.3       1 <0>        -0.5371
     22 O4          0.4109    2.1272    3.4281 O.3       1 <0>        -0.5287
     23 N3          6.5090    5.3030    2.6818 N.pl3     1 <0>        -0.6055
     24 O5          7.5627    5.6542    3.5601 O.3       1 <0>        -0.3280
     25 H5          5.0821    2.0071    5.4691 H         1 <0>         0.1317
     26 H6          6.6072    3.8417    4.8723 H         1 <0>         0.1332
     27 H7          3.2469    1.3765    3.9664 H         1 <0>         0.1237
     28 H8          2.6137    3.8751   -0.3833 H         1 <0>         0.2119
     29 H9         -1.8210    1.3134   -1.1404 H         1 <0>         0.0659
     30 H10        -0.6973    2.6889   -1.2578 H         1 <0>         0.0589
     31 H11        -0.6402    1.3233   -3.2168 H         1 <0>         0.3861
     32 H12        -1.7789   -0.0685    1.6727 H         1 <0>         0.3863
     33 H13        -0.3718    2.4732    3.8783 H         1 <0>         0.3900
     34 H14         6.3916    5.7848    1.8481 H         1 <0>         0.4193
     35 H15         8.1113    6.3850    3.2438 H         1 <0>         0.3906
@<TRIPOS>BOND
     1    1    6 ar
     2    1    2 ar
     3    1   25 1
     4    2    3 ar
     5    2   26 1
     6    3    4 ar
     7    3   23 1
     8    4    9 1
     9    4    5 ar
    10    5    6 ar
    11    5    7 1
    12    6   27 1
    13    7    8 1
    14    7   10 1
    15    8    9 2
    16    8   28 1
    17   10   11 1
    18   10   18 1
    19   10   12 1
    20   12   13 1
    21   12   14 1
    22   12   22 1
    23   14   15 1
    24   14   16 1
    25   14   21 1
    26   16   17 1
    27   16   18 1
    28   16   19 1
    29   19   20 1
    30   19   29 1
    31   19   30 1
    32   20   31 1
    33   21   32 1
    34   22   33 1
    35   23   24 1
    36   23   34 1
    37   24   35 1
@<TRIPOS>MOLECULE
ZINC03814302
   36    38     0     0     0
SMALL
USER_CHARGES

@<TRIPOS>ATOM
      1 C1          4.9429    2.5387    4.5393 C.ar      1 <0>        -0.0132
      2 C2          5.8034    3.5732    4.2028 C.ar      1 <0>        -0.1567
      3 C3          5.6391    4.2629    3.0156 C.ar      1 <0>         0.2852
      4 C4          4.5936    3.9116    2.1479 C.ar      1 <0>        -0.0294
      5 C5          3.7254    2.8674    2.5010 C.ar      1 <0>         0.1402
      6 C6          3.9120    2.1833    3.6962 C.ar      1 <0>        -0.1393
      7 N1          2.8204    2.7572    1.4643 N.pl3     1 <0>        -0.4357
      8 C7          3.1420    3.7072    0.5436 C.cat     1 <0>         0.3809
      9 C8          1.7151    1.7999    1.3745 C.3       1 <0>         0.3030
     10 H1          1.9860    0.8541    1.8439 H         1 <0>         0.1470
     11 C9          0.4337    2.3834    2.0224 C.3       1 <0>         0.0774
     12 H2          0.3482    3.4514    1.8221 H         1 <0>         0.0964
     13 C10        -0.6841    1.5937    1.2988 C.3       1 <0>         0.0468
     14 H3         -1.5216    2.2494    1.0606 H         1 <0>         0.0972
     15 C11        -0.0127    1.0858    0.0080 C.3       1 <0>         0.0520
     16 H4          0.0021   -0.0041    0.0020 H         1 <0>         0.1090
     17 O1          1.3323    1.5929   -0.0021 O.3       1 <0>        -0.3494
     18 C12        -0.7727    1.6023   -1.2153 C.3       1 <0>         0.0752
     19 O2         -0.2068    1.0390   -2.4004 O.3       1 <0>        -0.5645
     20 O3         -1.1201    0.4948    2.1015 O.3       1 <0>        -0.5355
     21 O4          0.4109    2.1272    3.4281 O.3       1 <0>        -0.5300
     22 N2          6.5090    5.3030    2.6818 N.pl3     1 <0>        -0.6064
     23 O5          7.5627    5.6542    3.5601 O.3       1 <0>        -0.3072
     24 H5          5.0821    2.0071    5.4691 H         1 <0>         0.1581
     25 H6          6.6072    3.8417    4.8723 H         1 <0>         0.1582
     26 H7          3.2469    1.3765    3.9664 H         1 <0>         0.1527
     27 H8          2.6137    3.8751   -0.3833 H         1 <0>         0.2636
     28 H9         -1.8210    1.3134   -1.1404 H         1 <0>         0.0742
     29 H10        -0.6973    2.6889   -1.2578 H         1 <0>         0.0591
     30 H11        -0.6402    1.3233   -3.2168 H         1 <0>         0.3927
     31 H12        -1.7789   -0.0685    1.6727 H         1 <0>         0.3955
     32 H13        -0.3718    2.4732    3.8783 H         1 <0>         0.4027
     33 H14         6.3916    5.7848    1.8481 H         1 <0>         0.4118
     34 H15         8.1113    6.3850    3.2438 H         1 <0>         0.4048
     35 N3          4.1797    4.3833    0.9430 N.pl3     1 <0>        -0.4898
     36 H16         4.6184    5.1548    0.4267 H         1 <0>         0.4735
@<TRIPOS>BOND
     1    1    6 ar
     2    1    2 ar
     3    1   24 1
     4    2    3 ar
     5    2   25 1
     6    3    4 ar
     7    3   22 1
     8    4    5 ar
     9    4   35 1
    10    5    6 ar
    11    5    7 1
    12    6   26 1
    13    7    8 1
    14    7    9 1
    15    8   27 1
    16    8   35 2
    17    9   10 1
    18    9   17 1
    19    9   11 1
    20   11   12 1
    21   11   13 1
    22   11   21 1
    23   13   14 1
    24   13   15 1
    25   13   20 1
    26   15   16 1
    27   15   17 1
    28   15   18 1
    29   18   19 1
    30   18   28 1
    31   18   29 1
    32   19   30 1
    33   20   31 1
    34   21   32 1
    35   22   23 1
    36   22   33 1
    37   23   34 1
    38   35   36 1
@<TRIPOS>MOLECULE
ZINC03814303
   45    47     0     0     0
SMALL
USER_CHARGES

@<TRIPOS>ATOM
      1 C1          4.1000    2.2874    7.1305 C.3       1 <0>        -0.1547
      2 C2          4.3302    1.2274    6.0515 C.3       1 <0>        -0.1249
      3 C3          3.8840    1.7757    4.6945 C.3       1 <0>        -0.1208
      4 C4          4.1142    0.7157    3.6155 C.3       1 <0>        -0.1179
      5 C5          3.6681    1.2639    2.2586 C.3       1 <0>        -0.1185
      6 C6          3.8983    0.2039    1.1795 C.3       1 <0>        -0.1319
      7 C7          3.5604    0.7910   -0.1924 C.3       1 <0>         0.1022
      8 H1          4.1416    1.6992   -0.3521 H         1 <0>         0.1177
      9 C8          3.8991   -0.2293   -1.2811 C.3       1 <0>         0.0947
     10 H2          3.3723   -1.1623   -1.0812 H         1 <0>         0.0668
     11 C9          5.4073   -0.4864   -1.2877 C.3       1 <0>        -0.1475
     12 O1          3.4973    0.2813   -2.5539 O.3       1 <0>        -0.5545
     13 N1          2.1315    1.1093   -0.2489 N.pl3     1 <0>        -0.4397
     14 C10         1.1041    0.2303   -0.0940 C.2       1 <0>         0.2322
     15 N2         -0.0331    0.8579   -0.2043 N.2       1 <0>        -0.4435
     16 C11         0.1985    2.1676   -0.4348 C.2       1 <0>         0.0518
     17 C12         1.5838    2.3488   -0.4670 C.2       1 <0>         0.1992
     18 N3          2.0899    3.5704   -0.6824 N.2       1 <0>        -0.4675
     19 C13         1.3370    4.6147   -0.8665 C.2       1 <0>         0.3533
     20 N4         -0.0235    4.5488   -0.8547 N.pl3     1 <0>        -0.4227
     21 C14        -0.6481    3.3414   -0.6467 C.2       1 <0>         0.2862
     22 N5         -1.9494    3.5373   -0.6882 N.2       1 <0>        -0.4630
     23 C15        -2.1925    4.8332   -0.9190 C.2       1 <0>         0.0224
     24 C16        -1.0134    5.4815   -1.0191 C.2       1 <0>        -0.0638
     25 H3          4.6777    3.1804    6.8917 H         1 <0>         0.0534
     26 H4          3.0405    2.5403    7.1713 H         1 <0>         0.0533
     27 H5          4.4178    1.8968    8.0972 H         1 <0>         0.0546
     28 H6          3.7525    0.3345    6.2903 H         1 <0>         0.0609
     29 H7          5.3896    0.9746    6.0107 H         1 <0>         0.0611
     30 H8          4.4617    2.6686    4.4557 H         1 <0>         0.0609
     31 H9          2.8246    2.0285    4.7353 H         1 <0>         0.0595
     32 H10         3.5365   -0.1773    3.8543 H         1 <0>         0.0628
     33 H11         5.1737    0.4628    3.5747 H         1 <0>         0.0642
     34 H12         4.2458    2.1569    2.0198 H         1 <0>         0.0651
     35 H13         2.6086    1.5168    2.2994 H         1 <0>         0.0587
     36 H14         3.2587   -0.6571    1.3738 H         1 <0>         0.0764
     37 H15         4.9424   -0.1084    1.1940 H         1 <0>         0.0945
     38 H16         5.6983   -0.9657   -0.3530 H         1 <0>         0.0790
     39 H17         5.6613   -1.1373   -2.1243 H         1 <0>         0.0747
     40 H18         5.9369    0.4608   -1.3905 H         1 <0>         0.0680
     41 H19         2.5509    0.4676   -2.6220 H         1 <0>         0.3762
     42 H20         1.2143   -0.8279    0.0919 H         1 <0>         0.2237
     43 H21         1.8089    5.5715   -1.0349 H         1 <0>         0.2158
     44 H22        -3.1695    5.2856   -1.0037 H         1 <0>         0.1879
     45 H23        -0.8757    6.5365   -1.2051 H         1 <0>         0.1938
@<TRIPOS>BOND
     1    1    2 1
     2    1   25 1
     3    1   26 1
     4    1   27 1
     5    2    3 1
     6    2   28 1
     7    2   29 1
     8    3    4 1
     9    3   30 1
    10    3   31 1
    11    4    5 1
    12    4   32 1
    13    4   33 1
    14    5    6 1
    15    5   34 1
    16    5   35 1
    17    6    7 1
    18    6   36 1
    19    6   37 1
    20    7    8 1
    21    7    9 1
    22    7   13 1
    23    9   10 1
    24    9   11 1
    25    9   12 1
    26   11   38 1
    27   11   39 1
    28   11   40 1
    29   12   41 1
    30   13   17 1
    31   13   14 1
    32   14   15 2
    33   14   42 1
    34   15   16 1
    35   16   21 1
    36   16   17 2
    37   17   18 1
    38   18   19 2
    39   19   20 1
    40   19   43 1
    41   20   24 1
    42   20   21 1
    43   21   22 2
    44   22   23 1
    45   23   24 2
    46   23   44 1
    47   24   45 1
@<TRIPOS>MOLECULE
ZINC03814303
   46    48     0     0     0
SMALL
USER_CHARGES

@<TRIPOS>ATOM
      1 C1          4.1000    2.2874    7.1305 C.3       1 <0>        -0.1554
      2 C2          4.3302    1.2274    6.0515 C.3       1 <0>        -0.1265
      3 C3          3.8840    1.7757    4.6945 C.3       1 <0>        -0.1192
      4 C4          4.1142    0.7157    3.6155 C.3       1 <0>        -0.1209
      5 C5          3.6681    1.2639    2.2586 C.3       1 <0>        -0.1185
      6 C6          3.8983    0.2039    1.1795 C.3       1 <0>        -0.1364
      7 C7          3.5604    0.7910   -0.1924 C.3       1 <0>         0.0932
      8 H1          4.1416    1.6992   -0.3521 H         1 <0>         0.1276
      9 C8          3.8991   -0.2293   -1.2811 C.3       1 <0>         0.0943
     10 H2          3.3723   -1.1623   -1.0812 H         1 <0>         0.0727
     11 C9          5.4073   -0.4864   -1.2877 C.3       1 <0>        -0.1510
     12 O1          3.4973    0.2813   -2.5539 O.3       1 <0>        -0.5485
     13 N1          2.1315    1.1093   -0.2489 N.pl3     1 <0>        -0.4281
     14 C10         1.1041    0.2303   -0.0940 C.2       1 <0>         0.2824
     15 N2         -0.0331    0.8579   -0.2043 N.2       1 <0>        -0.4471
     16 C11         0.1985    2.1676   -0.4348 C.2       1 <0>         0.0068
     17 C12         1.5838    2.3488   -0.4670 C.2       1 <0>         0.2500
     18 N3          2.0899    3.5704   -0.6824 N.2       1 <0>        -0.4267
     19 C13         1.3370    4.6147   -0.8665 C.2       1 <0>         0.3651
     20 N4         -0.0235    4.5488   -0.8547 N.pl3     1 <0>        -0.3817
     21 C14        -0.6481    3.3414   -0.6467 C.cat     1 <0>         0.3785
     22 C15        -2.1925    4.8332   -0.9190 C.2       1 <0>         0.0531
     23 C16        -1.0134    5.4815   -1.0191 C.2       1 <0>         0.0132
     24 H3          4.6777    3.1804    6.8917 H         1 <0>         0.0541
     25 H4          3.0405    2.5403    7.1713 H         1 <0>         0.0522
     26 H5          4.4178    1.8968    8.0972 H         1 <0>         0.0577
     27 H6          3.7525    0.3345    6.2903 H         1 <0>         0.0617
     28 H7          5.3896    0.9746    6.0107 H         1 <0>         0.0637
     29 H8          4.4617    2.6686    4.4557 H         1 <0>         0.0616
     30 H9          2.8246    2.0285    4.7353 H         1 <0>         0.0568
     31 H10         3.5365   -0.1773    3.8543 H         1 <0>         0.0650
     32 H11         5.1737    0.4628    3.5747 H         1 <0>         0.0690
     33 H12         4.2458    2.1569    2.0198 H         1 <0>         0.0678
     34 H13         2.6086    1.5168    2.2994 H         1 <0>         0.0526
     35 H14         3.2587   -0.6571    1.3738 H         1 <0>         0.0813
     36 H15         4.9424   -0.1084    1.1940 H         1 <0>         0.1061
     37 H16         5.6983   -0.9657   -0.3530 H         1 <0>         0.0836
     38 H17         5.6613   -1.1373   -2.1243 H         1 <0>         0.0814
     39 H18         5.9369    0.4608   -1.3905 H         1 <0>         0.0712
     40 H19         2.5509    0.4676   -2.6220 H         1 <0>         0.3698
     41 H20         1.2143   -0.8279    0.0919 H         1 <0>         0.2425
     42 H21         1.8089    5.5715   -1.0349 H         1 <0>         0.2499
     43 H22        -3.1695    5.2856   -1.0037 H         1 <0>         0.2363
     44 H23        -0.8757    6.5365   -1.2051 H         1 <0>         0.2372
     45 N5         -1.9482    3.5385   -0.6884 N.pl3     1 <0>        -0.4834
     46 H24        -2.6633    2.8123   -0.5635 H         1 <0>         0.4850
@<TRIPOS>BOND
     1    1    2 1
     2    1   24 1
     3    1   25 1
     4    1   26 1
     5    2    3 1
     6    2   27 1
     7    2   28 1
     8    3    4 1
     9    3   29 1
    10    3   30 1
    11    4    5 1
    12    4   31 1
    13    4   32 1
    14    5    6 1
    15    5   33 1
    16    5   34 1
    17    6    7 1
    18    6   35 1
    19    6   36 1
    20    7    8 1
    21    7    9 1
    22    7   13 1
    23    9   10 1
    24    9   11 1
    25    9   12 1
    26   11   37 1
    27   11   38 1
    28   11   39 1
    29   12   40 1
    30   13   17 1
    31   13   14 1
    32   14   15 2
    33   14   41 1
    34   15   16 1
    35   16   21 1
    36   16   17 2
    37   17   18 1
    38   18   19 2
    39   19   20 1
    40   19   42 1
    41   20   23 1
    42   20   21 1
    43   21   45 2
    44   22   23 2
    45   22   43 1
    46   22   45 1
    47   23   44 1
    48   45   46 1
@<TRIPOS>MOLECULE
ZINC03814305
   32    34     0     0     0
SMALL
USER_CHARGES

@<TRIPOS>ATOM
      1 C1         -1.1247    2.2589    0.0189 C.2       1 <0>         0.1871
      2 N1         -0.7455    3.5131    0.0273 N.2       1 <0>        -0.4605
      3 C2          0.5779    3.5712    0.0154 C.2       1 <0>        -0.0778
      4 C3          1.0648    2.2870    0.0042 C.2       1 <0>         0.2001
      5 N2         -0.0178    1.4608    0.0101 N.pl3     1 <0>        -0.4376
      6 C4          0.0021   -0.0041    0.0020 C.3       1 <0>         0.3142
      7 H1          0.8068   -0.3723   -0.6343 H         1 <0>         0.1218
      8 C5          0.1497   -0.5558    1.4429 C.3       1 <0>         0.0806
      9 H2         -0.4104    0.0536    2.1521 H         1 <0>         0.0881
     10 C6         -0.4730   -1.9674    1.3150 C.3       1 <0>         0.0450
     11 H3         -1.0779   -2.1985    2.1918 H         1 <0>         0.0870
     12 C7         -1.3588   -1.8770    0.0572 C.3       1 <0>         0.0526
     13 H4         -0.9974   -2.5713   -0.7013 H         1 <0>         0.0985
     14 O1         -1.2722   -0.5274   -0.4302 O.3       1 <0>        -0.3480
     15 C8         -2.8085   -2.2082    0.4170 C.3       1 <0>         0.0772
     16 O2         -3.6000   -2.2359   -0.7724 O.3       1 <0>        -0.5626
     17 O3          0.5487   -2.9506    1.1375 O.3       1 <0>        -0.5357
     18 O4          1.5258   -0.6370    1.8194 O.3       1 <0>        -0.5195
     19 N3          2.4036    2.0227   -0.0102 N.2       1 <0>        -0.5209
     20 C9          3.2356    3.0014    0.2340 C.2       1 <0>         0.3929
     21 N4          2.8025    4.2643    0.5404 N.pl3     1 <0>        -0.7563
     22 C10         1.5153    4.7558    0.0137 C.3       1 <0>         0.2152
     23 H5         -2.1478    1.9128    0.0215 H         1 <0>         0.2128
     24 H6         -2.8486   -3.1831    0.9029 H         1 <0>         0.0658
     25 H7         -3.1974   -1.4482    1.0946 H         1 <0>         0.0586
     26 H8         -4.5327   -2.4403   -0.6195 H         1 <0>         0.3858
     27 H9          0.2146   -3.8540    1.0517 H         1 <0>         0.3856
     28 H10         1.6697   -0.9768    2.7132 H         1 <0>         0.3851
     29 H11         4.2974    2.8082    0.1925 H         1 <0>         0.1911
     30 H12         3.3438    4.8371    1.1059 H         1 <0>         0.4098
     31 H13         1.6446    5.1296   -1.0020 H         1 <0>         0.0708
     32 H14         1.1239    5.5440    0.6570 H         1 <0>         0.0933
@<TRIPOS>BOND
     1    1    5 1
     2    1    2 2
     3    1   23 1
     4    2    3 1
     5    3   22 1
     6    3    4 2
     7    4    5 1
     8    4   19 1
     9    5    6 1
    10    6    7 1
    11    6   14 1
    12    6    8 1
    13    8    9 1
    14    8   10 1
    15    8   18 1
    16   10   11 1
    17   10   12 1
    18   10   17 1
    19   12   13 1
    20   12   14 1
    21   12   15 1
    22   15   16 1
    23   15   24 1
    24   15   25 1
    25   16   26 1
    26   17   27 1
    27   18   28 1
    28   19   20 2
    29   20   21 1
    30   20   29 1
    31   21   22 1
    32   21   30 1
    33   22   31 1
    34   22   32 1
@<TRIPOS>MOLECULE
ZINC03814306
   35    37     0     0     0
SMALL
USER_CHARGES

@<TRIPOS>ATOM
      1 C1         -3.4138    1.0130    4.6464 C.ar      1 <0>        -0.1993
      2 C2         -3.1989    1.7965    3.5210 C.ar      1 <0>         0.0386
      3 C3         -2.6719    1.2428    2.3727 C.ar      1 <0>        -0.1577
      4 C4         -2.3480   -0.1082    2.3391 C.ar      1 <0>         0.1180
      5 C5         -2.5664   -0.9102    3.4695 C.ar      1 <0>        -0.0118
      6 C6         -3.1027   -0.3342    4.6315 C.ar      1 <0>         0.3059
      7 N1         -3.3215   -1.1175    5.7665 N.pl3     1 <0>        -0.5995
      8 O1         -3.8627   -0.5326    6.9369 O.3       1 <0>        -0.3250
      9 N2         -2.1679   -2.1679    3.1473 N.2       1 <0>        -0.4839
     10 C7         -1.7350   -2.1884    1.9210 C.2       1 <0>         0.2680
     11 N3         -1.8263   -0.9452    1.3730 N.pl3     1 <0>        -0.4880
     12 C8         -1.4372   -0.5650    0.0127 C.3       1 <0>         0.3125
     13 H1         -2.1342    0.1706   -0.3889 H         1 <0>         0.1179
     14 C9          0.0021   -0.0041    0.0020 C.3       1 <0>         0.0767
     15 H2          0.5657   -0.3821    0.8550 H         1 <0>         0.0891
     16 C10         0.6002   -0.5301   -1.3219 C.3       1 <0>         0.0472
     17 H3          1.4602   -1.1701   -1.1249 H         1 <0>         0.0872
     18 C11        -0.5486   -1.3466   -1.9545 C.3       1 <0>         0.0502
     19 H4         -1.1092   -0.7309   -2.6578 H         1 <0>         0.0996
     20 O2         -1.3863   -1.7283   -0.8417 O.3       1 <0>        -0.3440
     21 C12         0.0021   -2.5891   -2.6573 C.3       1 <0>         0.0819
     22 O3         -1.0718   -3.3043   -3.2714 O.3       1 <0>        -0.5628
     23 O4          0.9684    0.5578   -2.1722 O.3       1 <0>        -0.5394
     24 O5         -0.0173    1.4248    0.0099 O.3       1 <0>        -0.5330
     25 Cl1        -3.5957    3.4861    3.5590 Cl        1 <0>        -0.0578
     26 H5         -3.8269    1.4584    5.5394 H         1 <0>         0.1452
     27 H6         -2.5076    1.8597    1.5016 H         1 <0>         0.1367
     28 H7         -3.1026   -2.0624    5.7532 H         1 <0>         0.4226
     29 H8         -3.9779   -1.1531    7.6696 H         1 <0>         0.3931
     30 H9         -1.3586   -3.0634    1.4119 H         1 <0>         0.2163
     31 H10         0.7203   -2.2870   -3.4195 H         1 <0>         0.0669
     32 H11         0.4955   -3.2308   -1.9272 H         1 <0>         0.0602
     33 H12        -0.7954   -4.1058   -3.7366 H         1 <0>         0.3868
     34 H13         1.3497    0.2845   -3.0178 H         1 <0>         0.3877
     35 H14         0.8606    1.8301    0.0037 H         1 <0>         0.3940
@<TRIPOS>BOND
     1    1    6 ar
     2    1    2 ar
     3    1   26 1
     4    2    3 ar
     5    2   25 1
     6    3    4 ar
     7    3   27 1
     8    4   11 1
     9    4    5 ar
    10    5    6 ar
    11    5    9 1
    12    6    7 1
    13    7    8 1
    14    7   28 1
    15    8   29 1
    16    9   10 2
    17   10   11 1
    18   10   30 1
    19   11   12 1
    20   12   13 1
    21   12   20 1
    22   12   14 1
    23   14   15 1
    24   14   16 1
    25   14   24 1
    26   16   17 1
    27   16   18 1
    28   16   23 1
    29   18   19 1
    30   18   20 1
    31   18   21 1
    32   21   22 1
    33   21   31 1
    34   21   32 1
    35   22   33 1
    36   23   34 1
    37   24   35 1
@<TRIPOS>MOLECULE
ZINC03814306
   36    38     0     0     0
SMALL
USER_CHARGES

@<TRIPOS>ATOM
      1 C1         -3.4138    1.0130    4.6464 C.ar      1 <0>        -0.1539
      2 C2         -3.1989    1.7965    3.5210 C.ar      1 <0>         0.0603
      3 C3         -2.6719    1.2428    2.3727 C.ar      1 <0>        -0.1384
      4 C4         -2.3480   -0.1082    2.3391 C.ar      1 <0>         0.1523
      5 C5         -2.5664   -0.9102    3.4695 C.ar      1 <0>        -0.0277
      6 C6         -3.1027   -0.3342    4.6315 C.ar      1 <0>         0.3025
      7 N1         -3.3215   -1.1175    5.7665 N.pl3     1 <0>        -0.5998
      8 O1         -3.8627   -0.5326    6.9369 O.3       1 <0>        -0.3042
      9 C7         -1.7350   -2.1884    1.9210 C.cat     1 <0>         0.3898
     10 N2         -1.8263   -0.9452    1.3730 N.pl3     1 <0>        -0.4362
     11 C8         -1.4372   -0.5650    0.0127 C.3       1 <0>         0.2999
     12 H1         -2.1342    0.1706   -0.3889 H         1 <0>         0.1472
     13 C9          0.0021   -0.0041    0.0020 C.3       1 <0>         0.0766
     14 H2          0.5657   -0.3821    0.8550 H         1 <0>         0.0924
     15 C10         0.6002   -0.5301   -1.3219 C.3       1 <0>         0.0491
     16 H3          1.4602   -1.1701   -1.1249 H         1 <0>         0.0946
     17 C11        -0.5486   -1.3466   -1.9545 C.3       1 <0>         0.0511
     18 H4         -1.1092   -0.7309   -2.6578 H         1 <0>         0.1098
     19 O2         -1.3863   -1.7283   -0.8417 O.3       1 <0>        -0.3467
     20 C12         0.0021   -2.5891   -2.6573 C.3       1 <0>         0.0801
     21 O3         -1.0718   -3.3043   -3.2714 O.3       1 <0>        -0.5644
     22 O4          0.9684    0.5578   -2.1722 O.3       1 <0>        -0.5364
     23 O5         -0.0173    1.4248    0.0099 O.3       1 <0>        -0.5324
     24 Cl1        -3.5957    3.4861    3.5590 Cl        1 <0>        -0.0091
     25 H5         -3.8269    1.4584    5.5394 H         1 <0>         0.1691
     26 H6         -2.5076    1.8597    1.5016 H         1 <0>         0.1643
     27 H7         -3.1026   -2.0624    5.7532 H         1 <0>         0.4152
     28 H8         -3.9779   -1.1531    7.6696 H         1 <0>         0.4072
     29 H9         -1.3586   -3.0634    1.4119 H         1 <0>         0.2677
     30 H10         0.7203   -2.2870   -3.4195 H         1 <0>         0.0748
     31 H11         0.4955   -3.2308   -1.9272 H         1 <0>         0.0612
     32 H12        -0.7954   -4.1058   -3.7366 H         1 <0>         0.3935
     33 H13         1.3497    0.2845   -3.0178 H         1 <0>         0.3967
     34 H14         0.8606    1.8301    0.0037 H         1 <0>         0.4060
     35 N3         -2.1679   -2.1687    3.1479 N.pl3     1 <0>        -0.4882
     36 H15        -2.2030   -2.9798    3.7766 H         1 <0>         0.4760
@<TRIPOS>BOND
     1    1    6 ar
     2    1    2 ar
     3    1   25 1
     4    2    3 ar
     5    2   24 1
     6    3    4 ar
     7    3   26 1
     8    4   10 1
     9    4    5 ar
    10    5    6 ar
    11    5   35 1
    12    6    7 1
    13    7    8 1
    14    7   27 1
    15    8   28 1
    16    9   10 1
    17    9   29 1
    18    9   35 2
    19   10   11 1
    20   11   12 1
    21   11   19 1
    22   11   13 1
    23   13   14 1
    24   13   15 1
    25   13   23 1
    26   15   16 1
    27   15   17 1
    28   15   22 1
    29   17   18 1
    30   17   19 1
    31   17   20 1
    32   20   21 1
    33   20   30 1
    34   20   31 1
    35   21   32 1
    36   22   33 1
    37   23   34 1
    38   35   36 1
@<TRIPOS>MOLECULE
ZINC03814307
   29    30     0     0     0
SMALL
USER_CHARGES

@<TRIPOS>ATOM
      1 C1         -2.2842   -1.0095    0.4042 C.2       1 <0>        -0.0259
      2 C2         -2.9694   -1.3931    1.4983 C.2       1 <0>        -0.0064
      3 N1         -2.2015   -1.1576    2.5725 N.2       1 <0>        -0.4881
      4 C3         -1.0642   -0.6480    2.1852 C.2       1 <0>         0.2097
      5 N2         -1.0770   -0.5334    0.8397 N.pl3     1 <0>        -0.4595
      6 C4          0.0021   -0.0041    0.0020 C.3       1 <0>         0.2968
      7 H1         -0.0889   -0.3792   -1.0173 H         1 <0>         0.1094
      8 C5         -0.0189    1.5406    0.0105 C.3       1 <0>        -0.1969
      9 C6          1.4746    1.9364   -0.0016 C.3       1 <0>         0.0808
     10 H2          1.7099    2.5121   -0.8968 H         1 <0>         0.0869
     11 C7          2.2212    0.5840   -0.0160 C.3       1 <0>         0.0883
     12 H3          2.4705    0.2991   -1.0381 H         1 <0>         0.0974
     13 O1          1.2881   -0.3587    0.5553 O.3       1 <0>        -0.3526
     14 C8          3.4883    0.6634    0.8379 C.3       1 <0>         0.0913
     15 O2          4.1844   -0.5830    0.7743 O.3       1 <0>        -0.5714
     16 O3          1.8055    2.6785    1.1739 O.3       1 <0>        -0.5526
     17 C9         -4.3558   -1.9834    1.5131 C.3       1 <0>         0.1653
     18 O4         -4.8471   -2.0791    0.1746 O.3       1 <0>        -0.5742
     19 H4         -2.6220   -1.0671   -0.6200 H         1 <0>         0.1804
     20 H5         -0.2489   -0.3629    2.8335 H         1 <0>         0.2067
     21 H6         -0.5219    1.9206   -0.8786 H         1 <0>         0.0995
     22 H7         -0.5048    1.9110    0.9131 H         1 <0>         0.0988
     23 H8          4.1315    1.4584    0.4606 H         1 <0>         0.0662
     24 H9          3.2168    0.8756    1.8720 H         1 <0>         0.0668
     25 H10         4.9998   -0.6051    1.2936 H         1 <0>         0.3848
     26 H11         1.3195    3.5096    1.2641 H         1 <0>         0.3866
     27 H12        -4.3229   -2.9771    1.9599 H         1 <0>         0.0621
     28 H13        -5.0169   -1.3438    2.0979 H         1 <0>         0.0614
     29 H14        -5.7370   -2.4515    0.1080 H         1 <0>         0.3883
@<TRIPOS>BOND
     1    1    5 1
     2    1    2 2
     3    1   19 1
     4    2    3 1
     5    2   17 1
     6    3    4 2
     7    4    5 1
     8    4   20 1
     9    5    6 1
    10    6    7 1
    11    6   13 1
    12    6    8 1
    13    8    9 1
    14    8   21 1
    15    8   22 1
    16    9   10 1
    17    9   11 1
    18    9   16 1
    19   11   12 1
    20   11   13 1
    21   11   14 1
    22   14   15 1
    23   14   23 1
    24   14   24 1
    25   15   25 1
    26   16   26 1
    27   17   18 1
    28   17   27 1
    29   17   28 1
    30   18   29 1
@<TRIPOS>MOLECULE
ZINC03814307
   30    31     0     0     0
SMALL
USER_CHARGES

@<TRIPOS>ATOM
      1 C1         -2.2842   -1.0095    0.4042 C.2       1 <0>         0.0559
      2 C2         -2.9694   -1.3931    1.4983 C.2       1 <0>         0.0229
      3 C3         -1.0642   -0.6480    2.1852 C.cat     1 <0>         0.3143
      4 N1         -1.0770   -0.5334    0.8397 N.pl3     1 <0>        -0.4107
      5 C4          0.0021   -0.0041    0.0020 C.3       1 <0>         0.2865
      6 H1         -0.0889   -0.3792   -1.0173 H         1 <0>         0.1424
      7 C5         -0.0189    1.5406    0.0105 C.3       1 <0>        -0.2006
      8 C6          1.4746    1.9364   -0.0016 C.3       1 <0>         0.0808
      9 H2          1.7099    2.5121   -0.8968 H         1 <0>         0.0990
     10 C7          2.2212    0.5840   -0.0160 C.3       1 <0>         0.0903
     11 H3          2.4705    0.2991   -1.0381 H         1 <0>         0.1095
     12 O1          1.2881   -0.3587    0.5553 O.3       1 <0>        -0.3539
     13 C8          3.4883    0.6634    0.8379 C.3       1 <0>         0.0892
     14 O2          4.1844   -0.5830    0.7743 O.3       1 <0>        -0.5728
     15 O3          1.8055    2.6785    1.1739 O.3       1 <0>        -0.5507
     16 C9         -4.3558   -1.9834    1.5131 C.3       1 <0>         0.1434
     17 O4         -4.8471   -2.0791    0.1746 O.3       1 <0>        -0.5637
     18 H4         -2.6220   -1.0671   -0.6200 H         1 <0>         0.2277
     19 H5         -0.2489   -0.3629    2.8335 H         1 <0>         0.2615
     20 H6         -0.5219    1.9206   -0.8786 H         1 <0>         0.1152
     21 H7         -0.5048    1.9110    0.9131 H         1 <0>         0.1016
     22 H8          4.1315    1.4584    0.4606 H         1 <0>         0.0748
     23 H9          3.2168    0.8756    1.8720 H         1 <0>         0.0674
     24 H10         4.9998   -0.6051    1.2936 H         1 <0>         0.3919
     25 H11         1.3195    3.5096    1.2641 H         1 <0>         0.3923
     26 H12        -4.3229   -2.9771    1.9599 H         1 <0>         0.0867
     27 H13        -5.0169   -1.3438    2.0979 H         1 <0>         0.0861
     28 H14        -5.7370   -2.4515    0.1080 H         1 <0>         0.4117
     29 N2         -2.2012   -1.1574    2.5712 N.pl3     1 <0>        -0.4792
     30 H15        -2.4663   -1.3479    3.5447 H         1 <0>         0.4804
@<TRIPOS>BOND
     1    1    4 1
     2    1    2 2
     3    1   18 1
     4    2   16 1
     5    2   29 1
     6    3    4 1
     7    3   19 1
     8    3   29 2
     9    4    5 1
    10    5    6 1
    11    5   12 1
    12    5    7 1
    13    7    8 1
    14    7   20 1
    15    7   21 1
    16    8    9 1
    17    8   10 1
    18    8   15 1
    19   10   11 1
    20   10   12 1
    21   10   13 1
    22   13   14 1
    23   13   22 1
    24   13   23 1
    25   14   24 1
    26   15   25 1
    27   16   17 1
    28   16   26 1
    29   16   27 1
    30   17   28 1
    31   29   30 1
@<TRIPOS>MOLECULE
ZINC03814308
   34    37     0     0     0
SMALL
USER_CHARGES

@<TRIPOS>ATOM
      1 C1         -0.0126    1.0758    0.0080 C.2       1 <0>         0.0217
      2 C2         -1.1190    1.8480    0.0168 C.2       1 <0>        -0.0634
      3 N1         -0.7018    3.1528    0.0244 N.pl3     1 <0>        -0.4220
      4 C3         -1.3584    4.3462    0.0355 C.2       1 <0>         0.3503
      5 N2         -0.7354    5.4878    0.0347 N.2       1 <0>        -0.4571
      6 C4          0.6013    5.5768    0.0228 C.2       1 <0>         0.2074
      7 C5          1.3740    4.4125    0.0115 C.2       1 <0>         0.0565
      8 C6          0.6732    3.1287    0.0116 C.2       1 <0>         0.2858
      9 N3          1.0638    1.8714    0.0020 N.2       1 <0>        -0.4627
     10 N4          2.6707    4.7875    0.0021 N.2       1 <0>        -0.4480
     11 C7          2.7448    6.0889    0.0081 C.2       1 <0>         0.2551
     12 N5          1.4922    6.6210    0.0190 N.pl3     1 <0>        -0.4455
     13 C8          1.1563    8.0469    0.0281 C.3       1 <0>         0.3118
     14 H1          0.2786    8.2373   -0.5896 H         1 <0>         0.1254
     15 C9          0.9215    8.5430    1.4777 C.3       1 <0>         0.0783
     16 H2          1.6139    8.0638    2.1698 H         1 <0>         0.0921
     17 C10         1.2219   10.0567    1.3550 C.3       1 <0>         0.0456
     18 H3          1.7799   10.4065    2.2236 H         1 <0>         0.0895
     19 C11         2.0813   10.1692    0.0809 C.3       1 <0>         0.0526
     20 H4          1.5636   10.7746   -0.6632 H         1 <0>         0.1004
     21 O1          2.2787    8.8365   -0.4205 O.3       1 <0>        -0.3464
     22 C12         3.4322   10.8033    0.4187 C.3       1 <0>         0.0766
     23 O2          4.1754   11.0102   -0.7841 O.3       1 <0>        -0.5628
     24 O3          0.0087   10.7971    1.2070 O.3       1 <0>        -0.5358
     25 O4         -0.4322    8.3227    1.8791 O.3       1 <0>        -0.5219
     26 H5          0.0021   -0.0041    0.0020 H         1 <0>         0.1879
     27 H6         -2.1421    1.5021    0.0194 H         1 <0>         0.1939
     28 H7         -2.4384    4.3444    0.0450 H         1 <0>         0.2169
     29 H8          3.6620    6.6591    0.0030 H         1 <0>         0.2288
     30 H9          3.2704   11.7601    0.9151 H         1 <0>         0.0669
     31 H10         3.9894   10.1403    1.0806 H         1 <0>         0.0597
     32 H11         5.0447   11.4103   -0.6454 H         1 <0>         0.3869
     33 H12         0.1381   11.7520    1.1257 H         1 <0>         0.3870
     34 H13        -0.6284    8.6168    2.7791 H         1 <0>         0.3886
@<TRIPOS>BOND
     1    1    9 1
     2    1    2 2
     3    1   26 1
     4    2    3 1
     5    2   27 1
     6    3    8 1
     7    3    4 1
     8    4    5 2
     9    4   28 1
    10    5    6 1
    11    6   12 1
    12    6    7 2
    13    7    8 1
    14    7   10 1
    15    8    9 2
    16   10   11 2
    17   11   12 1
    18   11   29 1
    19   12   13 1
    20   13   14 1
    21   13   21 1
    22   13   15 1
    23   15   16 1
    24   15   17 1
    25   15   25 1
    26   17   18 1
    27   17   19 1
    28   17   24 1
    29   19   20 1
    30   19   21 1
    31   19   22 1
    32   22   23 1
    33   22   30 1
    34   22   31 1
    35   23   32 1
    36   24   33 1
    37   25   34 1
@<TRIPOS>MOLECULE
ZINC03814308
   35    38     0     0     0
SMALL
USER_CHARGES

@<TRIPOS>ATOM
      1 C1         -0.0126    1.0758    0.0080 C.2       1 <0>         0.0531
      2 C2         -1.1190    1.8480    0.0168 C.2       1 <0>         0.0130
      3 N1         -0.7018    3.1528    0.0244 N.pl3     1 <0>        -0.3807
      4 C3         -1.3584    4.3462    0.0355 C.2       1 <0>         0.3626
      5 N2         -0.7354    5.4878    0.0347 N.2       1 <0>        -0.4170
      6 C4          0.6013    5.5768    0.0228 C.2       1 <0>         0.2607
      7 C5          1.3740    4.4125    0.0115 C.2       1 <0>         0.0118
      8 C6          0.6732    3.1287    0.0116 C.cat     1 <0>         0.3776
      9 N3          2.6707    4.7875    0.0021 N.2       1 <0>        -0.4526
     10 C7          2.7448    6.0889    0.0081 C.2       1 <0>         0.3052
     11 N4          1.4922    6.6210    0.0190 N.pl3     1 <0>        -0.4343
     12 C8          1.1563    8.0469    0.0281 C.3       1 <0>         0.3017
     13 H1          0.2786    8.2373   -0.5896 H         1 <0>         0.1365
     14 C9          0.9215    8.5430    1.4777 C.3       1 <0>         0.0780
     15 H2          1.6139    8.0638    2.1698 H         1 <0>         0.0942
     16 C10         1.2219   10.0567    1.3550 C.3       1 <0>         0.0470
     17 H3          1.7799   10.4065    2.2236 H         1 <0>         0.0950
     18 C11         2.0813   10.1692    0.0809 C.3       1 <0>         0.0524
     19 H4          1.5636   10.7746   -0.6632 H         1 <0>         0.1063
     20 O1          2.2787    8.8365   -0.4205 O.3       1 <0>        -0.3449
     21 C12         3.4322   10.8033    0.4187 C.3       1 <0>         0.0755
     22 O2          4.1754   11.0102   -0.7841 O.3       1 <0>        -0.5638
     23 O3          0.0087   10.7971    1.2070 O.3       1 <0>        -0.5360
     24 O4         -0.4322    8.3227    1.8791 O.3       1 <0>        -0.5267
     25 H5          0.0021   -0.0041    0.0020 H         1 <0>         0.2362
     26 H6         -2.1421    1.5021    0.0194 H         1 <0>         0.2372
     27 H7         -2.4384    4.3444    0.0450 H         1 <0>         0.2508
     28 H8          3.6620    6.6591    0.0030 H         1 <0>         0.2467
     29 H9          3.2704   11.7601    0.9151 H         1 <0>         0.0719
     30 H10         3.9894   10.1403    1.0806 H         1 <0>         0.0598
     31 H11         5.0447   11.4103   -0.6454 H         1 <0>         0.3913
     32 H12         0.1381   11.7520    1.1257 H         1 <0>         0.3933
     33 H13        -0.6284    8.6168    2.7791 H         1 <0>         0.3964
     34 N5          1.0622    1.8719    0.0020 N.pl3     1 <0>        -0.4833
     35 H14         2.0379    1.5523   -0.0084 H         1 <0>         0.4849
@<TRIPOS>BOND
     1    1    2 2
     2    1   25 1
     3    1   34 1
     4    2    3 1
     5    2   26 1
     6    3    8 1
     7    3    4 1
     8    4    5 2
     9    4   27 1
    10    5    6 1
    11    6   11 1
    12    6    7 2
    13    7    8 1
    14    7    9 1
    15    8   34 2
    16    9   10 2
    17   10   11 1
    18   10   28 1
    19   11   12 1
    20   12   13 1
    21   12   20 1
    22   12   14 1
    23   14   15 1
    24   14   16 1
    25   14   24 1
    26   16   17 1
    27   16   18 1
    28   16   23 1
    29   18   19 1
    30   18   20 1
    31   18   21 1
    32   21   22 1
    33   21   29 1
    34   21   30 1
    35   22   31 1
    36   23   32 1
    37   24   33 1
    38   34   35 1
@<TRIPOS>MOLECULE
ZINC03814309
   36    36     0     0     0
SMALL
USER_CHARGES

@<TRIPOS>ATOM
      1 C1          9.2188   -0.9209   -2.9507 C.3       1 <0>        -0.1547
      2 C2          7.7513   -0.6324   -3.2733 C.3       1 <0>        -0.1261
      3 C3          7.0376   -0.1457   -2.0105 C.3       1 <0>        -0.1212
      4 C4          5.5701    0.1428   -2.3332 C.3       1 <0>        -0.1187
      5 C5          4.8565    0.6296   -1.0704 C.3       1 <0>        -0.1173
      6 C6          3.3889    0.9180   -1.3930 C.3       1 <0>        -0.1265
      7 C7          2.6753    1.4048   -0.1302 C.3       1 <0>         0.1094
      8 H1          3.2071    2.2635    0.2796 H         1 <0>         0.1212
      9 C8          2.6482    0.2796    0.9062 C.3       1 <0>         0.0937
     10 H2          3.6685   -0.0289    1.1343 H         1 <0>         0.1276
     11 C9          1.9687    0.7785    2.1830 C.3       1 <0>        -0.1920
     12 O1          1.9201   -0.8329    0.3825 O.3       1 <0>        -0.5511
     13 N1          1.3030    1.7942   -0.4642 N.pl3     1 <0>        -0.2861
     14 C10         0.5099    1.1948   -1.3821 C.2       1 <0>        -0.0552
     15 C11        -0.6608    1.8739   -1.3699 C.2       1 <0>        -0.0488
     16 N2         -0.5311    2.8379   -0.4515 N.2       1 <0>        -0.2706
     17 N3          0.6448    2.7656    0.0649 N.2       1 <0>        -0.0835
     18 H3          9.2771   -1.6904   -2.1809 H         1 <0>         0.0538
     19 H4          9.7272   -1.2677   -3.8503 H         1 <0>         0.0541
     20 H5          9.6976   -0.0101   -2.5910 H         1 <0>         0.0535
     21 H6          7.2725   -1.5432   -3.6330 H         1 <0>         0.0611
     22 H7          7.6930    0.1371   -4.0431 H         1 <0>         0.0606
     23 H8          7.5164    0.7651   -1.6508 H         1 <0>         0.0618
     24 H9          7.0959   -0.9152   -1.2407 H         1 <0>         0.0626
     25 H10         5.0914   -0.7680   -2.6929 H         1 <0>         0.0649
     26 H11         5.5118    0.9123   -3.1029 H         1 <0>         0.0627
     27 H12         5.3352    1.5403   -0.7107 H         1 <0>         0.0675
     28 H13         4.9148   -0.1399   -0.3006 H         1 <0>         0.0716
     29 H14         2.9102    0.0073   -1.7527 H         1 <0>         0.0855
     30 H15         3.3306    1.6876   -2.1628 H         1 <0>         0.0754
     31 H16         0.9485    1.0869    1.9549 H         1 <0>         0.0611
     32 H17         1.9495   -0.0232    2.9213 H         1 <0>         0.0731
     33 H18         2.5242    1.6270    2.5824 H         1 <0>         0.0748
     34 H19         0.9821   -0.6529    0.2311 H         1 <0>         0.3736
     35 H20         0.7620    0.3478   -2.0029 H         1 <0>         0.1911
     36 H21        -1.5295    1.6752   -1.9800 H         1 <0>         0.1907
@<TRIPOS>BOND
     1    1    2 1
     2    1   18 1
     3    1   19 1
     4    1   20 1
     5    2    3 1
     6    2   21 1
     7    2   22 1
     8    3    4 1
     9    3   23 1
    10    3   24 1
    11    4    5 1
    12    4   25 1
    13    4   26 1
    14    5    6 1
    15    5   27 1
    16    5   28 1
    17    6    7 1
    18    6   29 1
    19    6   30 1
    20    7    8 1
    21    7    9 1
    22    7   13 1
    23    9   10 1
    24    9   11 1
    25    9   12 1
    26   11   31 1
    27   11   32 1
    28   11   33 1
    29   12   34 1
    30   13   17 1
    31   13   14 1
    32   14   15 2
    33   14   35 1
    34   15   16 1
    35   15   36 1
    36   16   17 2
@<TRIPOS>MOLECULE
ZINC03814310
   36    36     0     0     0
SMALL
USER_CHARGES

@<TRIPOS>ATOM
      1 C1          0.3863   -1.2951   -4.9172 C.3       1 <0>        -0.1546
      2 C2         -0.3831   -0.4224   -3.9235 C.3       1 <0>        -0.1263
      3 C3          0.2826   -0.5069   -2.5486 C.3       1 <0>        -0.1206
      4 C4         -0.4868    0.3658   -1.5549 C.3       1 <0>        -0.1193
      5 C5          0.1789    0.2814   -0.1800 C.3       1 <0>        -0.1170
      6 C6         -0.5905    1.1540    0.8137 C.3       1 <0>        -0.1262
      7 C7          0.0752    1.0696    2.1887 C.3       1 <0>         0.1022
      8 H1          1.1281    1.3373    2.0996 H         1 <0>         0.1144
      9 C8         -0.0443   -0.3578    2.7264 C.3       1 <0>         0.0934
     10 H2          0.4554   -1.0459    2.0446 H         1 <0>         0.1241
     11 C9          0.6125   -0.4397    4.1058 C.3       1 <0>        -0.1927
     12 O1         -1.4245   -0.7122    2.8341 O.3       1 <0>        -0.5527
     13 N1         -0.5879    1.9957    3.1100 N.pl3     1 <0>        -0.4697
     14 C10        -1.9173    2.0907    3.3536 C.2       1 <0>         0.1412
     15 N2         -2.0834    3.0358    4.2383 N.2       1 <0>        -0.2915
     16 N3         -0.9428    3.5398    4.5527 N.2       1 <0>        -0.2955
     17 C11         0.0032    2.9351    3.8871 C.2       1 <0>         0.1525
     18 H3         -0.0880   -1.2350   -5.8967 H         1 <0>         0.0541
     19 H4          1.4152   -0.9426   -4.9894 H         1 <0>         0.0534
     20 H5          0.3799   -2.3294   -4.5733 H         1 <0>         0.0538
     21 H6         -1.4120   -0.7749   -3.8513 H         1 <0>         0.0612
     22 H7         -0.3767    0.6119   -4.2675 H         1 <0>         0.0605
     23 H8          1.3115   -0.1544   -2.6208 H         1 <0>         0.0612
     24 H9          0.2762   -1.5412   -2.2047 H         1 <0>         0.0623
     25 H10        -1.5157    0.0133   -1.4827 H         1 <0>         0.0646
     26 H11        -0.4804    1.4001   -1.8988 H         1 <0>         0.0621
     27 H12         0.1725   -0.7529    0.1640 H         1 <0>         0.0703
     28 H13         1.2078    0.6339   -0.2522 H         1 <0>         0.0652
     29 H14        -0.5841    2.1883    0.4698 H         1 <0>         0.0726
     30 H15        -1.6194    0.8016    0.8859 H         1 <0>         0.0829
     31 H16         0.1128    0.2484    4.7876 H         1 <0>         0.0591
     32 H17         0.5273   -1.4566    4.4889 H         1 <0>         0.0744
     33 H18         1.6652   -0.1694    4.0237 H         1 <0>         0.0720
     34 H19        -1.9067   -0.2149    3.5089 H         1 <0>         0.3737
     35 H20        -2.6952    1.4933    2.9014 H         1 <0>         0.2182
     36 H21         1.0610    3.1449    3.9449 H         1 <0>         0.2167
@<TRIPOS>BOND
     1    1    2 1
     2    1   18 1
     3    1   19 1
     4    1   20 1
     5    2    3 1
     6    2   21 1
     7    2   22 1
     8    3    4 1
     9    3   23 1
    10    3   24 1
    11    4    5 1
    12    4   25 1
    13    4   26 1
    14    5    6 1
    15    5   27 1
    16    5   28 1
    17    6    7 1
    18    6   29 1
    19    6   30 1
    20    7    8 1
    21    7    9 1
    22    7   13 1
    23    9   10 1
    24    9   11 1
    25    9   12 1
    26   11   31 1
    27   11   32 1
    28   11   33 1
    29   12   34 1
    30   13   17 1
    31   13   14 1
    32   14   15 2
    33   14   35 1
    34   15   16 1
    35   16   17 2
    36   17   36 1
@<TRIPOS>MOLECULE
ZINC03814311
   19    20     0     0     0
SMALL
USER_CHARGES

@<TRIPOS>ATOM
      1 C1          0.0021   -0.0041    0.0020 C.2       1 <0>         0.2063
      2 N1          1.2924   -0.4221   -0.0107 N.pl3     1 <0>        -0.5768
      3 H1          1.6087   -1.3707   -0.0208 H         1 <0>         0.4291
      4 C2          2.0908    0.7112   -0.0070 C.2       1 <0>         0.2205
      5 C3          1.2465    1.7700   -0.0003 C.2       1 <0>        -0.0727
      6 N2         -0.0156    1.2971    0.0092 N.2       1 <0>        -0.4869
      7 C4          1.5815    3.2353   -0.0104 C.3       1 <0>         0.1771
      8 H2          1.6767    3.5710   -1.0430 H         1 <0>         0.0643
      9 C5          2.8776    3.5201    0.7235 C.3       1 <0>         0.1223
     10 N3          4.0118    2.9295    0.0413 N.pl3     1 <0>        -0.7515
     11 C6          4.2897    1.6097    0.0299 C.2       1 <0>         0.4260
     12 N4          3.4423    0.6578   -0.0072 N.2       1 <0>        -0.5728
     13 O1          0.5215    3.9583    0.6185 O.3       1 <0>        -0.5542
     14 H3         -0.8670   -0.6452    0.0056 H         1 <0>         0.2145
     15 H4          2.8144    3.1097    1.7313 H         1 <0>         0.0741
     16 H5          3.0213    4.5987    0.7862 H         1 <0>         0.1037
     17 H6          4.6104    3.5226   -0.4390 H         1 <0>         0.4053
     18 H7          5.3331    1.3318    0.0541 H         1 <0>         0.1800
     19 H8         -0.3430    3.8277    0.2053 H         1 <0>         0.3918
@<TRIPOS>BOND
     1    1    6 2
     2    1    2 1
     3    1   14 1
     4    2    3 1
     5    2    4 1
     6    4   12 1
     7    4    5 2
     8    5    6 1
     9    5    7 1
    10    7    8 1
    11    7    9 1
    12    7   13 1
    13    9   10 1
    14    9   15 1
    15    9   16 1
    16   10   11 1
    17   10   17 1
    18   11   12 2
    19   11   18 1
    20   13   19 1
@<TRIPOS>MOLECULE
ZINC03814311
   19    20     0     0     0
SMALL
USER_CHARGES

@<TRIPOS>ATOM
      1 C1          0.0021   -0.0041    0.0020 C.2       1 <0>         0.2063
      2 N1          1.2924   -0.4221   -0.0107 N.pl3     1 <0>        -0.5768
      3 H1          1.6087   -1.3707   -0.0208 H         1 <0>         0.4291
      4 C2          2.0908    0.7112   -0.0070 C.2       1 <0>         0.2205
      5 C3          1.2465    1.7700   -0.0003 C.2       1 <0>        -0.0727
      6 N2         -0.0156    1.2971    0.0092 N.2       1 <0>        -0.4869
      7 C4          1.5815    3.2353   -0.0104 C.3       1 <0>         0.1771
      8 H2          1.6767    3.5710   -1.0430 H         1 <0>         0.0643
      9 C5          2.8776    3.5201    0.7235 C.3       1 <0>         0.1223
     10 N3          4.0118    2.9295    0.0413 N.pl3     1 <0>        -0.7515
     11 C6          4.2897    1.6097    0.0299 C.2       1 <0>         0.4260
     12 N4          3.4423    0.6578   -0.0072 N.2       1 <0>        -0.5728
     13 O1          0.5215    3.9583    0.6185 O.3       1 <0>        -0.5542
     14 H3         -0.8670   -0.6452    0.0056 H         1 <0>         0.2145
     15 H4          2.8144    3.1097    1.7313 H         1 <0>         0.0741
     16 H5          3.0213    4.5987    0.7862 H         1 <0>         0.1037
     17 H6          4.6104    3.5226   -0.4390 H         1 <0>         0.4053
     18 H7          5.3331    1.3318    0.0541 H         1 <0>         0.1800
     19 H8         -0.3430    3.8277    0.2053 H         1 <0>         0.3918
@<TRIPOS>BOND
     1    1    6 2
     2    1    2 1
     3    1   14 1
     4    2    3 1
     5    2    4 1
     6    4   12 1
     7    4    5 2
     8    5    6 1
     9    5    7 1
    10    7    8 1
    11    7    9 1
    12    7   13 1
    13    9   10 1
    14    9   15 1
    15    9   16 1
    16   10   11 1
    17   10   17 1
    18   11   12 2
    19   11   18 1
    20   13   19 1
@<TRIPOS>MOLECULE
ZINC03814311
   20    21     0     0     0
SMALL
USER_CHARGES

@<TRIPOS>ATOM
      1 C1          0.0021   -0.0041    0.0020 C.cat     1 <0>         0.3251
      2 N1          1.2924   -0.4221   -0.0107 N.pl3     1 <0>        -0.5255
      3 H1          1.6087   -1.3707   -0.0208 H         1 <0>         0.4735
      4 C2          2.0908    0.7112   -0.0070 C.2       1 <0>         0.3255
      5 C3          1.2465    1.7700   -0.0003 C.2       1 <0>        -0.0878
      6 C4          1.5815    3.2353   -0.0104 C.3       1 <0>         0.1600
      7 H2          1.6767    3.5710   -1.0430 H         1 <0>         0.0977
      8 C5          2.8776    3.5201    0.7235 C.3       1 <0>         0.1112
      9 N2          4.0118    2.9295    0.0413 N.pl3     1 <0>        -0.7360
     10 C6          4.2897    1.6097    0.0299 C.2       1 <0>         0.4850
     11 N3          3.4423    0.6578   -0.0072 N.2       1 <0>        -0.5893
     12 O1          0.5215    3.9583    0.6185 O.3       1 <0>        -0.5377
     13 H3         -0.8670   -0.6452    0.0056 H         1 <0>         0.2685
     14 H4          2.8144    3.1097    1.7313 H         1 <0>         0.0910
     15 H5          3.0213    4.5987    0.7862 H         1 <0>         0.1277
     16 H6          4.6104    3.5226   -0.4390 H         1 <0>         0.4227
     17 H7          5.3331    1.3318    0.0541 H         1 <0>         0.2055
     18 H8         -0.3430    3.8277    0.2053 H         1 <0>         0.3842
     19 N4         -0.0171    1.2981    0.0092 N.pl3     1 <0>        -0.4752
     20 H9         -0.8649    1.8773    0.0204 H         1 <0>         0.4738
@<TRIPOS>BOND
     1    1    2 1
     2    1   13 1
     3    1   19 2
     4    2    3 1
     5    2    4 1
     6    4   11 1
     7    4    5 2
     8    5    6 1
     9    5   19 1
    10    6    7 1
    11    6    8 1
    12    6   12 1
    13    8    9 1
    14    8   14 1
    15    8   15 1
    16    9   10 1
    17    9   16 1
    18   10   11 2
    19   10   17 1
    20   12   18 1
    21   19   20 1
@<TRIPOS>MOLECULE
ZINC03814312
   36    37     0     0     0
SMALL
USER_CHARGES

@<TRIPOS>ATOM
      1 C1         -1.6545   -0.7445    3.1494 C.3       1 <0>        -0.0782
      2 C2         -0.4014    0.0798    3.2952 C.2       1 <0>        -0.0025
      3 C3          0.0000    1.0800    2.4877 C.2       1 <0>         0.0092
      4 N1          1.1652    1.5501    2.9572 N.2       1 <0>        -0.4645
      5 C4          1.4969    0.8847    4.0297 C.2       1 <0>         0.1960
      6 N2          0.5478   -0.0445    4.2735 N.pl3     1 <0>        -0.4558
      7 C5          0.5363   -1.0061    5.3788 C.3       1 <0>         0.3047
      8 H1         -0.4834   -1.1708    5.7269 H         1 <0>         0.1165
      9 C6          1.1759   -2.3410    4.9368 C.3       1 <0>         0.0794
     10 H2          1.8593   -2.1796    4.1032 H         1 <0>         0.0892
     11 C7          1.9509   -2.8164    6.1883 C.3       1 <0>         0.0470
     12 H3          3.0171   -2.8894    5.9738 H         1 <0>         0.0872
     13 C8          1.6840   -1.7139    7.2369 C.3       1 <0>         0.0493
     14 H4          0.8407   -1.9890    7.8704 H         1 <0>         0.0987
     15 O1          1.3679   -0.5366    6.4623 O.3       1 <0>        -0.3426
     16 C9          2.9335   -1.4729    8.0862 C.3       1 <0>         0.0817
     17 O2          2.6526   -0.4814    9.0762 O.3       1 <0>        -0.5627
     18 O3          1.4458   -4.0732    6.6435 O.3       1 <0>        -0.5407
     19 O4          0.1654   -3.2869    4.5815 O.3       1 <0>        -0.5343
     20 C10        -0.7288    1.5792    1.2668 C.3       1 <0>         0.1894
     21 H5         -1.7514    1.2020    1.2746 H         1 <0>         0.0657
     22 C11        -0.0127    1.0858    0.0080 C.3       1 <0>        -0.1780
     23 O5         -0.7482    3.0081    1.2747 O.3       1 <0>        -0.5548
     24 H6         -1.4450   -1.6180    2.5321 H         1 <0>         0.0783
     25 H7         -1.9932   -1.0679    4.1337 H         1 <0>         0.0671
     26 H8         -2.4317   -0.1437    2.6770 H         1 <0>         0.0819
     27 H9          2.3855    1.0473    4.6217 H         1 <0>         0.2069
     28 H10         3.2252   -2.4023    8.5754 H         1 <0>         0.0669
     29 H11         3.7464   -1.1281    7.4471 H         1 <0>         0.0605
     30 H12         3.4020   -0.2776    9.6525 H         1 <0>         0.3869
     31 H13         1.8561   -4.3896    7.4600 H         1 <0>         0.3880
     32 H14         0.5114   -4.1436    4.2961 H         1 <0>         0.3937
     33 H15         0.0021   -0.0041    0.0020 H         1 <0>         0.0632
     34 H16         1.0099    1.4631    0.0003 H         1 <0>         0.0683
     35 H17        -0.5399    1.4469   -0.8751 H         1 <0>         0.0614
     36 H18        -1.2025    3.3994    0.5160 H         1 <0>         0.3768
@<TRIPOS>BOND
     1    1    2 1
     2    1   24 1
     3    1   25 1
     4    1   26 1
     5    2    6 1
     6    2    3 2
     7    3    4 1
     8    3   20 1
     9    4    5 2
    10    5    6 1
    11    5   27 1
    12    6    7 1
    13    7    8 1
    14    7   15 1
    15    7    9 1
    16    9   10 1
    17    9   11 1
    18    9   19 1
    19   11   12 1
    20   11   13 1
    21   11   18 1
    22   13   14 1
    23   13   15 1
    24   13   16 1
    25   16   17 1
    26   16   28 1
    27   16   29 1
    28   17   30 1
    29   18   31 1
    30   19   32 1
    31   20   21 1
    32   20   22 1
    33   20   23 1
    34   22   33 1
    35   22   34 1
    36   22   35 1
    37   23   36 1
@<TRIPOS>MOLECULE
ZINC03814312
   37    38     0     0     0
SMALL
USER_CHARGES

@<TRIPOS>ATOM
      1 C1         -1.6545   -0.7445    3.1494 C.3       1 <0>        -0.1012
      2 C2         -0.4014    0.0798    3.2952 C.2       1 <0>         0.0835
      3 C3          0.0000    1.0800    2.4877 C.2       1 <0>         0.0329
      4 C4          1.4969    0.8847    4.0297 C.cat     1 <0>         0.3047
      5 N1          0.5478   -0.0445    4.2735 N.pl3     1 <0>        -0.4109
      6 C5          0.5363   -1.0061    5.3788 C.3       1 <0>         0.2934
      7 H1         -0.4834   -1.1708    5.7269 H         1 <0>         0.1480
      8 C6          1.1759   -2.3410    4.9368 C.3       1 <0>         0.0789
      9 H2          1.8593   -2.1796    4.1032 H         1 <0>         0.0924
     10 C7          1.9509   -2.8164    6.1883 C.3       1 <0>         0.0491
     11 H3          3.0171   -2.8894    5.9738 H         1 <0>         0.0952
     12 C8          1.6840   -1.7139    7.2369 C.3       1 <0>         0.0502
     13 H4          0.8407   -1.9890    7.8704 H         1 <0>         0.1098
     14 O1          1.3679   -0.5366    6.4623 O.3       1 <0>        -0.3447
     15 C9          2.9335   -1.4729    8.0862 C.3       1 <0>         0.0797
     16 O2          2.6526   -0.4814    9.0762 O.3       1 <0>        -0.5644
     17 O3          1.4458   -4.0732    6.6435 O.3       1 <0>        -0.5372
     18 O4          0.1654   -3.2869    4.5815 O.3       1 <0>        -0.5329
     19 C10        -0.7288    1.5792    1.2668 C.3       1 <0>         0.1687
     20 H5         -1.7514    1.2020    1.2746 H         1 <0>         0.1021
     21 C11        -0.0127    1.0858    0.0080 C.3       1 <0>        -0.1916
     22 O5         -0.7482    3.0081    1.2747 O.3       1 <0>        -0.5669
     23 H6         -1.4450   -1.6180    2.5321 H         1 <0>         0.1079
     24 H7         -1.9932   -1.0679    4.1337 H         1 <0>         0.0946
     25 H8         -2.4317   -0.1437    2.6770 H         1 <0>         0.1065
     26 H9          2.3855    1.0473    4.6217 H         1 <0>         0.2621
     27 H10         3.2252   -2.4023    8.5754 H         1 <0>         0.0753
     28 H11         3.7464   -1.1281    7.4471 H         1 <0>         0.0616
     29 H12         3.4020   -0.2776    9.6525 H         1 <0>         0.3940
     30 H13         1.8561   -4.3896    7.4600 H         1 <0>         0.3973
     31 H14         0.5114   -4.1436    4.2961 H         1 <0>         0.4066
     32 H15         0.0021   -0.0041    0.0020 H         1 <0>         0.0783
     33 H16         1.0099    1.4631    0.0003 H         1 <0>         0.0673
     34 H17        -0.5399    1.4469   -0.8751 H         1 <0>         0.0859
     35 H18        -1.2025    3.3994    0.5160 H         1 <0>         0.4067
     36 N2          1.1645    1.5491    2.9577 N.pl3     1 <0>        -0.4652
     37 H19         1.7094    2.3121    2.5393 H         1 <0>         0.4824
@<TRIPOS>BOND
     1    1    2 1
     2    1   23 1
     3    1   24 1
     4    1   25 1
     5    2    5 1
     6    2    3 2
     7    3   19 1
     8    3   36 1
     9    4    5 1
    10    4   26 1
    11    4   36 2
    12    5    6 1
    13    6    7 1
    14    6   14 1
    15    6    8 1
    16    8    9 1
    17    8   10 1
    18    8   18 1
    19   10   11 1
    20   10   12 1
    21   10   17 1
    22   12   13 1
    23   12   14 1
    24   12   15 1
    25   15   16 1
    26   15   27 1
    27   15   28 1
    28   16   29 1
    29   17   30 1
    30   18   31 1
    31   19   20 1
    32   19   21 1
    33   19   22 1
    34   21   32 1
    35   21   33 1
    36   21   34 1
    37   22   35 1
    38   36   37 1
@<TRIPOS>MOLECULE
ZINC03814313
   34    36     0     0     0
SMALL
USER_CHARGES

@<TRIPOS>ATOM
      1 C1          0.6574   -2.6619   -0.0193 C.ar      1 <0>        -0.2417
      2 C2         -0.6527   -2.2188   -0.0044 C.ar      1 <0>         0.2285
      3 C3          0.0021   -0.0041    0.0020 C.ar      1 <0>         0.2825
      4 C4          1.3566   -0.3692   -0.0129 C.ar      1 <0>        -0.0223
      5 C5          1.6929   -1.7340   -0.0238 C.ar      1 <0>         0.3980
      6 N1          3.0219   -2.1440   -0.0383 N.pl3     1 <0>        -0.7863
      7 N2          2.0817    0.7773   -0.0136 N.2       1 <0>        -0.4444
      8 C6          1.2772    1.7994   -0.0005 C.2       1 <0>         0.2982
      9 N3         -0.0166    1.3736    0.0096 N.pl3     1 <0>        -0.4705
     10 C7         -1.2092    2.2244    0.0201 C.3       1 <0>         0.2965
     11 H1         -2.0050    1.7752   -0.5740 H         1 <0>         0.1253
     12 C8         -1.6878    2.4754    1.4728 C.3       1 <0>         0.0748
     13 H2         -0.8395    2.5871    2.1480 H         1 <0>         0.1011
     14 C9         -2.4623    3.8086    1.3333 C.3       1 <0>         0.0477
     15 H3         -2.2586    4.4589    2.1840 H         1 <0>         0.0970
     16 C10        -1.9125    4.4308    0.0351 C.3       1 <0>         0.0508
     17 H4         -2.7130    4.5254   -0.6985 H         1 <0>         0.1066
     18 O1         -0.8949    3.5465   -0.4678 O.3       1 <0>        -0.3375
     19 C11        -1.3128    5.8069    0.3310 C.3       1 <0>         0.0751
     20 O2         -0.9115    6.4249   -0.8934 O.3       1 <0>        -0.5640
     21 O3         -3.8652    3.5625    1.2180 O.3       1 <0>        -0.5387
     22 O4         -2.5530    1.4268    1.9130 O.3       1 <0>        -0.5449
     23 H5          0.8743   -3.7199   -0.0277 H         1 <0>         0.1909
     24 H6         -1.4549   -2.9418   -0.0013 H         1 <0>         0.2049
     25 H7          3.7330   -1.4843   -0.0409 H         1 <0>         0.4301
     26 H8          3.2376   -3.0897   -0.0457 H         1 <0>         0.4268
     27 H9          1.5892    2.8333    0.0021 H         1 <0>         0.2413
     28 H10        -2.0587    6.4297    0.8249 H         1 <0>         0.0726
     29 H11        -0.4459    5.6932    0.9818 H         1 <0>         0.0609
     30 H12        -0.5216    7.3027   -0.7816 H         1 <0>         0.3927
     31 H13        -4.3990    4.3637    1.1280 H         1 <0>         0.3959
     32 H14        -2.8789    1.5389    2.8165 H         1 <0>         0.4054
     33 N4         -1.0201   -0.9110    0.0070 N.ar      1 <0>        -0.5211
     34 H15        -2.0052   -0.6217    0.0187 H         1 <0>         0.4677
@<TRIPOS>BOND
     1    1    5 ar
     2    1    2 ar
     3    1   23 1
     4    2   24 1
     5    2   33 ar
     6    3    9 1
     7    3    4 ar
     8    3   33 ar
     9    4    5 ar
    10    4    7 1
    11    5    6 1
    12    6   25 1
    13    6   26 1
    14    7    8 2
    15    8    9 1
    16    8   27 1
    17    9   10 1
    18   10   11 1
    19   10   18 1
    20   10   12 1
    21   12   13 1
    22   12   14 1
    23   12   22 1
    24   14   15 1
    25   14   16 1
    26   14   21 1
    27   16   17 1
    28   16   18 1
    29   16   19 1
    30   19   20 1
    31   19   28 1
    32   19   29 1
    33   20   30 1
    34   21   31 1
    35   22   32 1
    36   33   34 1
@<TRIPOS>MOLECULE
ZINC03814313
   35    37     0     0     0
SMALL
USER_CHARGES

@<TRIPOS>ATOM
      1 C1          0.6574   -2.6619   -0.0193 C.ar      1 <0>        -0.2052
      2 C2         -0.6527   -2.2188   -0.0044 C.ar      1 <0>         0.2533
      3 C3          0.0021   -0.0041    0.0020 C.ar      1 <0>         0.3553
      4 C4          1.3566   -0.3692   -0.0129 C.ar      1 <0>        -0.0326
      5 C5          1.6929   -1.7340   -0.0238 C.ar      1 <0>         0.3928
      6 N1          3.0219   -2.1440   -0.0383 N.pl3     1 <0>        -0.7726
      7 C6          1.2772    1.7994   -0.0005 C.cat     1 <0>         0.4309
      8 N2         -0.0166    1.3736    0.0096 N.pl3     1 <0>        -0.4370
      9 C7         -1.2092    2.2244    0.0201 C.3       1 <0>         0.2839
     10 H1         -2.0050    1.7752   -0.5740 H         1 <0>         0.1543
     11 C8         -1.6878    2.4754    1.4728 C.3       1 <0>         0.0741
     12 H2         -0.8395    2.5871    2.1480 H         1 <0>         0.1056
     13 C9         -2.4623    3.8086    1.3333 C.3       1 <0>         0.0498
     14 H3         -2.2586    4.4589    2.1840 H         1 <0>         0.1065
     15 C10        -1.9125    4.4308    0.0351 C.3       1 <0>         0.0508
     16 H4         -2.7130    4.5254   -0.6985 H         1 <0>         0.1173
     17 O1         -0.8949    3.5465   -0.4678 O.3       1 <0>        -0.3391
     18 C11        -1.3128    5.8069    0.3310 C.3       1 <0>         0.0733
     19 O2         -0.9115    6.4249   -0.8934 O.3       1 <0>        -0.5655
     20 O3         -3.8652    3.5625    1.2180 O.3       1 <0>        -0.5370
     21 O4         -2.5530    1.4268    1.9130 O.3       1 <0>        -0.5464
     22 H5          0.8743   -3.7199   -0.0277 H         1 <0>         0.2143
     23 H6         -1.4549   -2.9418   -0.0013 H         1 <0>         0.2295
     24 H7          3.7330   -1.4843   -0.0409 H         1 <0>         0.4268
     25 H8          3.2376   -3.0897   -0.0457 H         1 <0>         0.4463
     26 H9          1.5892    2.8333    0.0021 H         1 <0>         0.2919
     27 H10        -2.0587    6.4297    0.8249 H         1 <0>         0.0809
     28 H11        -0.4459    5.6932    0.9818 H         1 <0>         0.0612
     29 H12        -0.5216    7.3027   -0.7816 H         1 <0>         0.3992
     30 H13        -4.3990    4.3637    1.1280 H         1 <0>         0.4049
     31 H14        -2.8789    1.5389    2.8165 H         1 <0>         0.4177
     32 N3         -1.0201   -0.9110    0.0070 N.ar      1 <0>        -0.5062
     33 H15        -2.0052   -0.6217    0.0187 H         1 <0>         0.4897
     34 N4          2.0818    0.7773   -0.0136 N.pl3     1 <0>        -0.4667
     35 H16         3.1071    0.8301   -0.0230 H         1 <0>         0.4980
@<TRIPOS>BOND
     1    1    5 ar
     2    1    2 ar
     3    1   22 1
     4    2   23 1
     5    2   32 ar
     6    3    8 1
     7    3    4 ar
     8    3   32 ar
     9    4    5 ar
    10    4   34 1
    11    5    6 1
    12    6   24 1
    13    6   25 1
    14    7    8 1
    15    7   26 1
    16    7   34 2
    17    8    9 1
    18    9   10 1
    19    9   17 1
    20    9   11 1
    21   11   12 1
    22   11   13 1
    23   11   21 1
    24   13   14 1
    25   13   15 1
    26   13   20 1
    27   15   16 1
    28   15   17 1
    29   15   18 1
    30   18   19 1
    31   18   27 1
    32   18   28 1
    33   19   29 1
    34   20   30 1
    35   21   31 1
    36   32   33 1
    37   34   35 1
@<TRIPOS>MOLECULE
ZINC03814314
   30    32     0     0     0
SMALL
USER_CHARGES

@<TRIPOS>ATOM
      1 C1          1.1763    3.0495    0.0068 C.ar      1 <0>         0.2227
      2 C2         -0.0281    3.7546    0.0216 C.ar      1 <0>        -0.0536
      3 C3         -1.2308    3.0192    0.0291 C.ar      1 <0>         0.2863
      4 N1         -1.1748    1.6945    0.0169 N.ar      1 <0>        -0.5009
      5 C4         -0.0126    1.0758    0.0080 C.ar      1 <0>         0.3128
      6 N2          1.1361    1.7280    0.0005 N.ar      1 <0>        -0.5197
      7 N3         -2.2406    3.9482    0.0433 N.pl3     1 <0>        -0.4752
      8 C5         -1.6618    5.1817    0.0441 C.2       1 <0>         0.2899
      9 N4         -0.3654    5.0672    0.0313 N.2       1 <0>        -0.4682
     10 C6         -3.6780    3.6656    0.0553 C.3       1 <0>         0.3146
     11 H1         -3.9039    2.8044   -0.5736 H         1 <0>         0.1240
     12 C7         -4.1756    3.4289    1.5040 C.3       1 <0>         0.0776
     13 H2         -3.6676    4.0932    2.2031 H         1 <0>         0.0905
     14 C8         -5.6776    3.7872    1.3936 C.3       1 <0>         0.0455
     15 H3         -6.0022    4.3455    2.2717 H         1 <0>         0.0891
     16 C9         -5.7640    4.6682    0.1321 C.3       1 <0>         0.0527
     17 H4         -6.3919    4.1839   -0.6158 H         1 <0>         0.1003
     18 O1         -4.4274    4.8228   -0.3734 O.3       1 <0>        -0.3481
     19 C10        -6.3457    6.0367    0.4922 C.3       1 <0>         0.0768
     20 O2         -6.5305    6.8041   -0.6991 O.3       1 <0>        -0.5630
     21 O3         -6.4634    2.6046    1.2325 O.3       1 <0>        -0.5355
     22 O4         -4.0040    2.0624    1.8853 O.3       1 <0>        -0.5212
     23 H5          2.1213    3.5724    0.0009 H         1 <0>         0.1797
     24 H6          0.0021   -0.0041    0.0020 H         1 <0>         0.2067
     25 H7         -2.2002    6.1179    0.0538 H         1 <0>         0.2277
     26 H8         -7.3055    5.9037    0.9913 H         1 <0>         0.0671
     27 H9         -5.6592    6.5594    1.1582 H         1 <0>         0.0594
     28 H10        -6.8972    7.6857   -0.5461 H         1 <0>         0.3868
     29 H11        -7.4132    2.7706    1.1581 H         1 <0>         0.3869
     30 H12        -4.3009    1.8647    2.7841 H         1 <0>         0.3883
@<TRIPOS>BOND
     1    1    6 ar
     2    1    2 ar
     3    1   23 1
     4    2    9 1
     5    2    3 ar
     6    3    4 ar
     7    3    7 1
     8    4    5 ar
     9    5    6 ar
    10    5   24 1
    11    7    8 1
    12    7   10 1
    13    8    9 2
    14    8   25 1
    15   10   11 1
    16   10   18 1
    17   10   12 1
    18   12   13 1
    19   12   14 1
    20   12   22 1
    21   14   15 1
    22   14   16 1
    23   14   21 1
    24   16   17 1
    25   16   18 1
    26   16   19 1
    27   19   20 1
    28   19   26 1
    29   19   27 1
    30   20   28 1
    31   21   29 1
    32   22   30 1
