@<TRIPOS>MOLECULE
ZINC00001727
   45    48     0     0     0
SMALL
USER_CHARGES

@<TRIPOS>ATOM
      1 C1          0.3981   -2.3427    2.8730 C.3       1 <0>        -0.1792
      2 C2          0.4469   -1.9179    1.4040 C.3       1 <0>         0.1407
      3 C3         -0.9454   -2.0947    0.7469 C.3       1 <0>        -0.1507
      4 C4         -1.3492   -0.6997    0.1952 C.3       1 <0>        -0.1139
      5 C5          0.0021   -0.0041    0.0020 C.3       1 <0>        -0.0775
      6 H1          0.5169   -0.3746   -0.8844 H         1 <0>         0.0866
      7 C6          0.7558   -0.4304    1.2944 C.3       1 <0>        -0.0349
      8 C7          2.1839   -0.0358    1.1322 C.2       1 <0>        -0.0675
      9 C8          2.4493    1.1286    0.5151 C.2       1 <0>        -0.1643
     10 C9          1.4256    1.9671   -0.0010 C.2       1 <0>        -0.0146
     11 C10         1.7673    3.1701   -0.5374 C.2       1 <0>        -0.1313
     12 C11         3.2073    3.6134   -0.4405 C.3       1 <0>        -0.0802
     13 C12         3.6046    4.4098   -1.6799 C.3       1 <0>        -0.1589
     14 C13         2.5479    5.4388   -1.9858 C.2       1 <0>         0.3853
     15 O1          2.8706    6.5416   -2.3820 O.2       1 <0>        -0.4726
     16 C14         1.1956    5.1257   -1.8147 C.2       1 <0>        -0.2615
     17 C15         0.8172    3.9845   -1.1706 C.2       1 <0>         0.0347
     18 C16        -0.6419    3.5954   -1.1811 C.3       1 <0>        -0.0992
     19 C17        -0.7421    2.0654   -1.2140 C.3       1 <0>        -0.1100
     20 C18        -0.0185    1.5120    0.0104 C.3       1 <0>        -0.0554
     21 H2         -0.5056    1.8655    0.9192 H         1 <0>         0.0996
     22 C19         0.1658    0.3064    2.4985 C.3       1 <0>        -0.1444
     23 O2          1.4293   -2.6811    0.7007 O.3       1 <0>        -0.5541
     24 H3         -0.3792   -1.7788    3.3886 H         1 <0>         0.0726
     25 H4          0.1764   -3.4081    2.9359 H         1 <0>         0.0586
     26 H5          1.3622   -2.1440    3.3409 H         1 <0>         0.0645
     27 H6         -0.8858   -2.8164   -0.0678 H         1 <0>         0.0750
     28 H7         -1.6700   -2.4284    1.4896 H         1 <0>         0.0727
     29 H8         -1.9605   -0.1607    0.9190 H         1 <0>         0.0728
     30 H9         -1.8722   -0.7976   -0.7561 H         1 <0>         0.0716
     31 H10         2.9807   -0.6656    1.4995 H         1 <0>         0.1252
     32 H11         3.4785    1.4378    0.4078 H         1 <0>         0.1248
     33 H12         3.3335    4.2371    0.4445 H         1 <0>         0.0801
     34 H13         3.8495    2.7365   -0.3579 H         1 <0>         0.0900
     35 H14         4.4762    4.8712   -1.5144 H         1 <0>         0.0844
     36 H15         3.7075    3.7329   -2.5280 H         1 <0>         0.0979
     37 H16         0.4408    5.7965   -2.1977 H         1 <0>         0.1340
     38 H17        -1.1279    3.9745   -0.2822 H         1 <0>         0.0884
     39 H18        -1.1252    4.0125   -2.0646 H         1 <0>         0.0864
     40 H19        -0.2722    1.6858   -2.1213 H         1 <0>         0.0713
     41 H20        -1.7896    1.7651   -1.1887 H         1 <0>         0.0791
     42 H21        -0.8906    0.0559    2.5957 H         1 <0>         0.0660
     43 H22         0.6950    0.0065    3.4030 H         1 <0>         0.0643
     44 H23         0.2725    1.3815    2.3546 H         1 <0>         0.0667
     45 H24         1.2842   -3.6365    0.7356 H         1 <0>         0.3769
@<TRIPOS>BOND
     1    1    2 1
     2    1   24 1
     3    1   25 1
     4    1   26 1
     5    2    7 1
     6    2    3 1
     7    2   23 1
     8    3    4 1
     9    3   27 1
    10    3   28 1
    11    4    5 1
    12    4   29 1
    13    4   30 1
    14    5    6 1
    15    5   20 1
    16    5    7 1
    17    7    8 1
    18    7   22 1
    19    8    9 2
    20    8   31 1
    21    9   10 1
    22    9   32 1
    23   10   20 1
    24   10   11 2
    25   11   17 1
    26   11   12 1
    27   12   13 1
    28   12   33 1
    29   12   34 1
    30   13   14 1
    31   13   35 1
    32   13   36 1
    33   14   15 2
    34   14   16 1
    35   16   17 2
    36   16   37 1
    37   17   18 1
    38   18   19 1
    39   18   38 1
    40   18   39 1
    41   19   20 1
    42   19   40 1
    43   19   41 1
    44   20   21 1
    45   22   42 1
    46   22   43 1
    47   22   44 1
    48   23   45 1
@<TRIPOS>MOLECULE
ZINC00007581
   42    44     0     0     0
SMALL
USER_CHARGES

@<TRIPOS>ATOM
      1 C1         -0.7527    1.5927   -1.2315 C.3       1 <0>        -0.1555
      2 C2         -0.0127    1.0858    0.0080 C.3       1 <0>        -0.1204
      3 C3         -0.7288    1.5792    1.2668 C.3       1 <0>        -0.1009
      4 H1         -0.8190    2.6650    1.2338 H         1 <0>         0.0811
      5 C4         -2.1204    0.9519    1.3435 C.3       1 <0>        -0.0697
      6 C5         -2.7601    1.2489    2.6753 C.ar      1 <0>        -0.1618
      7 C6         -4.1202    1.1533    2.7830 C.ar      1 <0>        -0.0154
      8 C7         -4.7512    1.4179    4.0041 C.ar      1 <0>        -0.1701
      9 C8         -6.1609    1.3218    4.1316 C.2       1 <0>        -0.0581
     10 C9         -6.7362    1.5853    5.3310 C.2       1 <0>        -0.1724
     11 C10        -5.9419    1.9499    6.4375 C.2       1 <0>         0.5415
     12 O1         -6.4754    2.1834    7.5085 O.2       1 <0>        -0.5252
     13 N1         -4.6035    2.0452    6.3288 N.am      1 <0>        -0.6275
     14 H2         -4.0575    2.3063    7.1249 H         1 <0>         0.4260
     15 C11        -3.9805    1.7847    5.1254 C.ar      1 <0>         0.2450
     16 C12        -2.6025    1.8793    5.0028 C.ar      1 <0>        -0.2501
     17 C13        -1.9953    1.6134    3.7826 C.ar      1 <0>         0.2872
     18 N2         -0.6075    1.7229    3.6862 N.pl3     1 <0>        -0.7295
     19 C14         0.0706    1.1647    2.5089 C.3       1 <0>         0.1521
     20 H3          0.1020    0.0776    2.5817 H         1 <0>         0.0754
     21 C15         1.4933    1.7202    2.4186 C.3       1 <0>        -0.1354
     22 C16         2.3196    1.2002    3.5967 C.3       1 <0>        -0.1555
     23 C17        -7.0087    0.9312    2.9486 C.3       1 <0>         0.5056
     24 F1         -8.3552    0.9074    3.3274 F         1 <0>        -0.1686
     25 F2         -6.8302    1.8619    1.9194 F         1 <0>        -0.1678
     26 F3         -6.6278   -0.3382    2.5007 F         1 <0>        -0.1678
     27 H4         -0.2425    1.2411   -2.1283 H         1 <0>         0.0564
     28 H5         -1.7753    1.2154   -1.2238 H         1 <0>         0.0575
     29 H6         -0.7675    2.6825   -1.2255 H         1 <0>         0.0547
     30 H7          0.0021   -0.0041    0.0020 H         1 <0>         0.0662
     31 H8          1.0099    1.4631    0.0003 H         1 <0>         0.0703
     32 H9         -2.7430    1.3577    0.5462 H         1 <0>         0.0828
     33 H10        -2.0361   -0.1279    1.2205 H         1 <0>         0.0776
     34 H11        -4.7095    0.8725    1.9227 H         1 <0>         0.1342
     35 H12        -7.8085    1.5152    5.4393 H         1 <0>         0.1674
     36 H13        -2.0020    2.1592    5.8557 H         1 <0>         0.1364
     37 H14        -0.0983    2.1606    4.3862 H         1 <0>         0.4056
     38 H15         1.9507    1.3974    1.4834 H         1 <0>         0.0865
     39 H16         1.4607    2.8093    2.4503 H         1 <0>         0.0712
     40 H17         3.3331    1.5961    3.5323 H         1 <0>         0.0603
     41 H18         1.8621    1.5230    4.5319 H         1 <0>         0.0524
     42 H19         2.3521    0.1112    3.5650 H         1 <0>         0.0582
@<TRIPOS>BOND
     1    1    2 1
     2    1   27 1
     3    1   28 1
     4    1   29 1
     5    2    3 1
     6    2   30 1
     7    2   31 1
     8    3    4 1
     9    3   19 1
    10    3    5 1
    11    5    6 1
    12    5   32 1
    13    5   33 1
    14    6   17 ar
    15    6    7 ar
    16    7    8 ar
    17    7   34 1
    18    8   15 ar
    19    8    9 1
    20    9   10 2
    21    9   23 1
    22   10   11 1
    23   10   35 1
    24   11   12 2
    25   11   13 am
    26   13   14 1
    27   13   15 1
    28   15   16 ar
    29   16   17 ar
    30   16   36 1
    31   17   18 1
    32   18   19 1
    33   18   37 1
    34   19   20 1
    35   19   21 1
    36   21   22 1
    37   21   38 1
    38   21   39 1
    39   22   40 1
    40   22   41 1
    41   22   42 1
    42   23   24 1
    43   23   25 1
    44   23   26 1
@<TRIPOS>MOLECULE
ZINC00023574
   39    41     0     0     0
SMALL
USER_CHARGES

@<TRIPOS>ATOM
      1 C1         -2.1707    7.5055   -1.9397 C.3       1 <0>        -0.1550
      2 C2         -2.1062    7.7995   -0.4396 C.3       1 <0>        -0.1154
      3 C3         -0.6436    7.8986   -0.0017 C.3       1 <0>        -0.1013
      4 H1         -0.1281    8.6379   -0.6147 H         1 <0>         0.0888
      5 C4          0.0319    6.5368   -0.1605 C.3       1 <0>        -0.0735
      6 C5         -0.5256    5.5525    0.8351 C.ar      1 <0>        -0.1566
      7 C6         -0.3741    4.2159    0.5879 C.ar      1 <0>        -0.0174
      8 C7         -0.8682    3.2706    1.4943 C.ar      1 <0>        -0.1698
      9 C8         -0.7223    1.8808    1.2496 C.2       1 <0>        -0.0580
     10 C9         -1.2202    0.9950    2.1476 C.2       1 <0>        -0.1727
     11 C10        -1.8795    1.4508    3.3076 C.2       1 <0>         0.5415
     12 O1         -2.3214    0.6409    4.1044 O.2       1 <0>        -0.5254
     13 N1         -2.0287    2.7669    3.5484 N.am      1 <0>        -0.6275
     14 H2         -2.4992    3.0704    4.3770 H         1 <0>         0.4259
     15 C11        -1.5363    3.6996    2.6587 C.ar      1 <0>         0.2443
     16 C12        -1.6850    5.0575    2.8968 C.ar      1 <0>        -0.2510
     17 C13        -1.1817    5.9797    1.9888 C.ar      1 <0>         0.2891
     18 N2         -1.3484    7.3399    2.2523 N.pl3     1 <0>        -0.7282
     19 C14        -0.5756    8.3161    1.4731 C.3       1 <0>         0.1480
     20 H3         -1.0060    9.3100    1.5956 H         1 <0>         0.0931
     21 C15         0.8798    8.3201    1.9451 C.3       1 <0>        -0.1708
     22 C16        -0.0169    1.3948    0.0097 C.3       1 <0>         0.5055
     23 F1          0.0021   -0.0041    0.0020 F         1 <0>        -0.1687
     24 F2          1.2956    1.8790   -0.0002 F         1 <0>        -0.1678
     25 F3         -0.6935    1.8582   -1.1237 F         1 <0>        -0.1678
     26 H4         -3.2127    7.4349   -2.2517 H         1 <0>         0.0541
     27 H5         -1.6807    8.3095   -2.4889 H         1 <0>         0.0542
     28 H6         -1.6646    6.5627   -2.1473 H         1 <0>         0.0575
     29 H7         -2.5963    6.9955    0.1096 H         1 <0>         0.0652
     30 H8         -2.6123    8.7423   -0.2320 H         1 <0>         0.0605
     31 H9         -0.1404    6.1647   -1.1704 H         1 <0>         0.0832
     32 H10         1.1042    6.6454    0.0021 H         1 <0>         0.0792
     33 H11         0.1326    3.8886   -0.3079 H         1 <0>         0.1336
     34 H12        -1.1108   -0.0653    1.9734 H         1 <0>         0.1673
     35 H13        -2.1923    5.3976    3.7875 H         1 <0>         0.1363
     36 H14        -1.9652    7.6362    2.9398 H         1 <0>         0.4064
     37 H15         1.3092    7.3278    1.8072 H         1 <0>         0.0645
     38 H16         1.4483    9.0460    1.3636 H         1 <0>         0.0691
     39 H17         0.9187    8.5895    3.0005 H         1 <0>         0.0599
@<TRIPOS>BOND
     1    1    2 1
     2    1   26 1
     3    1   27 1
     4    1   28 1
     5    2    3 1
     6    2   29 1
     7    2   30 1
     8    3    4 1
     9    3   19 1
    10    3    5 1
    11    5    6 1
    12    5   31 1
    13    5   32 1
    14    6   17 ar
    15    6    7 ar
    16    7    8 ar
    17    7   33 1
    18    8   15 ar
    19    8    9 1
    20    9   10 2
    21    9   22 1
    22   10   11 1
    23   10   34 1
    24   11   12 2
    25   11   13 am
    26   13   14 1
    27   13   15 1
    28   15   16 ar
    29   16   17 ar
    30   16   35 1
    31   17   18 1
    32   18   19 1
    33   18   36 1
    34   19   20 1
    35   19   21 1
    36   21   37 1
    37   21   38 1
    38   21   39 1
    39   22   23 1
    40   22   24 1
    41   22   25 1
@<TRIPOS>MOLECULE
ZINC02007483
   41    42     0     0     0
SMALL
USER_CHARGES

@<TRIPOS>ATOM
      1 C1         -5.6045    5.1868    1.2364 C.3       1 <0>        -0.1470
      2 C2         -4.6949    5.3504    0.0171 C.3       1 <0>         0.1041
      3 C3         -3.6721    4.2333   -0.0441 C.2       1 <0>         0.5208
      4 O1         -3.8905    3.0457   -0.1536 O.2       1 <0>        -0.4267
      5 N1         -2.4697    4.8346    0.0502 N.am      1 <0>        -0.4989
      6 C4         -2.5891    6.1631    0.1539 C.2       1 <0>         0.5283
      7 S1         -1.2574    7.2309    0.2854 S.2       1 <0>        -0.5282
      8 N2         -3.8725    6.5661    0.1435 N.pl3     1 <0>        -0.5446
      9 C5         -4.3578    7.9450    0.2398 C.3       1 <0>         0.1332
     10 C6         -4.4787    8.5423   -1.1636 C.3       1 <0>        -0.1372
     11 C7         -4.9855    9.9824   -1.0631 C.3       1 <0>        -0.1167
     12 C8         -5.1064   10.5797   -2.4665 C.3       1 <0>         0.0763
     13 O2         -5.5798   11.9248   -2.3725 O.3       1 <0>        -0.5752
     14 C9         -1.2480    4.1544    0.0353 C.ar      1 <0>         0.1492
     15 C10        -0.3822    4.3071   -1.0425 C.ar      1 <0>        -0.0598
     16 C11         0.8217    3.6393   -1.0612 C.ar      1 <0>        -0.0539
     17 C12         1.1738    2.8067    0.0050 C.ar      1 <0>         0.0289
     18 C13         0.3012    2.6556    1.0867 C.ar      1 <0>        -0.0599
     19 C14        -0.9044    3.3235    1.0953 C.ar      1 <0>        -0.0587
     20 I1          0.8214    1.4090    2.6881 I         1 <0>        -0.0004
     21 C15         2.4249    2.1101   -0.0109 C.1       1 <0>         0.2335
     22 N3          3.4173    1.5574   -0.0236 N.1       1 <0>        -0.3692
     23 C16        -5.5230    5.3920   -1.2687 C.3       1 <0>        -0.1471
     24 H1         -6.2630    6.0517    1.3172 H         1 <0>         0.0881
     25 H2         -6.2038    4.2832    1.1240 H         1 <0>         0.0937
     26 H3         -4.9950    5.1088    2.1367 H         1 <0>         0.0718
     27 H4         -5.3345    7.9535    0.7236 H         1 <0>         0.0995
     28 H5         -3.6561    8.5370    0.8273 H         1 <0>         0.1151
     29 H6         -3.5020    8.5338   -1.6475 H         1 <0>         0.0810
     30 H7         -5.1805    7.9504   -1.7512 H         1 <0>         0.0711
     31 H8         -5.9622    9.9909   -0.5792 H         1 <0>         0.0731
     32 H9         -4.2838   10.5744   -0.4755 H         1 <0>         0.0787
     33 H10        -4.1298   10.5712   -2.9503 H         1 <0>         0.0477
     34 H11        -5.8082    9.9878   -3.0540 H         1 <0>         0.0444
     35 H12        -5.6807   12.3668   -3.2267 H         1 <0>         0.3829
     36 H13        -0.6549    4.9502   -1.8662 H         1 <0>         0.1488
     37 H14         1.4934    3.7589   -1.8985 H         1 <0>         0.1566
     38 H15        -1.5813    3.2040    1.9284 H         1 <0>         0.1439
     39 H16        -4.8562    5.4582   -2.1284 H         1 <0>         0.0712
     40 H17        -6.1235    4.4853   -1.3435 H         1 <0>         0.0929
     41 H18        -6.1794    6.2620   -1.2501 H         1 <0>         0.0889
@<TRIPOS>BOND
     1    1    2 1
     2    1   24 1
     3    1   25 1
     4    1   26 1
     5    2    8 1
     6    2    3 1
     7    2   23 1
     8    3    4 2
     9    3    5 am
    10    5    6 1
    11    5   14 1
    12    6    7 2
    13    6    8 1
    14    8    9 1
    15    9   10 1
    16    9   27 1
    17    9   28 1
    18   10   11 1
    19   10   29 1
    20   10   30 1
    21   11   12 1
    22   11   31 1
    23   11   32 1
    24   12   13 1
    25   12   33 1
    26   12   34 1
    27   13   35 1
    28   14   19 ar
    29   14   15 ar
    30   15   16 ar
    31   15   36 1
    32   16   17 ar
    33   16   37 1
    34   17   18 ar
    35   17   21 1
    36   18   19 ar
    37   18   20 1
    38   19   38 1
    39   21   22 3
    40   23   39 1
    41   23   40 1
    42   23   41 1
@<TRIPOS>MOLECULE
ZINC03814359
   42    45     0     0     0
SMALL
USER_CHARGES

@<TRIPOS>ATOM
      1 C1         -3.5057    2.5637    2.5310 C.3       1 <0>        -0.1761
      2 C2         -2.8077    1.2033    2.4783 C.3       1 <0>         0.1353
      3 C3         -1.6034    1.1791    3.4533 C.3       1 <0>        -0.1511
      4 C4         -0.3319    1.0232    2.5744 C.3       1 <0>        -0.1128
      5 C5         -0.7730    1.5774    1.2245 C.3       1 <0>        -0.0813
      6 H1         -0.8139    2.6665    1.2387 H         1 <0>         0.0862
      7 C6         -2.2096    0.9697    1.0971 C.3       1 <0>        -0.0666
      8 H2         -2.1240   -0.1010    0.9122 H         1 <0>         0.0984
      9 C7         -2.8801    1.6248   -0.0616 C.2       1 <0>        -0.0905
     10 C8         -2.1366    1.8894   -1.1500 C.2       1 <0>        -0.1574
     11 C9         -0.7498    1.5904   -1.2144 C.2       1 <0>        -0.0207
     12 C10        -0.0868    1.7880   -2.3868 C.2       1 <0>        -0.1269
     13 C11        -0.8956    2.1509   -3.6087 C.3       1 <0>        -0.0806
     14 C12        -0.0888    3.0533   -4.5372 C.3       1 <0>        -0.1599
     15 C13         1.2956    2.4886   -4.7207 C.2       1 <0>         0.3852
     16 O1          1.8326    2.5371   -5.8100 O.2       1 <0>        -0.4708
     17 C14         1.9624    1.9081   -3.6373 C.2       1 <0>        -0.2587
     18 C15         1.3043    1.6313   -2.4749 C.2       1 <0>         0.0327
     19 C16         2.0988    1.1373   -1.2904 C.3       1 <0>        -0.0996
     20 C17         1.4185    1.6172   -0.0028 C.3       1 <0>        -0.1101
     21 C18        -0.0127    1.0858    0.0080 C.3       1 <0>        -0.0486
     22 H3          0.0021   -0.0041    0.0020 H         1 <0>         0.0937
     23 O2         -3.7286    0.1598    2.8024 O.3       1 <0>        -0.5582
     24 H4         -4.3031    2.5920    1.7884 H         1 <0>         0.0662
     25 H5         -3.9283    2.7170    3.5240 H         1 <0>         0.0599
     26 H6         -2.7830    3.3515    2.3182 H         1 <0>         0.0683
     27 H7         -1.5579    2.1121    4.0150 H         1 <0>         0.0728
     28 H8         -1.6924    0.3350    4.1371 H         1 <0>         0.0762
     29 H9          0.4908    1.6135    2.9780 H         1 <0>         0.0728
     30 H10        -0.0492   -0.0259    2.4876 H         1 <0>         0.0731
     31 H11        -3.9291    1.8791   -0.0279 H         1 <0>         0.1263
     32 H12        -2.6111    2.3453   -2.0064 H         1 <0>         0.1262
     33 H13        -1.8013    2.6721   -3.2985 H         1 <0>         0.0900
     34 H14        -1.1701    1.2404   -4.1415 H         1 <0>         0.0817
     35 H15        -0.0223    3.9679   -4.1382 H         1 <0>         0.0891
     36 H16        -0.5868    3.1138   -5.5050 H         1 <0>         0.0943
     37 H17         3.0136    1.6752   -3.7222 H         1 <0>         0.1347
     38 H18         3.1121    1.5360   -1.3385 H         1 <0>         0.0870
     39 H19         2.1341    0.0480   -1.3007 H         1 <0>         0.0896
     40 H20         1.4062    2.7068    0.0224 H         1 <0>         0.0721
     41 H21         1.9591    1.2349    0.8630 H         1 <0>         0.0799
     42 H22        -4.1414    0.2555    3.6716 H         1 <0>         0.3780
@<TRIPOS>BOND
     1    1    2 1
     2    1   24 1
     3    1   25 1
     4    1   26 1
     5    2    7 1
     6    2    3 1
     7    2   23 1
     8    3    4 1
     9    3   27 1
    10    3   28 1
    11    4    5 1
    12    4   29 1
    13    4   30 1
    14    5    6 1
    15    5   21 1
    16    5    7 1
    17    7    8 1
    18    7    9 1
    19    9   10 2
    20    9   31 1
    21   10   11 1
    22   10   32 1
    23   11   21 1
    24   11   12 2
    25   12   18 1
    26   12   13 1
    27   13   14 1
    28   13   33 1
    29   13   34 1
    30   14   15 1
    31   14   35 1
    32   14   36 1
    33   15   16 2
    34   15   17 1
    35   17   18 2
    36   17   37 1
    37   18   19 1
    38   19   20 1
    39   19   38 1
    40   19   39 1
    41   20   21 1
    42   20   40 1
    43   20   41 1
    44   21   22 1
    45   23   42 1
@<TRIPOS>MOLECULE
ZINC03814360
   51    54     0     0     0
SMALL
USER_CHARGES

@<TRIPOS>ATOM
      1 C1          2.9092   -0.4858    0.0249 C.3       1 <0>        -0.1538
      2 C2          2.1578    0.0177    1.2590 C.3       1 <0>        -0.0512
      3 C3          2.8744   -0.4614    2.5248 C.3       1 <0>        -0.1087
      4 C4          2.9823   -1.9887    2.5089 C.3       1 <0>        -0.1639
      5 C5          1.5932   -2.5623    2.3341 C.2       1 <0>         0.3601
      6 O1          1.1692   -3.4042    3.0889 O.2       1 <0>        -0.4573
      7 C6          0.7511   -2.0507    1.1877 C.3       1 <0>        -0.1599
      8 C7          0.7252   -0.5180    1.2386 C.3       1 <0>        -0.0680
      9 H1          0.1995   -0.1875    2.1343 H         1 <0>         0.0757
     10 C8         -0.0038    0.0001   -0.0039 C.3       1 <0>        -0.1164
     11 C9         -0.0223    1.5290    0.0058 C.3       1 <0>        -0.1148
     12 C10         1.4163    2.0497   -0.0034 C.3       1 <0>        -0.0745
     13 H2          1.9348    1.6938   -0.8937 H         1 <0>         0.0881
     14 C11         2.1350    1.5479    1.2575 C.3       1 <0>        -0.0674
     15 H3          1.5866    1.8916    2.1346 H         1 <0>         0.0677
     16 C12         3.5592    2.0887    1.3253 C.3       1 <0>        -0.1209
     17 C13         3.5806    3.6242    1.2392 C.3       1 <0>        -0.1032
     18 C14         2.8928    4.0130   -0.0547 C.3       1 <0>        -0.0578
     19 C15         1.4099    3.5659    0.0549 C.3       1 <0>        -0.0828
     20 H4          0.9698    3.9294    0.9835 H         1 <0>         0.0764
     21 C16         0.7819    4.2781   -1.1480 C.3       1 <0>        -0.1131
     22 C17         1.4490    5.6802   -1.1087 C.3       1 <0>        -0.1572
     23 C18         2.7877    5.5058   -0.3491 C.3       1 <0>         0.1097
     24 H5          2.7710    6.0739    0.5810 H         1 <0>         0.0558
     25 O2          3.8815    5.9276   -1.1663 O.3       1 <0>        -0.5601
     26 C19         3.5624    3.2997   -1.2310 C.3       1 <0>        -0.1342
     27 H6          2.4038   -0.1368   -0.8756 H         1 <0>         0.0642
     28 H7          3.9299   -0.1037    0.0400 H         1 <0>         0.0613
     29 H8          2.9290   -1.5756    0.0312 H         1 <0>         0.0572
     30 H9          3.8736   -0.0275    2.5623 H         1 <0>         0.0812
     31 H10         2.3094   -0.1473    3.4025 H         1 <0>         0.0672
     32 H11         3.5701   -2.2734    1.7517 H         1 <0>         0.0916
     33 H12         3.4082   -2.3367    3.4500 H         1 <0>         0.0866
     34 H13        -0.1786   -2.4095    1.2710 H         1 <0>         0.0790
     35 H14         1.1839   -2.3775    0.2422 H         1 <0>         0.1007
     36 H15        -1.0274   -0.3746   -0.0059 H         1 <0>         0.0637
     37 H16         0.5120   -0.3503   -0.8978 H         1 <0>         0.0682
     38 H17        -0.5468    1.8924   -0.8779 H         1 <0>         0.0648
     39 H18        -0.5314    1.8814    0.9029 H         1 <0>         0.0615
     40 H19         4.0144    1.7779    2.2656 H         1 <0>         0.0640
     41 H20         4.1364    1.6779    0.4969 H         1 <0>         0.0723
     42 H21         3.0443    4.0506    2.0869 H         1 <0>         0.0611
     43 H22         4.6106    3.9810    1.2347 H         1 <0>         0.0652
     44 H23        -0.2981    4.3613   -1.0263 H         1 <0>         0.0652
     45 H24         1.0253    3.7610   -2.0761 H         1 <0>         0.0700
     46 H25         0.8077    6.3850   -0.5796 H         1 <0>         0.0661
     47 H26         1.6374    6.0334   -2.1226 H         1 <0>         0.0719
     48 H27         3.8679    6.8691   -1.3864 H         1 <0>         0.3747
     49 H28         3.5677    2.2251   -1.0489 H         1 <0>         0.0614
     50 H29         3.0093    3.5105   -2.1463 H         1 <0>         0.0529
     51 H30         4.5874    3.6555   -1.3359 H         1 <0>         0.0593
@<TRIPOS>BOND
     1    1    2 1
     2    1   27 1
     3    1   28 1
     4    1   29 1
     5    2    8 1
     6    2   14 1
     7    2    3 1
     8    3    4 1
     9    3   30 1
    10    3   31 1
    11    4    5 1
    12    4   32 1
    13    4   33 1
    14    5    6 2
    15    5    7 1
    16    7    8 1
    17    7   34 1
    18    7   35 1
    19    8    9 1
    20    8   10 1
    21   10   11 1
    22   10   36 1
    23   10   37 1
    24   11   12 1
    25   11   38 1
    26   11   39 1
    27   12   13 1
    28   12   19 1
    29   12   14 1
    30   14   15 1
    31   14   16 1
    32   16   17 1
    33   16   40 1
    34   16   41 1
    35   17   18 1
    36   17   42 1
    37   17   43 1
    38   18   23 1
    39   18   19 1
    40   18   26 1
    41   19   20 1
    42   19   21 1
    43   21   22 1
    44   21   44 1
    45   21   45 1
    46   22   23 1
    47   22   46 1
    48   22   47 1
    49   23   24 1
    50   23   25 1
    51   25   48 1
    52   26   49 1
    53   26   50 1
    54   26   51 1
@<TRIPOS>MOLECULE
ZINC03814361
   51    54     0     0     0
SMALL
USER_CHARGES

@<TRIPOS>ATOM
      1 C1         -0.0127    1.0858    0.0080 C.3       1 <0>        -0.1528
      2 C2         -0.7288    1.5792    1.2668 C.3       1 <0>        -0.0530
      3 C3         -2.1478    1.0117    1.2790 C.3       1 <0>        -0.1038
      4 C4         -2.0533   -0.5111    1.0898 C.3       1 <0>        -0.1677
      5 C5         -1.1243   -1.0808    2.1374 C.2       1 <0>         0.3595
      6 O1         -1.4610   -2.0299    2.8039 O.2       1 <0>        -0.4603
      7 C6          0.2360   -0.4436    2.3387 C.3       1 <0>        -0.1593
      8 C7          0.0241    1.0635    2.4943 C.3       1 <0>        -0.0699
      9 H1         -0.5713    1.2495    3.3882 H         1 <0>         0.0755
     10 C8          1.3502    1.8072    2.6059 C.3       1 <0>        -0.1137
     11 C9          1.0642    3.2504    3.0153 C.3       1 <0>        -0.1154
     12 C10        -0.3458    3.6751    2.6005 C.3       1 <0>        -0.0713
     13 H2         -1.0566    3.3062    3.3399 H         1 <0>         0.0766
     14 C11        -0.7462    3.1031    1.2553 C.3       1 <0>        -0.0595
     15 H3         -0.0414    3.4681    0.5082 H         1 <0>         0.0621
     16 C12        -2.1639    3.5602    0.8823 C.3       1 <0>        -0.1298
     17 C13        -2.1790    5.0833    0.7771 C.3       1 <0>        -0.0957
     18 C14        -1.7883    5.7140    2.0946 C.3       1 <0>        -0.0504
     19 C15        -0.3882    5.2080    2.5940 C.3       1 <0>        -0.0755
     20 H4          0.4565    5.6364    2.0546 H         1 <0>         0.0881
     21 C16        -0.5013    5.6348    4.1176 C.3       1 <0>        -0.1228
     22 C17        -1.9692    5.3698    4.5182 C.3       1 <0>        -0.1544
     23 C18        -2.7929    5.4150    3.2149 C.3       1 <0>         0.1118
     24 H5         -3.5409    6.2059    3.2702 H         1 <0>         0.0568
     25 O2         -3.4256    4.1543    2.9860 O.3       1 <0>        -0.5447
     26 C19        -1.6849    7.2294    1.9109 C.3       1 <0>        -0.1472
     27 H6          0.0021   -0.0041    0.0020 H         1 <0>         0.0571
     28 H7          1.0099    1.4631    0.0003 H         1 <0>         0.0589
     29 H8         -0.5399    1.4469   -0.8751 H         1 <0>         0.0572
     30 H9         -2.6257    1.2353    2.2327 H         1 <0>         0.0724
     31 H10        -2.7262    1.4487    0.4650 H         1 <0>         0.0850
     32 H11        -1.6971   -0.7121    0.1773 H         1 <0>         0.0911
     33 H12        -3.0425   -0.9556    1.1990 H         1 <0>         0.0857
     34 H13         0.8151   -0.6369    1.5467 H         1 <0>         0.0921
     35 H14         0.7033   -0.8459    3.2376 H         1 <0>         0.0859
     36 H15         1.9754    1.3297    3.3603 H         1 <0>         0.0631
     37 H16         1.8596    1.7941    1.6424 H         1 <0>         0.0676
     38 H17         1.1605    3.3404    4.0973 H         1 <0>         0.0595
     39 H18         1.7897    3.9079    2.5364 H         1 <0>         0.0596
     40 H19        -2.4478    3.1251   -0.0759 H         1 <0>         0.0529
     41 H20        -2.8653    3.2404    1.6529 H         1 <0>         0.1183
     42 H21        -1.4751    5.3969    0.0062 H         1 <0>         0.0525
     43 H22        -3.1809    5.4144    0.5037 H         1 <0>         0.0567
     44 H23        -0.2619    6.6933    4.2198 H         1 <0>         0.0626
     45 H24         0.1754    5.0305    4.7218 H         1 <0>         0.0658
     46 H25        -2.3144    6.1421    5.2056 H         1 <0>         0.0654
     47 H26        -2.0592    4.3882    4.9835 H         1 <0>         0.0724
     48 H27        -4.0723    3.9102    3.6623 H         1 <0>         0.3637
     49 H28        -2.6450    7.6211    1.5749 H         1 <0>         0.0540
     50 H29        -1.4155    7.6929    2.8600 H         1 <0>         0.0575
     51 H30        -0.9204    7.4539    1.1671 H         1 <0>         0.0594
@<TRIPOS>BOND
     1    1    2 1
     2    1   27 1
     3    1   28 1
     4    1   29 1
     5    2    8 1
     6    2   14 1
     7    2    3 1
     8    3    4 1
     9    3   30 1
    10    3   31 1
    11    4    5 1
    12    4   32 1
    13    4   33 1
    14    5    6 2
    15    5    7 1
    16    7    8 1
    17    7   34 1
    18    7   35 1
    19    8    9 1
    20    8   10 1
    21   10   11 1
    22   10   36 1
    23   10   37 1
    24   11   12 1
    25   11   38 1
    26   11   39 1
    27   12   13 1
    28   12   19 1
    29   12   14 1
    30   14   15 1
    31   14   16 1
    32   16   17 1
    33   16   40 1
    34   16   41 1
    35   17   18 1
    36   17   42 1
    37   17   43 1
    38   18   23 1
    39   18   19 1
    40   18   26 1
    41   19   20 1
    42   19   21 1
    43   21   22 1
    44   21   44 1
    45   21   45 1
    46   22   23 1
    47   22   46 1
    48   22   47 1
    49   23   24 1
    50   23   25 1
    51   25   48 1
    52   26   49 1
    53   26   50 1
    54   26   51 1
@<TRIPOS>MOLECULE
ZINC03814362
   31    31     0     0     0
SMALL
USER_CHARGES

@<TRIPOS>ATOM
      1 C1          0.2822    4.6469   -0.6945 C.3       1 <0>        -0.1517
      2 C2          0.1688    3.8479    0.6054 C.3       1 <0>         0.1292
      3 C3          0.1942    4.8068    1.7973 C.3       1 <0>        -0.1049
      4 Br1         1.8827    5.8138    1.7923 Br        1 <0>        -0.1198
      5 C4         -1.1255    3.0760    0.6092 C.2       1 <0>         0.4953
      6 O1         -2.1072    3.5408    1.1488 O.2       1 <0>        -0.4963
      7 N1         -1.1906    1.8666    0.0178 N.am      1 <0>        -0.6611
      8 C5         -2.3609    1.1051    0.1096 C.ar      1 <0>         0.1788
      9 C6         -2.2856   -0.2794    0.1916 C.ar      1 <0>        -0.0957
     10 C7         -3.4422   -1.0278    0.2868 C.ar      1 <0>        -0.0462
     11 C8         -4.6750   -0.4009    0.2900 C.ar      1 <0>        -0.1448
     12 C9         -4.7535    0.9768    0.2032 C.ar      1 <0>         0.0210
     13 C10        -3.6001    1.7314    0.1130 C.ar      1 <0>        -0.0642
     14 N2         -6.0749    1.6437    0.2074 N.pl3     1 <0>         0.0167
     15 O2         -6.1448    2.8573    0.1314 O.2       1 <0>        -0.1311
     16 O3         -7.0923    0.9788    0.2869 O.3       1 <0>        -0.1357
     17 C11        -5.9354   -1.2211    0.3878 C.3       1 <0>         0.5150
     18 F1         -5.6039   -2.5781    0.4643 F         1 <0>        -0.1718
     19 F2         -6.6460   -0.8493    1.5340 F         1 <0>        -0.1592
     20 F3         -6.7264   -0.9974   -0.7443 F         1 <0>        -0.1593
     21 O4          1.2664    2.9380    0.7025 O.3       1 <0>        -0.5319
     22 H1         -0.5550    5.3410   -0.7686 H         1 <0>         0.0855
     23 H2          1.2184    5.2052   -0.6973 H         1 <0>         0.0959
     24 H3          0.2641    3.9638   -1.5437 H         1 <0>         0.0766
     25 H4         -0.6430    5.5008    1.7232 H         1 <0>         0.1244
     26 H5          0.1134    4.2376    2.7234 H         1 <0>         0.1076
     27 H6         -0.4262    1.5242   -0.4714 H         1 <0>         0.4293
     28 H7         -1.3234   -0.7698    0.1851 H         1 <0>         0.1623
     29 H8         -3.3842   -2.1041    0.3548 H         1 <0>         0.1702
     30 H9         -3.6621    2.8075    0.0449 H         1 <0>         0.1802
     31 H10         1.2591    2.3971    1.5040 H         1 <0>         0.3856
@<TRIPOS>BOND
     1    1    2 1
     2    1   22 1
     3    1   23 1
     4    1   24 1
     5    2    3 1
     6    2    5 1
     7    2   21 1
     8    3    4 1
     9    3   25 1
    10    3   26 1
    11    5    6 2
    12    5    7 am
    13    7    8 1
    14    7   27 1
    15    8   13 ar
    16    8    9 ar
    17    9   10 ar
    18    9   28 1
    19   10   11 ar
    20   10   29 1
    21   11   12 ar
    22   11   17 1
    23   12   13 ar
    24   12   14 1
    25   13   30 1
    26   14   15 2
    27   14   16 1
    28   17   18 1
    29   17   19 1
    30   17   20 1
    31   21   31 1
@<TRIPOS>MOLECULE
ZINC03814363
   58    62     0     0     0
SMALL
USER_CHARGES

@<TRIPOS>ATOM
      1 C1         -0.1841   -1.5442   -2.4992 C.3       1 <0>        -0.2073
      2 C2         -0.2656   -2.5028   -1.3393 C.2       1 <0>         0.3667
      3 O1          0.3433   -3.5451   -1.3735 O.2       1 <0>        -0.4285
      4 C3         -1.1069   -2.1607   -0.1367 C.3       1 <0>         0.0842
      5 C4         -0.6227   -2.9544    1.0937 C.3       1 <0>        -0.1328
      6 C5         -1.8125   -3.8336    1.5421 C.3       1 <0>        -0.1252
      7 C6         -2.6639   -3.9966    0.2487 C.3       1 <0>        -0.0696
      8 H1         -3.6946   -4.2900    0.4479 H         1 <0>         0.1013
      9 C7         -2.5618   -2.5883   -0.3703 C.3       1 <0>        -0.0337
     10 C8         -2.9512   -2.5477   -1.8299 C.3       1 <0>        -0.1200
     11 C9         -2.1818   -3.5862   -2.6488 C.3       1 <0>        -0.1617
     12 C10        -2.4766   -4.9676   -2.0586 C.3       1 <0>        -0.0608
     13 H2         -3.5534   -5.1360   -2.0436 H         1 <0>         0.0817
     14 C11        -1.9331   -5.0082   -0.6336 C.3       1 <0>        -0.0908
     15 H3         -0.8845   -4.7122   -0.6656 H         1 <0>         0.1357
     16 C12        -2.0059   -6.3856   -0.0558 C.2       1 <0>        -0.0796
     17 C13        -2.0870   -7.4857   -0.8013 C.2       1 <0>        -0.0733
     18 C14        -2.1258   -7.3872   -2.2708 C.2       1 <0>         0.0336
     19 C15        -2.4512   -8.4822   -2.9831 C.2       1 <0>        -0.2333
     20 C16        -2.6111   -8.4816   -4.3745 C.2       1 <0>         0.4114
     21 O2         -2.8084   -9.5247   -4.9648 O.2       1 <0>        -0.4531
     22 C17        -2.5383   -7.1847   -5.1374 C.3       1 <0>        -0.1964
     23 H4         -3.2493   -7.1712   -5.8405 H         1 <0>         0.1215
     24 C18        -1.1599   -6.5641   -5.3638 C.3       1 <0>        -0.1400
     25 C19        -2.1264   -5.9436   -4.3505 C.3       1 <0>        -0.1215
     26 H5         -2.5848   -5.0004   -4.6479 H         1 <0>         0.1242
     27 C20        -1.7921   -6.0577   -2.8809 C.3       1 <0>         0.0049
     28 C21        -0.2813   -5.8540   -2.7503 C.3       1 <0>        -0.1462
     29 Cl1        -2.1478   -9.0437   -0.0382 Cl        1 <0>        -0.0618
     30 C22        -3.4849   -1.6561    0.4169 C.3       1 <0>        -0.1387
     31 O3         -1.0411   -0.7349    0.1300 O.3       1 <0>        -0.3314
     32 C23         0.1672   -0.2228    0.4122 C.2       1 <0>         0.4508
     33 O4          1.1310   -0.9487    0.4763 O.2       1 <0>        -0.5006
     34 C24         0.3216    1.2574    0.6491 C.3       1 <0>        -0.1496
     35 H6          0.5521   -0.8870   -2.3374 H         1 <0>         0.0832
     36 H7          0.0188   -2.0988   -3.4154 H         1 <0>         0.0951
     37 H8         -1.1305   -1.0125   -2.5983 H         1 <0>         0.0961
     38 H9          0.2262   -3.5822    0.8231 H         1 <0>         0.0942
     39 H10        -0.3415   -2.2692    1.8935 H         1 <0>         0.0786
     40 H11        -2.3890   -3.3312    2.3189 H         1 <0>         0.0778
     41 H12        -1.4599   -4.8036    1.8928 H         1 <0>         0.0779
     42 H13        -4.0195   -2.7452   -1.9187 H         1 <0>         0.0822
     43 H14        -2.7404   -1.5546   -2.2267 H         1 <0>         0.0779
     44 H15        -2.5091   -3.5521   -3.6880 H         1 <0>         0.0831
     45 H16        -1.1127   -3.3812   -2.5926 H         1 <0>         0.0963
     46 H17        -1.9925   -6.4932    1.0187 H         1 <0>         0.1305
     47 H18        -2.5962   -9.4118   -2.4528 H         1 <0>         0.1393
     48 H19        -0.9968   -6.0270   -6.2981 H         1 <0>         0.1118
     49 H20        -0.2957   -7.1005   -4.9721 H         1 <0>         0.1055
     50 H21         0.0064   -5.9313   -1.7018 H         1 <0>         0.0690
     51 H22         0.2396   -6.6182   -3.3273 H         1 <0>         0.0586
     52 H23        -0.0137   -4.8675   -3.1288 H         1 <0>         0.0785
     53 H24        -3.3616   -0.6344    0.0577 H         1 <0>         0.0702
     54 H25        -4.5201   -1.9676    0.2781 H         1 <0>         0.0631
     55 H26        -3.2304   -1.7021    1.4758 H         1 <0>         0.0628
     56 H27         1.3662    1.4842    0.8624 H         1 <0>         0.1037
     57 H28         0.0057    1.8026   -0.2403 H         1 <0>         0.1023
     58 H29        -0.2954    1.5561    1.4965 H         1 <0>         0.1025
@<TRIPOS>BOND
     1    1    2 1
     2    1   35 1
     3    1   36 1
     4    1   37 1
     5    2    3 2
     6    2    4 1
     7    4    9 1
     8    4    5 1
     9    4   31 1
    10    5    6 1
    11    5   38 1
    12    5   39 1
    13    6    7 1
    14    6   40 1
    15    6   41 1
    16    7    8 1
    17    7   14 1
    18    7    9 1
    19    9   10 1
    20    9   30 1
    21   10   11 1
    22   10   42 1
    23   10   43 1
    24   11   12 1
    25   11   44 1
    26   11   45 1
    27   12   13 1
    28   12   27 1
    29   12   14 1
    30   14   15 1
    31   14   16 1
    32   16   17 2
    33   16   46 1
    34   17   18 1
    35   17   29 1
    36   18   27 1
    37   18   19 2
    38   19   20 1
    39   19   47 1
    40   20   21 2
    41   20   22 1
    42   22   23 1
    43   22   25 1
    44   22   24 1
    45   24   25 1
    46   24   48 1
    47   24   49 1
    48   25   26 1
    49   25   27 1
    50   27   28 1
    51   28   50 1
    52   28   51 1
    53   28   52 1
    54   30   53 1
    55   30   54 1
    56   30   55 1
    57   31   32 1
    58   32   33 2
    59   32   34 1
    60   34   56 1
    61   34   57 1
    62   34   58 1
@<TRIPOS>MOLECULE
ZINC03814364
   44    47     0     0     0
SMALL
USER_CHARGES

@<TRIPOS>ATOM
      1 C1         -4.1826    5.0885    2.7463 C.3       1 <0>        -0.1345
      2 C2         -4.7739    5.1581    1.3369 C.3       1 <0>        -0.0552
      3 C3         -4.9838    3.7670    0.7717 C.3       1 <0>        -0.1019
      4 C4         -3.6254    3.0411    0.8012 C.3       1 <0>        -0.1136
      5 C5         -2.5807    3.8226    0.0179 C.3       1 <0>        -0.0424
      6 H1         -2.9221    3.8732   -1.0160 H         1 <0>         0.0758
      7 C6         -1.2439    3.1405    0.0296 C.ar      1 <0>        -0.0767
      8 C7         -1.2136    1.7524    0.0173 C.ar      1 <0>        -0.1030
      9 C8         -0.0126    1.0758    0.0080 C.ar      1 <0>        -0.1470
     10 C9          1.1774    1.7895    0.0004 C.ar      1 <0>         0.1023
     11 C10         1.1473    3.1731    0.0130 C.ar      1 <0>        -0.1477
     12 C11        -0.0629    3.8535    0.0328 C.ar      1 <0>        -0.0581
     13 C12        -0.0175    5.3584    0.0700 C.3       1 <0>        -0.0809
     14 C13        -1.3585    5.9567   -0.2746 C.3       1 <0>        -0.1133
     15 C14        -2.4466    5.2588    0.5410 C.3       1 <0>        -0.0732
     16 H2         -2.1635    5.2422    1.5934 H         1 <0>         0.0844
     17 C15        -3.8021    5.9130    0.3873 C.3       1 <0>        -0.0824
     18 H3         -4.1418    5.8211   -0.6443 H         1 <0>         0.0742
     19 C16        -3.9240    7.3624    0.8445 C.3       1 <0>        -0.1113
     20 C17        -5.3638    7.4974    1.4000 C.3       1 <0>        -0.1572
     21 C18        -5.9967    6.0808    1.3255 C.3       1 <0>         0.1083
     22 H4         -6.5629    5.9595    0.4020 H         1 <0>         0.0608
     23 O1         -6.8284    5.8382    2.4620 O.3       1 <0>        -0.5592
     24 O2          2.3670    1.1328   -0.0187 O.3       1 <0>        -0.5003
     25 H5         -4.0253    6.0986    3.1246 H         1 <0>         0.0545
     26 H6         -4.8715    4.5577    3.4035 H         1 <0>         0.0602
     27 H7         -3.2300    4.5597    2.7150 H         1 <0>         0.0603
     28 H8         -5.7059    3.2250    1.3823 H         1 <0>         0.0696
     29 H9         -5.3451    3.8356   -0.2544 H         1 <0>         0.0633
     30 H10        -3.7379    2.0506    0.3603 H         1 <0>         0.0659
     31 H11        -3.2959    2.9379    1.8351 H         1 <0>         0.0692
     32 H12        -2.1400    1.1973    0.0192 H         1 <0>         0.1278
     33 H13         0.0021   -0.0041    0.0020 H         1 <0>         0.1276
     34 H14         2.0735    3.7285    0.0077 H         1 <0>         0.1261
     35 H15         0.2637    5.6824    1.0720 H         1 <0>         0.0765
     36 H16         0.7299    5.7107   -0.6409 H         1 <0>         0.0765
     37 H17        -1.5436    5.8073   -1.3384 H         1 <0>         0.0638
     38 H18        -1.3561    7.0229   -0.0481 H         1 <0>         0.0718
     39 H19        -3.1958    7.5739    1.6274 H         1 <0>         0.0682
     40 H20        -3.7781    8.0378    0.0015 H         1 <0>         0.0659
     41 H21        -5.3352    7.8404    2.4342 H         1 <0>         0.0740
     42 H22        -5.9362    8.1963    0.7901 H         1 <0>         0.0648
     43 H23        -7.5748    6.4479    2.5405 H         1 <0>         0.3761
     44 H24         2.7013    0.9502   -0.9076 H         1 <0>         0.3901
@<TRIPOS>BOND
     1    1    2 1
     2    1   25 1
     3    1   26 1
     4    1   27 1
     5    2   17 1
     6    2   21 1
     7    2    3 1
     8    3    4 1
     9    3   28 1
    10    3   29 1
    11    4    5 1
    12    4   30 1
    13    4   31 1
    14    5    6 1
    15    5   15 1
    16    5    7 1
    17    7   12 ar
    18    7    8 ar
    19    8    9 ar
    20    8   32 1
    21    9   10 ar
    22    9   33 1
    23   10   11 ar
    24   10   24 1
    25   11   12 ar
    26   11   34 1
    27   12   13 1
    28   13   14 1
    29   13   35 1
    30   13   36 1
    31   14   15 1
    32   14   37 1
    33   14   38 1
    34   15   16 1
    35   15   17 1
    36   17   18 1
    37   17   19 1
    38   19   20 1
    39   19   39 1
    40   19   40 1
    41   20   21 1
    42   20   41 1
    43   20   42 1
    44   21   22 1
    45   21   23 1
    46   23   43 1
    47   24   44 1
@<TRIPOS>MOLECULE
ZINC03814365
   31    31     0     0     0
SMALL
USER_CHARGES

@<TRIPOS>ATOM
      1 C1          0.2822    4.6469   -0.6945 C.3       1 <0>        -0.1537
      2 C2          0.1688    3.8479    0.6054 C.3       1 <0>         0.1318
      3 C3          0.1942    4.8068    1.7973 C.3       1 <0>        -0.1153
      4 I1          2.0511    5.9142    1.7918 I         1 <0>        -0.1037
      5 C4         -1.1255    3.0760    0.6092 C.2       1 <0>         0.4968
      6 O1         -2.1072    3.5408    1.1488 O.2       1 <0>        -0.4956
      7 N1         -1.1906    1.8666    0.0178 N.am      1 <0>        -0.6614
      8 C5         -2.3609    1.1051    0.1096 C.ar      1 <0>         0.1793
      9 C6         -2.2856   -0.2794    0.1916 C.ar      1 <0>        -0.0959
     10 C7         -3.4422   -1.0278    0.2868 C.ar      1 <0>        -0.0463
     11 C8         -4.6750   -0.4009    0.2900 C.ar      1 <0>        -0.1450
     12 C9         -4.7535    0.9768    0.2032 C.ar      1 <0>         0.0210
     13 C10        -3.6001    1.7314    0.1130 C.ar      1 <0>        -0.0643
     14 N2         -6.0749    1.6437    0.2074 N.pl3     1 <0>         0.0167
     15 O2         -6.1448    2.8573    0.1314 O.2       1 <0>        -0.1311
     16 O3         -7.0923    0.9788    0.2869 O.3       1 <0>        -0.1358
     17 C11        -5.9354   -1.2211    0.3878 C.3       1 <0>         0.5150
     18 F1         -5.6039   -2.5781    0.4643 F         1 <0>        -0.1718
     19 F2         -6.6460   -0.8493    1.5340 F         1 <0>        -0.1592
     20 F3         -6.7264   -0.9974   -0.7443 F         1 <0>        -0.1593
     21 O4          1.2664    2.9380    0.7025 O.3       1 <0>        -0.5326
     22 H1         -0.5550    5.3410   -0.7686 H         1 <0>         0.0858
     23 H2          1.2184    5.2052   -0.6973 H         1 <0>         0.0943
     24 H3          0.2641    3.9638   -1.5437 H         1 <0>         0.0778
     25 H4         -0.6430    5.5008    1.7232 H         1 <0>         0.1213
     26 H5          0.1134    4.2376    2.7234 H         1 <0>         0.1044
     27 H6         -0.4262    1.5242   -0.4714 H         1 <0>         0.4291
     28 H7         -1.3234   -0.7698    0.1851 H         1 <0>         0.1622
     29 H8         -3.3842   -2.1041    0.3548 H         1 <0>         0.1701
     30 H9         -3.6621    2.8075    0.0449 H         1 <0>         0.1803
     31 H10         1.2591    2.3971    1.5040 H         1 <0>         0.3853
@<TRIPOS>BOND
     1    1    2 1
     2    1   22 1
     3    1   23 1
     4    1   24 1
     5    2    3 1
     6    2    5 1
     7    2   21 1
     8    3    4 1
     9    3   25 1
    10    3   26 1
    11    5    6 2
    12    5    7 am
    13    7    8 1
    14    7   27 1
    15    8   13 ar
    16    8    9 ar
    17    9   10 ar
    18    9   28 1
    19   10   11 ar
    20   10   29 1
    21   11   12 ar
    22   11   17 1
    23   12   13 ar
    24   12   14 1
    25   13   30 1
    26   14   15 2
    27   14   16 1
    28   17   18 1
    29   17   19 1
    30   17   20 1
    31   21   31 1
@<TRIPOS>MOLECULE
ZINC03814366
   50    53     0     0     0
SMALL
USER_CHARGES

@<TRIPOS>ATOM
      1 C1          5.0873   -2.5601   -1.0862 C.3       1 <0>        -0.1350
      2 C2          5.0084   -2.5122    0.4410 C.3       1 <0>        -0.0259
      3 C3          6.4316   -2.5848    0.9847 C.3       1 <0>        -0.1061
      4 C4          6.9515   -4.0215    1.0104 C.3       1 <0>        -0.1583
      5 C5          5.9988   -4.8330    1.8667 C.2       1 <0>         0.3886
      6 O1          6.3966   -5.5530    2.7586 O.2       1 <0>        -0.4588
      7 C6          4.5705   -4.7006    1.5594 C.2       1 <0>        -0.2461
      8 C7          4.1267   -3.6281    0.9045 C.2       1 <0>        -0.0155
      9 C8          2.6421   -3.5516    0.5978 C.3       1 <0>        -0.0974
     10 C9          2.1216   -2.1764    1.0203 C.3       1 <0>        -0.1141
     11 C10         2.9518   -1.0890    0.3317 C.3       1 <0>        -0.0761
     12 H1          2.9345   -1.2224   -0.7500 H         1 <0>         0.1004
     13 C11         4.3947   -1.1647    0.8414 C.3       1 <0>        -0.0600
     14 H2          4.3884   -1.0990    1.9294 H         1 <0>         0.0783
     15 C12         5.2552   -0.0361    0.2817 C.3       1 <0>         0.1131
     16 H3          6.2400   -0.0754    0.7472 H         1 <0>         0.0564
     17 C13         4.6286    1.3416    0.5495 C.3       1 <0>        -0.1367
     18 C14         3.2461    1.3318   -0.0739 C.3       1 <0>        -0.0527
     19 C15         2.4037    0.2790    0.6951 C.3       1 <0>        -0.0854
     20 H4          2.4685    0.4509    1.7696 H         1 <0>         0.0737
     21 C16         0.9890    0.5849    0.1904 C.3       1 <0>        -0.1117
     22 C17         0.9522    2.1376    0.1801 C.3       1 <0>        -0.1573
     23 C18         2.4236    2.6085    0.0667 C.3       1 <0>         0.1092
     24 H5          2.7173    3.1498    0.9660 H         1 <0>         0.0538
     25 O2          2.5914    3.4350   -1.0869 O.3       1 <0>        -0.5592
     26 C19         3.3456    0.9390   -1.5493 C.3       1 <0>        -0.1333
     27 O3          5.4005   -0.2160   -1.1285 O.3       1 <0>        -0.5434
     28 H6          5.9501   -1.9859   -1.4236 H         1 <0>         0.0907
     29 H7          5.1894   -3.5950   -1.4125 H         1 <0>         0.0393
     30 H8          4.1784   -2.1334   -1.5105 H         1 <0>         0.0664
     31 H9          6.4516   -2.1816    1.9971 H         1 <0>         0.0645
     32 H10         7.0820   -1.9830    0.3499 H         1 <0>         0.0839
     33 H11         7.8738   -4.0354    1.3967 H         1 <0>         0.0817
     34 H12         6.9752   -4.4251   -0.0018 H         1 <0>         0.0995
     35 H13         3.8788   -5.4723    1.8634 H         1 <0>         0.1334
     36 H14         2.1142   -4.3280    1.1515 H         1 <0>         0.0765
     37 H15         2.4802   -3.6909   -0.4711 H         1 <0>         0.0851
     38 H16         2.2086   -2.0707    2.1017 H         1 <0>         0.0644
     39 H17         1.0765   -2.0769    0.7270 H         1 <0>         0.0722
     40 H18         5.2370    2.1217    0.0918 H         1 <0>         0.0705
     41 H19         4.5508    1.5119    1.6233 H         1 <0>         0.0693
     42 H20         0.2406    0.1859    0.8750 H         1 <0>         0.0657
     43 H21         0.8441    0.1890   -0.8148 H         1 <0>         0.0713
     44 H22         0.3787    2.4926   -0.6761 H         1 <0>         0.0724
     45 H23         0.5113    2.5076    1.1058 H         1 <0>         0.0662
     46 H24         2.0605    4.2431   -1.0723 H         1 <0>         0.3746
     47 H25         2.3818    1.0971   -2.0332 H         1 <0>         0.0394
     48 H26         4.1026    1.5521   -2.0382 H         1 <0>         0.0495
     49 H27         3.6233   -0.1122   -1.6275 H         1 <0>         0.0960
     50 H28         5.9636    0.4453   -1.5534 H         1 <0>         0.3673
@<TRIPOS>BOND
     1    1    2 1
     2    1   28 1
     3    1   29 1
     4    1   30 1
     5    2    8 1
     6    2   13 1
     7    2    3 1
     8    3    4 1
     9    3   31 1
    10    3   32 1
    11    4    5 1
    12    4   33 1
    13    4   34 1
    14    5    6 2
    15    5    7 1
    16    7    8 2
    17    7   35 1
    18    8    9 1
    19    9   10 1
    20    9   36 1
    21    9   37 1
    22   10   11 1
    23   10   38 1
    24   10   39 1
    25   11   12 1
    26   11   19 1
    27   11   13 1
    28   13   14 1
    29   13   15 1
    30   15   16 1
    31   15   17 1
    32   15   27 1
    33   17   18 1
    34   17   40 1
    35   17   41 1
    36   18   23 1
    37   18   19 1
    38   18   26 1
    39   19   20 1
    40   19   21 1
    41   21   22 1
    42   21   42 1
    43   21   43 1
    44   22   23 1
    45   22   44 1
    46   22   45 1
    47   23   24 1
    48   23   25 1
    49   25   46 1
    50   26   47 1
    51   26   48 1
    52   26   49 1
    53   27   50 1
@<TRIPOS>MOLECULE
ZINC03814367
   70    74     0     0     0
SMALL
USER_CHARGES

@<TRIPOS>ATOM
      1 C1         -0.1430    3.3444    5.7542 C.3       1 <0>        -0.1569
      2 C2          0.9298    3.4171    4.6659 C.3       1 <0>        -0.1271
      3 C3          1.2864    2.0014    4.2055 C.3       1 <0>        -0.0791
      4 H1          1.7165    1.4497    5.0509 H         1 <0>         0.0700
      5 C4          0.0421    1.2672    3.6836 C.3       1 <0>        -0.1189
      6 C5          0.3376    0.8149    2.2360 C.3       1 <0>        -0.0657
      7 H2          0.1488   -0.2936    2.1590 H         1 <0>         0.0750
      8 C6         -0.6249    1.5181    1.2900 C.3       1 <0>        -0.0699
      9 H3         -1.6175    1.0472    1.3802 H         1 <0>         0.0728
     10 C7         -0.7730    3.0055    1.5863 C.3       1 <0>        -0.1696
     11 C8         -1.8807    3.5966    0.7005 C.3       1 <0>        -0.0999
     12 C9         -1.5634    3.2914   -0.7515 C.2       1 <0>        -0.0156
     13 C10        -1.5934    4.2931   -1.6271 C.2       1 <0>        -0.2471
     14 C11        -1.3581    4.0355   -3.0496 C.2       1 <0>         0.3853
     15 O1         -1.0531    4.9355   -3.8094 O.2       1 <0>        -0.4580
     16 C12        -1.5050    2.6103   -3.5335 C.3       1 <0>        -0.1570
     17 C13        -0.7858    1.6767   -2.5647 C.3       1 <0>        -0.1136
     18 C14        -1.1950    1.8895   -1.1244 C.3       1 <0>        -0.0558
     19 H4         -2.1102    1.2870   -0.9796 H         1 <0>         0.0897
     20 C15        -0.1610    1.3298   -0.1619 C.3       1 <0>        -0.0409
     21 H5         -0.0364    0.2593   -0.3475 H         1 <0>         0.0900
     22 C16         1.1880    2.0050   -0.2386 C.2       1 <0>        -0.1145
     23 C17         1.4491    3.0730   -0.9464 C.2       1 <0>        -0.1866
     24 C18         2.2688    1.3479    0.5974 C.3       1 <0>        -0.0778
     25 C19         1.8234    1.0618    2.0078 C.3       1 <0>        -0.0355
     26 C20         2.3078    2.0578    3.0564 C.3       1 <0>        -0.0312
     27 H6          3.2890    1.7258    3.4389 H         1 <0>         0.0763
     28 C21         2.4449    3.4575    2.5345 C.2       1 <0>        -0.1405
     29 C22         1.8766    3.7933    1.4030 C.2       1 <0>        -0.2293
     30 C23         3.2365    4.4774    3.3119 C.3       1 <0>         0.0809
     31 O2          3.1047    5.7573    2.6903 O.3       1 <0>        -0.3039
     32 C24         3.8339    6.7766    3.2161 C.ar      1 <0>         0.1532
     33 C25         4.7321    6.5300    4.2442 C.ar      1 <0>        -0.2073
     34 C26         5.4763    7.5666    4.7733 C.ar      1 <0>        -0.0432
     35 C27         5.3185    8.8515    4.2862 C.ar      1 <0>        -0.1395
     36 C28         4.4190    9.1008    3.2654 C.ar      1 <0>        -0.0445
     37 C29         3.6769    8.0662    2.7295 C.ar      1 <0>        -0.1488
     38 I1          6.4430   10.4226    5.0963 I         1 <0>        -0.0429
     39 C30         2.5237   -0.2805    2.3722 C.3       1 <0>        -0.1528
     40 H7          0.2363    2.7718    6.6007 H         1 <0>         0.0523
     41 H8         -0.3970    4.3524    6.0820 H         1 <0>         0.0524
     42 H9         -1.0327    2.8571    5.3554 H         1 <0>         0.0564
     43 H10         1.8195    3.9044    5.0647 H         1 <0>         0.0654
     44 H11         0.5505    3.9896    3.8195 H         1 <0>         0.0731
     45 H12        -0.8432    1.9025    3.7404 H         1 <0>         0.0785
     46 H13        -0.1484    0.3820    4.3164 H         1 <0>         0.0581
     47 H14        -1.0515    3.1657    2.6258 H         1 <0>         0.0754
     48 H15         0.1482    3.5405    1.3700 H         1 <0>         0.1224
     49 H16        -2.8370    3.1578    0.9773 H         1 <0>         0.0817
     50 H17        -1.9177    4.6758    0.8475 H         1 <0>         0.0773
     51 H18        -1.7851    5.3006   -1.2861 H         1 <0>         0.1344
     52 H19        -1.1019    2.5244   -4.4446 H         1 <0>         0.0839
     53 H20        -2.5646    2.3434   -3.5797 H         1 <0>         0.0996
     54 H21         0.2873    1.7788   -2.6882 H         1 <0>         0.0784
     55 H22        -1.0454    0.6431   -2.8425 H         1 <0>         0.0773
     56 H23         0.6694    3.5361   -1.5330 H         1 <0>         0.1072
     57 H24         2.4445    3.4920   -0.9445 H         1 <0>         0.1052
     58 H25         2.5161    0.3872    0.1183 H         1 <0>         0.0704
     59 H26         3.1677    1.9533    0.5814 H         1 <0>         0.0781
     60 H27         2.0743    4.7607    0.9656 H         1 <0>         0.1013
     61 H28         1.2102    3.1026    0.9076 H         1 <0>         0.1911
     62 H29         2.8590    4.5288    4.3332 H         1 <0>         0.0867
     63 H30         4.2871    4.1873    3.3271 H         1 <0>         0.0647
     64 H31         4.8527    5.5276    4.6276 H         1 <0>         0.1348
     65 H32         6.1789    7.3743    5.5706 H         1 <0>         0.1313
     66 H33         4.2971   10.1049    2.8868 H         1 <0>         0.1359
     67 H34         2.9752    8.2612    1.9320 H         1 <0>         0.1390
     68 H35         3.6041   -0.1601    2.2920 H         1 <0>         0.0548
     69 H36         2.2641   -0.5604    3.3931 H         1 <0>         0.0566
     70 H37         2.1932   -1.0606    1.6864 H         1 <0>         0.0564
@<TRIPOS>BOND
     1    1    2 1
     2    1   40 1
     3    1   41 1
     4    1   42 1
     5    2    3 1
     6    2   43 1
     7    2   44 1
     8    3    4 1
     9    3   26 1
    10    3    5 1
    11    5    6 1
    12    5   45 1
    13    5   46 1
    14    6    7 1
    15    6   25 1
    16    6    8 1
    17    8    9 1
    18    8   20 1
    19    8   10 1
    20   10   11 1
    21   10   47 1
    22   10   48 1
    23   11   12 1
    24   11   49 1
    25   11   50 1
    26   12   18 1
    27   12   13 2
    28   13   14 1
    29   13   51 1
    30   14   15 2
    31   14   16 1
    32   16   17 1
    33   16   52 1
    34   16   53 1
    35   17   18 1
    36   17   54 1
    37   17   55 1
    38   18   19 1
    39   18   20 1
    40   20   21 1
    41   20   22 1
    42   22   23 2
    43   22   24 1
    44   23   56 1
    45   23   57 1
    46   24   25 1
    47   24   58 1
    48   24   59 1
    49   25   26 1
    50   25   39 1
    51   26   27 1
    52   26   28 1
    53   28   29 2
    54   28   30 1
    55   29   60 1
    56   29   61 1
    57   30   31 1
    58   30   62 1
    59   30   63 1
    60   31   32 1
    61   32   37 ar
    62   32   33 ar
    63   33   34 ar
    64   33   64 1
    65   34   35 ar
    66   34   65 1
    67   35   36 ar
    68   35   38 1
    69   36   37 ar
    70   36   66 1
    71   37   67 1
    72   39   68 1
    73   39   69 1
    74   39   70 1
@<TRIPOS>MOLECULE
ZINC03814369
   54    57     0     0     0
SMALL
USER_CHARGES

@<TRIPOS>ATOM
      1 C1         -4.4772   -0.0269    3.0997 C.3       1 <0>        -0.1658
      2 C2         -3.7054   -0.1844    1.7881 C.3       1 <0>        -0.1070
      3 C3         -3.6366    1.1869    1.0595 C.3       1 <0>        -0.0197
      4 C4         -2.9775    2.1161    2.0463 C.3       1 <0>        -0.0869
      5 C5         -3.4127    3.5550    1.8478 C.2       1 <0>        -0.1061
      6 C6         -2.5303    4.5063    1.7034 C.2       1 <0>        -0.1968
      7 C7         -4.9086    3.7550    1.8286 C.3       1 <0>        -0.0370
      8 H1         -5.3413    3.2839    2.7188 H         1 <0>         0.0869
      9 C8         -5.4185    3.0054    0.5924 C.3       1 <0>        -0.0689
     10 H2         -6.5155    3.1161    0.5658 H         1 <0>         0.0743
     11 C9         -5.0813    1.5226    0.6865 C.3       1 <0>        -0.0749
     12 H3         -5.7760    1.0291    1.4074 H         1 <0>         0.0917
     13 C10        -5.2677    0.9045   -0.7262 C.3       1 <0>        -0.1183
     14 C11        -3.8767    0.9966   -1.3823 C.3       1 <0>        -0.1479
     15 C12        -2.8583    0.9194   -0.2255 C.3       1 <0>         0.1758
     16 C13        -1.7398    1.8957   -0.4600 C.2       1 <0>        -0.1143
     17 C14        -0.5026    1.4691   -0.5362 C.2       1 <0>        -0.1640
     18 I1          1.0555    2.8288   -0.8715 I         1 <0>        -0.0669
     19 O1         -2.3114   -0.4110   -0.1773 O.3       1 <0>        -0.5507
     20 C15        -4.8428    3.6341   -0.6728 C.3       1 <0>        -0.1201
     21 C16        -5.3134    5.0877   -0.7944 C.3       1 <0>        -0.0999
     22 C17        -4.9426    5.8298    0.4760 C.2       1 <0>        -0.0169
     23 C18        -4.2648    6.9678    0.3747 C.2       1 <0>        -0.2452
     24 C19        -3.9416    7.7357    1.5804 C.2       1 <0>         0.3858
     25 O2         -3.0449    8.5582    1.5813 O.2       1 <0>        -0.4574
     26 C20        -4.7628    7.4624    2.8199 C.3       1 <0>        -0.1570
     27 C21        -4.8950    5.9583    3.0237 C.3       1 <0>        -0.1130
     28 C22        -5.3323    5.2145    1.7844 C.3       1 <0>        -0.0551
     29 H4         -6.4372    5.2141    1.7974 H         1 <0>         0.0877
     30 H5         -4.6750   -1.0107    3.5254 H         1 <0>         0.0546
     31 H6         -3.8849    0.5603    3.8016 H         1 <0>         0.0578
     32 H7         -5.4216    0.4820    2.9067 H         1 <0>         0.0587
     33 H8         -4.2142   -0.9087    1.1519 H         1 <0>         0.0670
     34 H9         -2.6951   -0.5340    2.0007 H         1 <0>         0.0712
     35 H10        -1.9008    2.0388    2.0285 H         1 <0>         0.0729
     36 H11        -3.3042    1.8146    3.0567 H         1 <0>         0.0848
     37 H12        -2.8546    5.5260    1.5571 H         1 <0>         0.1037
     38 H13        -1.4760    4.2736    1.7302 H         1 <0>         0.0970
     39 H14        -6.0082    1.4610   -1.3022 H         1 <0>         0.0742
     40 H15        -5.5821   -0.1412   -0.6487 H         1 <0>         0.0677
     41 H16        -3.7618    1.9322   -1.9244 H         1 <0>         0.0799
     42 H17        -3.7264    0.1560   -2.0631 H         1 <0>         0.0728
     43 H18        -1.9553    2.9487   -0.5656 H         1 <0>         0.1283
     44 H19        -0.2871    0.4161   -0.4305 H         1 <0>         0.1433
     45 H20        -1.8470   -0.6748   -0.9834 H         1 <0>         0.3718
     46 H21        -3.7560    3.6196   -0.6457 H         1 <0>         0.0722
     47 H22        -5.1912    3.0889   -1.5528 H         1 <0>         0.0763
     48 H23        -4.8318    5.5570   -1.6506 H         1 <0>         0.0781
     49 H24        -6.3954    5.1068   -0.9254 H         1 <0>         0.0835
     50 H25        -3.9508    7.3285   -0.5946 H         1 <0>         0.1344
     51 H26        -5.6727    7.8629    2.7119 H         1 <0>         0.0895
     52 H27        -4.2715    7.9081    3.6899 H         1 <0>         0.0937
     53 H28        -5.6571    5.7929    3.8038 H         1 <0>         0.0758
     54 H29        -3.9621    5.5590    3.4106 H         1 <0>         0.0784
@<TRIPOS>BOND
     1    1    2 1
     2    1   30 1
     3    1   31 1
     4    1   32 1
     5    2    3 1
     6    2   33 1
     7    2   34 1
     8    3   11 1
     9    3   15 1
    10    3    4 1
    11    4    5 1
    12    4   35 1
    13    4   36 1
    14    5    6 2
    15    5    7 1
    16    6   37 1
    17    6   38 1
    18    7    8 1
    19    7   28 1
    20    7    9 1
    21    9   10 1
    22    9   11 1
    23    9   20 1
    24   11   12 1
    25   11   13 1
    26   13   14 1
    27   13   39 1
    28   13   40 1
    29   14   15 1
    30   14   41 1
    31   14   42 1
    32   15   16 1
    33   15   19 1
    34   16   17 2
    35   16   43 1
    36   17   18 1
    37   17   44 1
    38   19   45 1
    39   20   21 1
    40   20   46 1
    41   20   47 1
    42   21   22 1
    43   21   48 1
    44   21   49 1
    45   22   28 1
    46   22   23 2
    47   23   24 1
    48   23   50 1
    49   24   25 2
    50   24   26 1
    51   26   27 1
    52   26   51 1
    53   26   52 1
    54   27   28 1
    55   27   53 1
    56   27   54 1
    57   28   29 1
@<TRIPOS>MOLECULE
ZINC03814370
   50    53     0     0     0
SMALL
USER_CHARGES

@<TRIPOS>ATOM
      1 C1         -2.5254    3.0914   -2.0321 C.3       1 <0>        -0.1317
      2 C2         -1.2206    3.0310   -1.1885 C.3       1 <0>        -0.0289
      3 C3         -1.6003    3.5625    0.1660 C.3       1 <0>        -0.1046
      4 C4         -0.7125    3.0758    1.3092 C.3       1 <0>        -0.1204
      5 C5         -0.7204    1.5452    1.2853 C.3       1 <0>        -0.0704
      6 H1         -1.7537    1.1927    1.2652 H         1 <0>         0.0811
      7 C6         -0.0129    1.0974    0.0081 C.3       1 <0>        -0.0728
      8 H2          0.0021   -0.0041    0.0020 H         1 <0>         0.0718
      9 C7         -0.7742    1.5670   -1.2258 C.3       1 <0>        -0.0684
     10 H3         -1.6552    0.9091   -1.3912 H         1 <0>         0.0835
     11 C8          0.1847    1.4851   -2.4450 C.3       1 <0>        -0.1183
     12 C9          0.8501    2.8712   -2.5126 C.3       1 <0>        -0.1476
     13 C10        -0.1950    3.8618   -1.9575 C.3       1 <0>         0.1745
     14 C11         0.4785    4.9072   -1.1158 C.2       1 <0>        -0.1153
     15 C12         0.3754    6.1739   -1.4372 C.2       1 <0>        -0.1631
     16 I1          1.3150    7.6324   -0.2629 I         1 <0>        -0.0655
     17 O1         -0.8513    4.5060   -3.0652 O.3       1 <0>        -0.5505
     18 C13         1.4294    1.5916   -0.0030 C.3       1 <0>        -0.1206
     19 C14         2.1929    0.9732    1.1749 C.3       1 <0>        -0.1012
     20 C15         1.4461    1.2914    2.4569 C.2       1 <0>        -0.0200
     21 C16         2.1176    1.8677    3.4494 C.2       1 <0>        -0.2439
     22 C17         1.4585    2.1350    4.7303 C.2       1 <0>         0.3868
     23 O2          1.9140    2.9276    5.5314 O.2       1 <0>        -0.4587
     24 C18         0.1785    1.3751    5.0122 C.3       1 <0>        -0.1583
     25 C19        -0.7131    1.4518    3.7769 C.3       1 <0>        -0.1143
     26 C20        -0.0177    0.9764    2.5181 C.3       1 <0>        -0.0564
     27 H4         -0.1190   -0.1121    2.4779 H         1 <0>         0.0887
     28 H5         -2.8799    4.1210   -2.0797 H         1 <0>         0.0594
     29 H6         -2.3232    2.7298   -3.0403 H         1 <0>         0.0604
     30 H7         -3.2876    2.4658   -1.5677 H         1 <0>         0.0472
     31 H8         -2.6253    3.2062    0.3844 H         1 <0>         0.0619
     32 H9         -1.6570    4.6458    0.1702 H         1 <0>         0.0671
     33 H10        -1.1261    3.4386    2.2522 H         1 <0>         0.0675
     34 H11         0.3005    3.4478    1.1995 H         1 <0>         0.0681
     35 H12         0.9304    0.7018   -2.3046 H         1 <0>         0.0742
     36 H13        -0.3774    1.2852   -3.3623 H         1 <0>         0.0676
     37 H14         1.7538    2.9027   -1.9087 H         1 <0>         0.0808
     38 H15         1.0846    3.1250   -3.5494 H         1 <0>         0.0730
     39 H16         1.0479    4.6155   -0.2458 H         1 <0>         0.1263
     40 H17        -0.1941    6.4656   -2.3073 H         1 <0>         0.1434
     41 H18        -0.2654    5.0543   -3.6048 H         1 <0>         0.3707
     42 H19         1.9251    1.2806   -0.9268 H         1 <0>         0.0771
     43 H20         1.4670    2.6739    0.0781 H         1 <0>         0.0707
     44 H21         2.2456   -0.1081    1.0420 H         1 <0>         0.0838
     45 H22         3.1977    1.3878    1.2185 H         1 <0>         0.0777
     46 H23         3.1555    2.1387    3.3121 H         1 <0>         0.1322
     47 H24        -0.2875    1.7862    5.7957 H         1 <0>         0.0826
     48 H25         0.4086    0.3309    5.2359 H         1 <0>         0.0982
     49 H26        -1.0532    2.4766    3.6562 H         1 <0>         0.0756
     50 H27        -1.5925    0.8181    3.9462 H         1 <0>         0.0788
@<TRIPOS>BOND
     1    1    2 1
     2    1   28 1
     3    1   29 1
     4    1   30 1
     5    2    9 1
     6    2   13 1
     7    2    3 1
     8    3    4 1
     9    3   31 1
    10    3   32 1
    11    4    5 1
    12    4   33 1
    13    4   34 1
    14    5    6 1
    15    5   26 1
    16    5    7 1
    17    7    8 1
    18    7    9 1
    19    7   18 1
    20    9   10 1
    21    9   11 1
    22   11   12 1
    23   11   35 1
    24   11   36 1
    25   12   13 1
    26   12   37 1
    27   12   38 1
    28   13   14 1
    29   13   17 1
    30   14   15 2
    31   14   39 1
    32   15   16 1
    33   15   40 1
    34   17   41 1
    35   18   19 1
    36   18   42 1
    37   18   43 1
    38   19   20 1
    39   19   44 1
    40   19   45 1
    41   20   26 1
    42   20   21 2
    43   21   22 1
    44   21   46 1
    45   22   23 2
    46   22   24 1
    47   24   25 1
    48   24   47 1
    49   24   48 1
    50   25   26 1
    51   25   49 1
    52   25   50 1
    53   26   27 1
@<TRIPOS>MOLECULE
ZINC03814371
   62    65     0     0     0
SMALL
USER_CHARGES

@<TRIPOS>ATOM
      1 C1         -2.7167    1.8537    2.6708 C.3       1 <0>        -0.1535
      2 C2         -2.0957    1.5905    1.2974 C.3       1 <0>        -0.0666
      3 H1         -2.6137    2.1790    0.5401 H         1 <0>         0.0916
      4 C3         -0.6145    1.9739    1.3215 C.3       1 <0>        -0.1072
      5 C4          0.0282    1.5963   -0.0160 C.3       1 <0>        -0.0786
      6 H2         -0.5002    2.0718   -0.8423 H         1 <0>         0.0891
      7 C5         -0.0064    0.0697   -0.1787 C.3       1 <0>        -0.0666
      8 H3          0.4776   -0.3895    0.6833 H         1 <0>         0.0735
      9 C6          0.7116   -0.3791   -1.4480 C.3       1 <0>        -0.1236
     10 C7          2.1481    0.1637   -1.5103 C.3       1 <0>        -0.0978
     11 C8          2.0615    1.6752   -1.4196 C.3       1 <0>        -0.0445
     12 C9          1.4864    2.0191   -0.0196 C.3       1 <0>        -0.0777
     13 H4          2.0359    1.4884    0.7580 H         1 <0>         0.0847
     14 C10         1.7442    3.5276    0.0609 C.3       1 <0>        -0.1163
     15 C11         3.1703    3.6680   -0.5383 C.3       1 <0>        -0.1308
     16 C12         3.3848    2.4338   -1.4497 C.3       1 <0>         0.0892
     17 C13         3.7035    2.8721   -2.8558 C.2       1 <0>         0.3556
     18 O1          3.4082    3.9839   -3.2233 O.2       1 <0>        -0.4305
     19 C14         4.3909    1.9231   -3.8034 C.3       1 <0>        -0.1967
     20 O2          4.4536    1.6018   -0.9265 O.3       1 <0>        -0.3325
     21 C15         5.6750    2.1537   -0.8527 C.2       1 <0>         0.4509
     22 O3          5.8312    3.3160   -1.1434 O.2       1 <0>        -0.5014
     23 C16         6.8513    1.3237   -0.4073 C.3       1 <0>        -0.1487
     24 C17         1.1285    2.2075   -2.5091 C.3       1 <0>        -0.1600
     25 C18        -1.4630   -0.4074   -0.2283 C.3       1 <0>        -0.0288
     26 C19        -2.2089    0.1145    0.9614 C.2       1 <0>        -0.0150
     27 C20        -2.9848   -0.6419    1.7365 C.2       1 <0>        -0.2481
     28 C21        -3.1554   -2.0674    1.4344 C.2       1 <0>         0.3866
     29 O4         -3.5190   -2.8602    2.2778 O.2       1 <0>        -0.4575
     30 C22        -2.8527   -2.4974    0.0123 C.3       1 <0>        -0.1601
     31 C23        -1.4877   -1.9201   -0.3596 C.3       1 <0>        -0.1044
     32 C24        -2.1138    0.1887   -1.4780 C.3       1 <0>        -0.1513
     33 H5         -2.1905    1.2692    3.4255 H         1 <0>         0.0609
     34 H6         -2.6342    2.9140    2.9097 H         1 <0>         0.0622
     35 H7         -3.7678    1.5654    2.6555 H         1 <0>         0.0618
     36 H8         -0.1136    1.4402    2.1293 H         1 <0>         0.0676
     37 H9         -0.5192    3.0480    1.4805 H         1 <0>         0.0727
     38 H10         0.7418   -1.4684   -1.4732 H         1 <0>         0.0698
     39 H11         0.1580   -0.0201   -2.3156 H         1 <0>         0.0740
     40 H12         2.7285   -0.2256   -0.6739 H         1 <0>         0.0771
     41 H13         2.6135   -0.1254   -2.4526 H         1 <0>         0.0674
     42 H14         1.0179    4.0757   -0.5392 H         1 <0>         0.0749
     43 H15         1.7257    3.8674    1.0964 H         1 <0>         0.0743
     44 H16         3.2408    4.5835   -1.1256 H         1 <0>         0.0925
     45 H17         3.9123    3.6780    0.2601 H         1 <0>         0.0766
     46 H18         3.7089    1.3383   -4.2426 H         1 <0>         0.0907
     47 H19         4.9252    2.4925   -4.5639 H         1 <0>         0.0893
     48 H20         5.0972    1.3047   -3.2495 H         1 <0>         0.0827
     49 H21         6.5183    0.3088   -0.1898 H         1 <0>         0.0931
     50 H22         7.5992    1.2986   -1.1998 H         1 <0>         0.1071
     51 H23         7.2871    1.7632    0.4899 H         1 <0>         0.1067
     52 H24         0.1517    1.7330   -2.4147 H         1 <0>         0.0841
     53 H25         1.0203    3.2866   -2.3994 H         1 <0>         0.0677
     54 H26         1.5487    1.9823   -3.4893 H         1 <0>         0.0557
     55 H27        -3.4876   -0.2060    2.5871 H         1 <0>         0.1416
     56 H28        -3.5624   -2.1484   -0.5997 H         1 <0>         0.0898
     57 H29        -2.8239   -3.5853   -0.0487 H         1 <0>         0.0911
     58 H30        -1.2556   -2.1913   -1.3895 H         1 <0>         0.0838
     59 H31        -0.7312   -2.3465    0.2991 H         1 <0>         0.0702
     60 H32        -1.5766   -0.1497   -2.3640 H         1 <0>         0.0691
     61 H33        -3.1526   -0.1362   -1.5368 H         1 <0>         0.0589
     62 H34        -2.0759    1.2767   -1.4236 H         1 <0>         0.0636
@<TRIPOS>BOND
     1    1    2 1
     2    1   33 1
     3    1   34 1
     4    1   35 1
     5    2    3 1
     6    2   26 1
     7    2    4 1
     8    4    5 1
     9    4   36 1
    10    4   37 1
    11    5    6 1
    12    5   12 1
    13    5    7 1
    14    7    8 1
    15    7    9 1
    16    7   25 1
    17    9   10 1
    18    9   38 1
    19    9   39 1
    20   10   11 1
    21   10   40 1
    22   10   41 1
    23   11   16 1
    24   11   12 1
    25   11   24 1
    26   12   13 1
    27   12   14 1
    28   14   15 1
    29   14   42 1
    30   14   43 1
    31   15   16 1
    32   15   44 1
    33   15   45 1
    34   16   17 1
    35   16   20 1
    36   17   18 2
    37   17   19 1
    38   19   46 1
    39   19   47 1
    40   19   48 1
    41   20   21 1
    42   21   22 2
    43   21   23 1
    44   23   49 1
    45   23   50 1
    46   23   51 1
    47   24   52 1
    48   24   53 1
    49   24   54 1
    50   25   31 1
    51   25   26 1
    52   25   32 1
    53   26   27 2
    54   27   28 1
    55   27   55 1
    56   28   29 2
    57   28   30 1
    58   30   31 1
    59   30   56 1
    60   30   57 1
    61   31   58 1
    62   31   59 1
    63   32   60 1
    64   32   61 1
    65   32   62 1
@<TRIPOS>MOLECULE
ZINC03814372
   49    50     0     0     0
SMALL
USER_CHARGES

@<TRIPOS>ATOM
      1 C1         -0.1395   -0.0035   -0.6044 C.3       1 <0>        -0.1725
      2 C2         -0.1725    1.5032   -0.6033 C.2       1 <0>         0.5099
      3 O1          0.7041    2.1294   -1.1606 O.2       1 <0>        -0.5229
      4 N1         -1.1791    2.1547    0.0121 N.am      1 <0>        -0.6730
      5 C3         -1.1492    3.5520    0.1164 C.ar      1 <0>         0.1446
      6 C4          0.0667    4.2228    0.1079 C.ar      1 <0>        -0.1096
      7 C5          0.0964    5.5994    0.2058 C.ar      1 <0>        -0.1103
      8 C6         -1.0900    6.3131    0.3229 C.ar      1 <0>        -0.1124
      9 C7         -2.3061    5.6411    0.3367 C.ar      1 <0>        -0.0748
     10 C8         -2.3351    4.2648    0.2340 C.ar      1 <0>        -0.1304
     11 S1         -1.0524    8.0699    0.4535 S.3       1 <0>        -0.0709
     12 C9          0.7142    8.4769    0.3905 C.3       1 <0>        -0.1380
     13 C10         0.8924    9.9928    0.4955 C.3       1 <0>         0.1478
     14 C11         0.0688   10.6799   -0.5957 C.3       1 <0>        -0.1463
     15 C12         2.3481   10.3409    0.3202 C.2       1 <0>         0.4993
     16 O2          3.0798    9.5958   -0.2967 O.2       1 <0>        -0.4961
     17 N2          2.8370   11.4801    0.8490 N.am      1 <0>        -0.6623
     18 C13         4.1635   11.8521    0.6043 C.ar      1 <0>         0.1980
     19 C14         5.1516   10.8811    0.5052 C.ar      1 <0>        -0.0953
     20 C15         6.4590   11.2511    0.2585 C.ar      1 <0>        -0.0284
     21 C16         6.7867   12.5877    0.1210 C.ar      1 <0>        -0.0199
     22 C17         5.8064   13.5571    0.2248 C.ar      1 <0>        -0.1028
     23 C18         4.4958   13.1931    0.4658 C.ar      1 <0>        -0.0974
     24 C19         6.1679   15.0123    0.0743 C.3       1 <0>         0.5149
     25 F1          5.0177   15.7958    0.2175 F         1 <0>        -0.1716
     26 F2          7.0983   15.3658    1.0575 F         1 <0>        -0.1572
     27 F3          6.7233   15.2264   -1.1917 F         1 <0>        -0.1570
     28 N3          8.1899   12.9812   -0.1383 N.pl3     1 <0>         0.0206
     29 O3          9.0545   12.1282   -0.2300 O.2       1 <0>        -0.1380
     30 O4          8.4799   14.1579   -0.2600 O.3       1 <0>        -0.1424
     31 O5          0.4476   10.4370    1.7788 O.3       1 <0>        -0.5337
     32 H1          0.4140   -0.3554    0.2661 H         1 <0>         0.0999
     33 H2         -1.1583   -0.3893   -0.5676 H         1 <0>         0.0839
     34 H3          0.3497   -0.3555   -1.5127 H         1 <0>         0.0992
     35 H4         -1.9243    1.6565    0.3829 H         1 <0>         0.4137
     36 H5          0.9890    3.6677    0.0206 H         1 <0>         0.1460
     37 H6          1.0419    6.1213    0.1950 H         1 <0>         0.1248
     38 H7         -3.2285    6.1954    0.4274 H         1 <0>         0.1336
     39 H8         -3.2803    3.7424    0.2447 H         1 <0>         0.1328
     40 H9          1.2285    7.9923    1.2205 H         1 <0>         0.0963
     41 H10         1.1346    8.1260   -0.5520 H         1 <0>         0.1137
     42 H11        -0.9841   10.4281   -0.4689 H         1 <0>         0.0956
     43 H12         0.1957   11.7599   -0.5210 H         1 <0>         0.0765
     44 H13         0.4081   10.3410   -1.5746 H         1 <0>         0.0860
     45 H14         2.2693   12.0422    1.3991 H         1 <0>         0.4286
     46 H15         4.8971    9.8374    0.6168 H         1 <0>         0.1710
     47 H16         7.2271   10.4963    0.1772 H         1 <0>         0.1719
     48 H17         3.7305   13.9509    0.5468 H         1 <0>         0.1678
     49 H18         0.9267   10.0415    2.5197 H         1 <0>         0.3868
@<TRIPOS>BOND
     1    1    2 1
     2    1   32 1
     3    1   33 1
     4    1   34 1
     5    2    3 2
     6    2    4 am
     7    4    5 1
     8    4   35 1
     9    5   10 ar
    10    5    6 ar
    11    6    7 ar
    12    6   36 1
    13    7    8 ar
    14    7   37 1
    15    8    9 ar
    16    8   11 1
    17    9   10 ar
    18    9   38 1
    19   10   39 1
    20   11   12 1
    21   12   13 1
    22   12   40 1
    23   12   41 1
    24   13   14 1
    25   13   15 1
    26   13   31 1
    27   14   42 1
    28   14   43 1
    29   14   44 1
    30   15   16 2
    31   15   17 am
    32   17   18 1
    33   17   45 1
    34   18   23 ar
    35   18   19 ar
    36   19   20 ar
    37   19   46 1
    38   20   21 ar
    39   20   47 1
    40   21   22 ar
    41   21   28 1
    42   22   23 ar
    43   22   24 1
    44   23   48 1
    45   24   25 1
    46   24   26 1
    47   24   27 1
    48   28   29 2
    49   28   30 1
    50   31   49 1
@<TRIPOS>MOLECULE
ZINC03814373
   49    50     0     0     0
SMALL
USER_CHARGES

@<TRIPOS>ATOM
      1 C1         -7.4231    5.7898   -1.8333 C.3       1 <0>        -0.1469
      2 C2         -6.5205    6.3370   -0.7257 C.3       1 <0>         0.1475
      3 C3         -5.2197    5.5326   -0.6839 C.3       1 <0>        -0.1387
      4 S1         -5.6045    3.7697   -0.4985 S.3       1 <0>        -0.0671
      5 C4         -4.0249    2.9895   -0.4671 C.ar      1 <0>        -0.1054
      6 C5         -3.9339    1.6095   -0.3333 C.ar      1 <0>        -0.0779
      7 C6         -2.6962    0.9987   -0.3092 C.ar      1 <0>        -0.0986
      8 C7         -1.5422    1.7633   -0.4192 C.ar      1 <0>         0.1391
      9 C8         -1.6325    3.1430   -0.5476 C.ar      1 <0>        -0.1210
     10 C9         -2.8699    3.7542   -0.5766 C.ar      1 <0>        -0.1144
     11 N1         -0.2858    1.1427   -0.3947 N.am      1 <0>        -0.6710
     12 C10        -0.1237   -0.0731   -0.9532 C.2       1 <0>         0.5030
     13 O1         -1.0806   -0.6646   -1.4069 O.2       1 <0>        -0.4923
     14 C11         1.2464   -0.6977   -1.0142 C.3       1 <0>        -0.0670
     15 Cl1         1.1366   -2.3107   -1.8123 Cl        1 <0>        -0.1209
     16 C12        -6.2072    7.7848   -1.0024 C.2       1 <0>         0.5000
     17 O2         -5.1857    8.0839   -1.5840 O.2       1 <0>        -0.4975
     18 N2         -7.0621    8.7474   -0.6035 N.am      1 <0>        -0.6621
     19 C13        -6.8205   10.0828   -0.9445 C.ar      1 <0>         0.1979
     20 C14        -5.5180   10.5617   -1.0022 C.ar      1 <0>        -0.0954
     21 C15        -5.2827   11.8787   -1.3441 C.ar      1 <0>        -0.0287
     22 C16        -6.3428   12.7236   -1.6183 C.ar      1 <0>        -0.0198
     23 C17        -7.6408   12.2514   -1.5562 C.ar      1 <0>        -0.1025
     24 C18        -7.8826   10.9336   -1.2204 C.ar      1 <0>        -0.0973
     25 C19        -8.7930   13.1755   -1.8557 C.3       1 <0>         0.5148
     26 F1         -9.9974   12.4751   -1.7294 F         1 <0>        -0.1714
     27 F2         -8.7790   14.2455   -0.9546 F         1 <0>        -0.1571
     28 F3         -8.6721   13.6636   -3.1612 F         1 <0>        -0.1570
     29 N3         -6.0872   14.1361   -1.9794 N.pl3     1 <0>         0.0205
     30 O3         -4.9443   14.5534   -2.0345 O.2       1 <0>        -0.1380
     31 O4         -7.0199   14.8811   -2.2215 O.3       1 <0>        -0.1421
     32 O5         -7.1896    6.2263    0.5321 O.3       1 <0>        -0.5334
     33 H1         -7.6497    4.7425   -1.6332 H         1 <0>         0.0958
     34 H2         -8.3498    6.3628   -1.8632 H         1 <0>         0.0767
     35 H3         -6.9127    5.8742   -2.7928 H         1 <0>         0.0861
     36 H4         -4.6150    5.8633    0.1606 H         1 <0>         0.0965
     37 H5         -4.6663    5.6883   -1.6100 H         1 <0>         0.1136
     38 H6         -4.8314    1.0148   -0.2485 H         1 <0>         0.1340
     39 H7         -2.6254   -0.0739   -0.2053 H         1 <0>         0.1460
     40 H8         -0.7346    3.7376   -0.6289 H         1 <0>         0.1306
     41 H9         -2.9402    4.8269   -0.6806 H         1 <0>         0.1267
     42 H10         0.4662    1.5865    0.0278 H         1 <0>         0.4138
     43 H11         1.9141   -0.0538   -1.5866 H         1 <0>         0.1273
     44 H12         1.6361   -0.8182   -0.0034 H         1 <0>         0.1272
     45 H13        -7.8448    8.5145   -0.0801 H         1 <0>         0.4288
     46 H14        -4.6899    9.9036   -0.7838 H         1 <0>         0.1708
     47 H15        -4.2699   12.2507   -1.3931 H         1 <0>         0.1718
     48 H16        -8.8968   10.5653   -1.1720 H         1 <0>         0.1680
     49 H17        -6.6748    6.5552    1.2817 H         1 <0>         0.3867
@<TRIPOS>BOND
     1    1    2 1
     2    1   33 1
     3    1   34 1
     4    1   35 1
     5    2    3 1
     6    2   16 1
     7    2   32 1
     8    3    4 1
     9    3   36 1
    10    3   37 1
    11    4    5 1
    12    5   10 ar
    13    5    6 ar
    14    6    7 ar
    15    6   38 1
    16    7    8 ar
    17    7   39 1
    18    8    9 ar
    19    8   11 1
    20    9   10 ar
    21    9   40 1
    22   10   41 1
    23   11   12 am
    24   11   42 1
    25   12   13 2
    26   12   14 1
    27   14   15 1
    28   14   43 1
    29   14   44 1
    30   16   17 2
    31   16   18 am
    32   18   19 1
    33   18   45 1
    34   19   24 ar
    35   19   20 ar
    36   20   21 ar
    37   20   46 1
    38   21   22 ar
    39   21   47 1
    40   22   23 ar
    41   22   29 1
    42   23   24 ar
    43   23   25 1
    44   24   48 1
    45   25   26 1
    46   25   27 1
    47   25   28 1
    48   29   30 2
    49   29   31 1
    50   32   49 1
@<TRIPOS>MOLECULE
ZINC03814374
   40    43     0     0     0
SMALL
USER_CHARGES

@<TRIPOS>ATOM
      1 C1          3.6697   -2.0724    0.0238 C.3       1 <0>         0.0627
      2 N1          3.6275   -0.6081    0.0136 N.am      1 <0>        -0.5166
      3 C2          2.4100    0.0428    0.0071 C.ar      1 <0>         0.2484
      4 C3          1.2235   -0.6741    0.0065 C.ar      1 <0>        -0.2415
      5 C4          0.0021   -0.0041    0.0020 C.ar      1 <0>         0.2650
      6 C5         -0.0168    1.3908    0.0097 C.ar      1 <0>        -0.1785
      7 C6          1.1380    2.1121    0.0025 C.ar      1 <0>         0.0008
      8 C7          2.3740    1.4512   -0.0000 C.ar      1 <0>        -0.1688
      9 C8          3.5904    2.1800   -0.0077 C.2       1 <0>        -0.0587
     10 C9          4.7662    1.5039   -0.0019 C.2       1 <0>        -0.1711
     11 C10         4.7759    0.0940    0.0103 C.2       1 <0>         0.5369
     12 O1          5.8413   -0.4986    0.0182 O.2       1 <0>        -0.5230
     13 C11         3.5769    3.6868   -0.0223 C.3       1 <0>         0.5062
     14 F1          4.8916    4.1649   -0.0276 F         1 <0>        -0.1685
     15 F2          2.9126    4.1362   -1.1686 F         1 <0>        -0.1678
     16 F3          2.9139    4.1582    1.1159 F         1 <0>        -0.1679
     17 C12        -1.4698    1.8454    0.0413 C.3       1 <0>        -0.0366
     18 H1         -1.6645    2.5128   -0.7982 H         1 <0>         0.0953
     19 C13        -1.7009    2.5870    1.3439 C.3       1 <0>        -0.1110
     20 C14        -3.1419    2.4920    1.8262 C.3       1 <0>        -0.1207
     21 C15        -3.4873    1.0091    2.0129 C.3       1 <0>        -0.1197
     22 C16        -3.5135    0.3606    0.6324 C.3       1 <0>        -0.1210
     23 C17        -2.2471    0.5641   -0.1360 C.3       1 <0>         0.1538
     24 H2         -2.5431    0.5662   -1.1850 H         1 <0>         0.0542
     25 N2         -1.2902   -0.5307   -0.0254 N.pl3     1 <0>        -0.7204
     26 H3          3.6819   -2.4427   -1.0013 H         1 <0>         0.0766
     27 H4          4.5690   -2.4064    0.5414 H         1 <0>         0.0956
     28 H5          2.7897   -2.4577    0.5388 H         1 <0>         0.0868
     29 H6          1.2460   -1.7538    0.0099 H         1 <0>         0.1369
     30 H7          1.1016    3.1915   -0.0015 H         1 <0>         0.1345
     31 H8          5.6991    2.0479   -0.0069 H         1 <0>         0.1681
     32 H9         -1.4460    3.6371    1.2011 H         1 <0>         0.0694
     33 H10        -1.0458    2.1670    2.1072 H         1 <0>         0.0652
     34 H11        -3.8077    2.9343    1.0852 H         1 <0>         0.0670
     35 H12        -3.2473    3.0166    2.7759 H         1 <0>         0.0688
     36 H13        -4.4656    0.9142    2.4841 H         1 <0>         0.0685
     37 H14        -2.7300    0.5286    2.6324 H         1 <0>         0.0642
     38 H15        -4.3410    0.7830    0.0624 H         1 <0>         0.0793
     39 H16        -3.6820   -0.7096    0.7529 H         1 <0>         0.0701
     40 H17        -1.5155   -1.4730    0.0215 H         1 <0>         0.4177
@<TRIPOS>BOND
     1    1    2 1
     2    1   26 1
     3    1   27 1
     4    1   28 1
     5    2   11 am
     6    2    3 1
     7    3    8 ar
     8    3    4 ar
     9    4    5 ar
    10    4   29 1
    11    5   25 1
    12    5    6 ar
    13    6    7 ar
    14    6   17 1
    15    7    8 ar
    16    7   30 1
    17    8    9 1
    18    9   10 2
    19    9   13 1
    20   10   11 1
    21   10   31 1
    22   11   12 2
    23   13   14 1
    24   13   15 1
    25   13   16 1
    26   17   18 1
    27   17   23 1
    28   17   19 1
    29   19   20 1
    30   19   32 1
    31   19   33 1
    32   20   21 1
    33   20   34 1
    34   20   35 1
    35   21   22 1
    36   21   36 1
    37   21   37 1
    38   22   23 1
    39   22   38 1
    40   22   39 1
    41   23   24 1
    42   23   25 1
    43   25   40 1
@<TRIPOS>MOLECULE
ZINC03814375
   49    50     0     0     0
SMALL
USER_CHARGES

@<TRIPOS>ATOM
      1 C1         -1.6305    3.1422   -0.5431 C.ar      1 <0>        -0.1209
      2 C2         -2.8674    3.7542   -0.5716 C.ar      1 <0>        -0.1146
      3 C3         -4.0230    2.9904   -0.4619 C.ar      1 <0>        -0.1190
      4 C4         -3.9329    1.6103   -0.3284 C.ar      1 <0>        -0.0753
      5 C5         -2.6957    0.9986   -0.3048 C.ar      1 <0>        -0.0984
      6 C6         -1.5411    1.7623   -0.4150 C.ar      1 <0>         0.1403
      7 N1         -0.2852    1.1409   -0.3911 N.am      1 <0>        -0.6712
      8 C7         -0.1241   -0.0749   -0.9499 C.2       1 <0>         0.5030
      9 O1         -1.0816   -0.6656   -1.4033 O.2       1 <0>        -0.4918
     10 C8          1.2455   -0.7005   -1.0114 C.3       1 <0>        -0.0670
     11 Cl1         1.1343   -2.3133   -1.8098 Cl        1 <0>        -0.1207
     12 S1         -5.6020    3.7717   -0.4926 S.3       1 <0>        -0.0353
     13 C9         -5.2160    5.5344   -0.6778 C.3       1 <0>        -0.1575
     14 C10        -6.5162    6.3397   -0.7191 C.3       1 <0>         0.1005
     15 C11        -6.2020    7.7874   -0.9956 C.2       1 <0>         0.5008
     16 O2         -5.1805    8.0858   -1.5775 O.2       1 <0>        -0.4695
     17 N2         -7.0561    8.7505   -0.5963 N.am      1 <0>        -0.6537
     18 C12        -6.8137   10.0858   -0.9372 C.ar      1 <0>         0.1933
     19 C13        -5.5108   10.5637   -0.9952 C.ar      1 <0>        -0.0928
     20 C14        -5.2747   11.8807   -1.3370 C.ar      1 <0>        -0.0284
     21 C15        -6.3344   12.7263   -1.6107 C.ar      1 <0>        -0.0153
     22 C16        -7.6327   12.2551   -1.5482 C.ar      1 <0>        -0.1027
     23 C17        -7.8753   10.9373   -1.2125 C.ar      1 <0>        -0.0917
     24 C18        -8.7843   13.1799   -1.8472 C.3       1 <0>         0.5149
     25 F1         -9.9892   12.4804   -1.7205 F         1 <0>        -0.1705
     26 F2         -8.7693   14.2498   -0.9459 F         1 <0>        -0.1566
     27 F3         -8.6636   13.6681   -3.1527 F         1 <0>        -0.1563
     28 N3         -6.0779   14.1387   -1.9717 N.pl3     1 <0>         0.0194
     29 O3         -4.9347   14.5552   -2.0272 O.2       1 <0>        -0.1356
     30 O4         -7.0102   14.8844   -2.2134 O.3       1 <0>        -0.1400
     31 C19        -7.4196    5.7933   -1.8265 C.3       1 <0>         0.4741
     32 F4         -7.7113    4.4494   -1.5698 F         1 <0>        -0.1358
     33 F5         -8.6085    6.5296   -1.8642 F         1 <0>        -0.1662
     34 F6         -6.7648    5.9014   -3.0581 F         1 <0>        -0.1570
     35 O5         -7.1850    6.2293    0.5390 O.3       1 <0>        -0.5111
     36 H1         -0.7322    3.7362   -0.6247 H         1 <0>         0.1310
     37 H2         -2.9370    4.8270   -0.6755 H         1 <0>         0.1255
     38 H3         -4.8308    1.0162   -0.2434 H         1 <0>         0.1341
     39 H4         -2.6256   -0.0741   -0.2011 H         1 <0>         0.1463
     40 H5          0.4673    1.5841    0.0312 H         1 <0>         0.4138
     41 H6          1.9135   -0.0570   -1.5840 H         1 <0>         0.1273
     42 H7          1.6354   -0.8215   -0.0008 H         1 <0>         0.1272
     43 H8         -4.6108    5.8645    0.1665 H         1 <0>         0.1211
     44 H9         -4.6628    5.6898   -1.6041 H         1 <0>         0.1279
     45 H10        -7.8388    8.5180   -0.0726 H         1 <0>         0.4316
     46 H11        -4.6832    9.9050   -0.7773 H         1 <0>         0.1718
     47 H12        -4.2617   12.2519   -1.3864 H         1 <0>         0.1737
     48 H13        -8.8897   10.5698   -1.1638 H         1 <0>         0.1701
     49 H14        -6.6697    6.5576    1.2885 H         1 <0>         0.4073
@<TRIPOS>BOND
     1    1    6 ar
     2    1    2 ar
     3    1   36 1
     4    2    3 ar
     5    2   37 1
     6    3    4 ar
     7    3   12 1
     8    4    5 ar
     9    4   38 1
    10    5    6 ar
    11    5   39 1
    12    6    7 1
    13    7    8 am
    14    7   40 1
    15    8    9 2
    16    8   10 1
    17   10   11 1
    18   10   41 1
    19   10   42 1
    20   12   13 1
    21   13   14 1
    22   13   43 1
    23   13   44 1
    24   14   15 1
    25   14   31 1
    26   14   35 1
    27   15   16 2
    28   15   17 am
    29   17   18 1
    30   17   45 1
    31   18   23 ar
    32   18   19 ar
    33   19   20 ar
    34   19   46 1
    35   20   21 ar
    36   20   47 1
    37   21   22 ar
    38   21   28 1
    39   22   23 ar
    40   22   24 1
    41   23   48 1
    42   24   25 1
    43   24   26 1
    44   24   27 1
    45   28   29 2
    46   28   30 1
    47   31   32 1
    48   31   33 1
    49   31   34 1
    50   35   49 1
@<TRIPOS>MOLECULE
ZINC03814376
   37    40     0     0     0
SMALL
USER_CHARGES

@<TRIPOS>ATOM
      1 C1          1.7007    4.1189   -0.0901 C.ar      1 <0>         0.0007
      2 C2          3.0585    3.7822   -0.0051 C.ar      1 <0>        -0.1702
      3 C3          4.0595    4.7864    0.0082 C.2       1 <0>        -0.0566
      4 C4          5.3630    4.4199    0.0861 C.2       1 <0>        -0.1724
      5 C5          5.7157    3.0562    0.1515 C.2       1 <0>         0.5418
      6 O1          6.8921    2.7432    0.2173 O.2       1 <0>        -0.5247
      7 N1          4.7739    2.0947    0.1419 N.am      1 <0>        -0.6271
      8 H1          5.0451    1.1333    0.1877 H         1 <0>         0.4263
      9 C6          3.4361    2.4269    0.0692 C.ar      1 <0>         0.2504
     10 C7          2.4606    1.4421    0.0724 C.ar      1 <0>        -0.2400
     11 C8          1.1140    1.7917    0.0010 C.ar      1 <0>         0.2652
     12 C9          0.7573    3.1372   -0.0912 C.ar      1 <0>        -0.1777
     13 C10        -0.7594    3.2196   -0.1985 C.3       1 <0>        -0.0359
     14 H2         -1.1500    3.8564    0.5952 H         1 <0>         0.0960
     15 C11        -1.1022    3.8214   -1.5478 C.3       1 <0>        -0.1115
     16 C12        -2.4427    3.3550   -2.0847 C.3       1 <0>        -0.1207
     17 C13        -2.4085    1.8257   -2.2002 C.3       1 <0>        -0.1198
     18 C14        -2.3470    1.2537   -0.7873 C.3       1 <0>        -0.1215
     19 C15        -1.2096    1.7964    0.0169 C.3       1 <0>         0.1534
     20 H3         -1.5564    1.7667    1.0498 H         1 <0>         0.0542
     21 N2         -0.0111    0.9658    0.0074 N.pl3     1 <0>        -0.7199
     22 C16         3.6796    6.2430   -0.0623 C.3       1 <0>         0.5057
     23 F1          4.8368    7.0287   -0.0335 F         1 <0>        -0.1684
     24 F2          2.9806    6.4857   -1.2496 F         1 <0>        -0.1677
     25 F3          2.8688    6.5670    1.0308 F         1 <0>        -0.1677
     26 H4          1.4033    5.1551   -0.1541 H         1 <0>         0.1346
     27 H5          6.1342    5.1758    0.0977 H         1 <0>         0.1680
     28 H6          2.7450    0.4019    0.1304 H         1 <0>         0.1351
     29 H7         -1.1165    4.9073   -1.4554 H         1 <0>         0.0695
     30 H8         -0.3302    3.5413   -2.2644 H         1 <0>         0.0646
     31 H9         -2.6229    3.7940   -3.0660 H         1 <0>         0.0694
     32 H10        -3.2331    3.6543   -1.3964 H         1 <0>         0.0664
     33 H11        -1.5268    1.5175   -2.7620 H         1 <0>         0.0642
     34 H12        -3.3093    1.4731   -2.7024 H         1 <0>         0.0686
     35 H13        -2.2449    0.1704   -0.8521 H         1 <0>         0.0703
     36 H14        -3.2806    1.4852   -0.2746 H         1 <0>         0.0793
     37 H15         0.0021   -0.0041    0.0020 H         1 <0>         0.4181
@<TRIPOS>BOND
     1    1   12 ar
     2    1    2 ar
     3    1   26 1
     4    2    9 ar
     5    2    3 1
     6    3    4 2
     7    3   22 1
     8    4    5 1
     9    4   27 1
    10    5    6 2
    11    5    7 am
    12    7    8 1
    13    7    9 1
    14    9   10 ar
    15   10   11 ar
    16   10   28 1
    17   11   21 1
    18   11   12 ar
    19   12   13 1
    20   13   14 1
    21   13   19 1
    22   13   15 1
    23   15   16 1
    24   15   29 1
    25   15   30 1
    26   16   17 1
    27   16   31 1
    28   16   32 1
    29   17   18 1
    30   17   33 1
    31   17   34 1
    32   18   19 1
    33   18   35 1
    34   18   36 1
    35   19   20 1
    36   19   21 1
    37   21   37 1
    38   22   23 1
    39   22   24 1
    40   22   25 1
@<TRIPOS>MOLECULE
ZINC03814376
   37    40     0     0     0
SMALL
USER_CHARGES

@<TRIPOS>ATOM
      1 C1          1.7007    4.1189   -0.0901 C.ar      1 <0>         0.0007
      2 C2          3.0585    3.7822   -0.0051 C.ar      1 <0>        -0.1702
      3 C3          4.0595    4.7864    0.0082 C.2       1 <0>        -0.0566
      4 C4          5.3630    4.4199    0.0861 C.2       1 <0>        -0.1724
      5 C5          5.7157    3.0562    0.1515 C.2       1 <0>         0.5418
      6 O1          6.8921    2.7432    0.2173 O.2       1 <0>        -0.5247
      7 N1          4.7739    2.0947    0.1419 N.am      1 <0>        -0.6271
      8 H1          5.0451    1.1333    0.1877 H         1 <0>         0.4263
      9 C6          3.4361    2.4269    0.0692 C.ar      1 <0>         0.2504
     10 C7          2.4606    1.4421    0.0724 C.ar      1 <0>        -0.2400
     11 C8          1.1140    1.7917    0.0010 C.ar      1 <0>         0.2652
     12 C9          0.7573    3.1372   -0.0912 C.ar      1 <0>        -0.1777
     13 C10        -0.7594    3.2196   -0.1985 C.3       1 <0>        -0.0359
     14 H2         -1.1500    3.8564    0.5952 H         1 <0>         0.0960
     15 C11        -1.1022    3.8214   -1.5478 C.3       1 <0>        -0.1115
     16 C12        -2.4427    3.3550   -2.0847 C.3       1 <0>        -0.1207
     17 C13        -2.4085    1.8257   -2.2002 C.3       1 <0>        -0.1198
     18 C14        -2.3470    1.2537   -0.7873 C.3       1 <0>        -0.1215
     19 C15        -1.2096    1.7964    0.0169 C.3       1 <0>         0.1534
     20 H3         -1.5564    1.7667    1.0498 H         1 <0>         0.0542
     21 N2         -0.0111    0.9658    0.0074 N.pl3     1 <0>        -0.7199
     22 C16         3.6796    6.2430   -0.0623 C.3       1 <0>         0.5057
     23 F1          4.8368    7.0287   -0.0335 F         1 <0>        -0.1684
     24 F2          2.9806    6.4857   -1.2496 F         1 <0>        -0.1677
     25 F3          2.8688    6.5670    1.0308 F         1 <0>        -0.1677
     26 H4          1.4033    5.1551   -0.1541 H         1 <0>         0.1346
     27 H5          6.1342    5.1758    0.0977 H         1 <0>         0.1680
     28 H6          2.7450    0.4019    0.1304 H         1 <0>         0.1351
     29 H7         -1.1165    4.9073   -1.4554 H         1 <0>         0.0695
     30 H8         -0.3302    3.5413   -2.2644 H         1 <0>         0.0646
     31 H9         -2.6229    3.7940   -3.0660 H         1 <0>         0.0694
     32 H10        -3.2331    3.6543   -1.3964 H         1 <0>         0.0664
     33 H11        -1.5268    1.5175   -2.7620 H         1 <0>         0.0642
     34 H12        -3.3093    1.4731   -2.7024 H         1 <0>         0.0686
     35 H13        -2.2449    0.1704   -0.8521 H         1 <0>         0.0703
     36 H14        -3.2806    1.4852   -0.2746 H         1 <0>         0.0793
     37 H15         0.0021   -0.0041    0.0020 H         1 <0>         0.4181
@<TRIPOS>BOND
     1    1   12 ar
     2    1    2 ar
     3    1   26 1
     4    2    9 ar
     5    2    3 1
     6    3    4 2
     7    3   22 1
     8    4    5 1
     9    4   27 1
    10    5    6 2
    11    5    7 am
    12    7    8 1
    13    7    9 1
    14    9   10 ar
    15   10   11 ar
    16   10   28 1
    17   11   21 1
    18   11   12 ar
    19   12   13 1
    20   13   14 1
    21   13   19 1
    22   13   15 1
    23   15   16 1
    24   15   29 1
    25   15   30 1
    26   16   17 1
    27   16   31 1
    28   16   32 1
    29   17   18 1
    30   17   33 1
    31   17   34 1
    32   18   19 1
    33   18   35 1
    34   18   36 1
    35   19   20 1
    36   19   21 1
    37   21   37 1
    38   22   23 1
    39   22   24 1
    40   22   25 1
@<TRIPOS>MOLECULE
ZINC03814377
   36    38     0     0     0
SMALL
USER_CHARGES

@<TRIPOS>ATOM
      1 C1          4.7110    0.0564   -0.9502 C.3       1 <0>        -0.1488
      2 C2          3.7447   -0.6923   -0.0300 C.3       1 <0>        -0.0447
      3 H1          4.1519   -0.7116    0.9809 H         1 <0>         0.0837
      4 C3          3.5754   -2.1253   -0.5338 C.3       1 <0>        -0.1300
      5 C4          2.4495   -2.7998    0.2609 C.3       1 <0>         0.1429
      6 H2          2.6700   -2.7509    1.3272 H         1 <0>         0.0749
      7 N1          1.2034   -2.0760   -0.0230 N.pl3     1 <0>        -0.7315
      8 C5          1.2142   -0.6806   -0.0123 C.ar      1 <0>         0.2874
      9 C6          2.4184    0.0230   -0.0194 C.ar      1 <0>        -0.1583
     10 C7          2.4132    1.3903   -0.0139 C.ar      1 <0>        -0.0159
     11 C8          1.2012    2.0911    0.0018 C.ar      1 <0>        -0.1706
     12 C9          1.1799    3.5095    0.0103 C.2       1 <0>        -0.0580
     13 C10        -0.0135    4.1533    0.0252 C.2       1 <0>        -0.1723
     14 C11        -1.2182    3.4205    0.0318 C.2       1 <0>         0.5416
     15 O1         -2.2824    4.0149    0.0441 O.2       1 <0>        -0.5250
     16 N2         -1.2108    2.0743    0.0191 N.am      1 <0>        -0.6275
     17 H3         -2.0758    1.5725    0.0165 H         1 <0>         0.4260
     18 C12        -0.0167    1.3828    0.0096 C.ar      1 <0>         0.2452
     19 C13         0.0021   -0.0041    0.0020 C.ar      1 <0>        -0.2504
     20 C14         2.4681    4.2915    0.0033 C.3       1 <0>         0.5053
     21 F1          2.1824    5.6610    0.0138 F         1 <0>        -0.1684
     22 F2          3.2192    3.9631    1.1369 F         1 <0>        -0.1678
     23 F3          3.1987    3.9764   -1.1475 F         1 <0>        -0.1678
     24 C15         2.3106   -4.2604   -0.1729 C.3       1 <0>        -0.1615
     25 H4          4.3100    0.0709   -1.9636 H         1 <0>         0.0598
     26 H5          4.8338    1.0789   -0.5933 H         1 <0>         0.0602
     27 H6          5.6776   -0.4474   -0.9492 H         1 <0>         0.0624
     28 H7          4.5050   -2.6757   -0.3890 H         1 <0>         0.0828
     29 H8          3.3177   -2.1121   -1.5928 H         1 <0>         0.0742
     30 H9          0.3853   -2.5606   -0.2147 H         1 <0>         0.4058
     31 H10         3.3476    1.9318   -0.0221 H         1 <0>         0.1370
     32 H11        -0.0415    5.2329    0.0318 H         1 <0>         0.1675
     33 H12        -0.9255   -0.5572    0.0076 H         1 <0>         0.1369
     34 H13         2.1042   -4.3037   -1.2423 H         1 <0>         0.0644
     35 H14         3.2378   -4.7924    0.0400 H         1 <0>         0.0768
     36 H15         1.4909   -4.7256    0.3745 H         1 <0>         0.0635
@<TRIPOS>BOND
     1    1    2 1
     2    1   25 1
     3    1   26 1
     4    1   27 1
     5    2    3 1
     6    2    9 1
     7    2    4 1
     8    4    5 1
     9    4   28 1
    10    4   29 1
    11    5    6 1
    12    5    7 1
    13    5   24 1
    14    7    8 1
    15    7   30 1
    16    8   19 ar
    17    8    9 ar
    18    9   10 ar
    19   10   11 ar
    20   10   31 1
    21   11   18 ar
    22   11   12 1
    23   12   13 2
    24   12   20 1
    25   13   14 1
    26   13   32 1
    27   14   15 2
    28   14   16 am
    29   16   17 1
    30   16   18 1
    31   18   19 ar
    32   19   33 1
    33   20   21 1
    34   20   22 1
    35   20   23 1
    36   24   34 1
    37   24   35 1
    38   24   36 1
@<TRIPOS>MOLECULE
ZINC03814377
   36    38     0     0     0
SMALL
USER_CHARGES

@<TRIPOS>ATOM
      1 C1          4.7110    0.0564   -0.9502 C.3       1 <0>        -0.1488
      2 C2          3.7447   -0.6923   -0.0300 C.3       1 <0>        -0.0447
      3 H1          4.1519   -0.7116    0.9809 H         1 <0>         0.0837
      4 C3          3.5754   -2.1253   -0.5338 C.3       1 <0>        -0.1300
      5 C4          2.4495   -2.7998    0.2609 C.3       1 <0>         0.1429
      6 H2          2.6700   -2.7509    1.3272 H         1 <0>         0.0749
      7 N1          1.2034   -2.0760   -0.0230 N.pl3     1 <0>        -0.7315
      8 C5          1.2142   -0.6806   -0.0123 C.ar      1 <0>         0.2874
      9 C6          2.4184    0.0230   -0.0194 C.ar      1 <0>        -0.1583
     10 C7          2.4132    1.3903   -0.0139 C.ar      1 <0>        -0.0159
     11 C8          1.2012    2.0911    0.0018 C.ar      1 <0>        -0.1706
     12 C9          1.1799    3.5095    0.0103 C.2       1 <0>        -0.0580
     13 C10        -0.0135    4.1533    0.0252 C.2       1 <0>        -0.1723
     14 C11        -1.2182    3.4205    0.0318 C.2       1 <0>         0.5416
     15 O1         -2.2824    4.0149    0.0441 O.2       1 <0>        -0.5250
     16 N2         -1.2108    2.0743    0.0191 N.am      1 <0>        -0.6275
     17 H3         -2.0758    1.5725    0.0165 H         1 <0>         0.4260
     18 C12        -0.0167    1.3828    0.0096 C.ar      1 <0>         0.2452
     19 C13         0.0021   -0.0041    0.0020 C.ar      1 <0>        -0.2504
     20 C14         2.4681    4.2915    0.0033 C.3       1 <0>         0.5053
     21 F1          2.1824    5.6610    0.0138 F         1 <0>        -0.1684
     22 F2          3.2192    3.9631    1.1369 F         1 <0>        -0.1678
     23 F3          3.1987    3.9764   -1.1475 F         1 <0>        -0.1678
     24 C15         2.3106   -4.2604   -0.1729 C.3       1 <0>        -0.1615
     25 H4          4.3100    0.0709   -1.9636 H         1 <0>         0.0598
     26 H5          4.8338    1.0789   -0.5933 H         1 <0>         0.0602
     27 H6          5.6776   -0.4474   -0.9492 H         1 <0>         0.0624
     28 H7          4.5050   -2.6757   -0.3890 H         1 <0>         0.0828
     29 H8          3.3177   -2.1121   -1.5928 H         1 <0>         0.0742
     30 H9          0.3853   -2.5606   -0.2147 H         1 <0>         0.4058
     31 H10         3.3476    1.9318   -0.0221 H         1 <0>         0.1370
     32 H11        -0.0415    5.2329    0.0318 H         1 <0>         0.1675
     33 H12        -0.9255   -0.5572    0.0076 H         1 <0>         0.1369
     34 H13         2.1042   -4.3037   -1.2423 H         1 <0>         0.0644
     35 H14         3.2378   -4.7924    0.0400 H         1 <0>         0.0768
     36 H15         1.4909   -4.7256    0.3745 H         1 <0>         0.0635
@<TRIPOS>BOND
     1    1    2 1
     2    1   25 1
     3    1   26 1
     4    1   27 1
     5    2    3 1
     6    2    9 1
     7    2    4 1
     8    4    5 1
     9    4   28 1
    10    4   29 1
    11    5    6 1
    12    5    7 1
    13    5   24 1
    14    7    8 1
    15    7   30 1
    16    8   19 ar
    17    8    9 ar
    18    9   10 ar
    19   10   11 ar
    20   10   31 1
    21   11   18 ar
    22   11   12 1
    23   12   13 2
    24   12   20 1
    25   13   14 1
    26   13   32 1
    27   14   15 2
    28   14   16 am
    29   16   17 1
    30   16   18 1
    31   18   19 ar
    32   19   33 1
    33   20   21 1
    34   20   22 1
    35   20   23 1
    36   24   34 1
    37   24   35 1
    38   24   36 1
@<TRIPOS>MOLECULE
ZINC03814378
   34    36     0     0     0
SMALL
USER_CHARGES

@<TRIPOS>ATOM
      1 C1          6.0690    2.4358    1.9202 C.3       1 <0>        -0.1465
      2 C2          5.8575    2.4411    0.4049 C.3       1 <0>        -0.0885
      3 H1          6.8138    2.4577   -0.1179 H         1 <0>         0.0887
      4 C3          5.0133    1.2267   -0.0350 C.3       1 <0>        -0.0854
      5 C4          3.5791    1.7136   -0.0209 C.ar      1 <0>        -0.0289
      6 C5          2.3986    0.9958   -0.0138 C.ar      1 <0>        -0.1501
      7 C6          1.1793    1.6615   -0.0003 C.ar      1 <0>         0.1958
      8 C7          1.1625    3.0692    0.0062 C.ar      1 <0>        -0.1142
      9 C8          2.3669    3.7771   -0.0024 C.ar      1 <0>        -0.0451
     10 C9          3.5583    3.1023   -0.0154 C.ar      1 <0>        -0.1082
     11 C10         4.9768    3.6329   -0.0256 C.3       1 <0>        -0.0485
     12 H2          5.2500    3.9623   -1.0281 H         1 <0>         0.0908
     13 C11         5.1196    4.7855    0.9704 C.3       1 <0>        -0.1492
     14 C12        -0.1264    3.7635    0.0223 C.2       1 <0>        -0.0811
     15 C13        -1.2615    3.0219    0.0300 C.2       1 <0>        -0.1393
     16 C14        -1.1899    1.6124    0.0165 C.2       1 <0>         0.5388
     17 O1         -2.2226    0.9650    0.0183 O.2       1 <0>        -0.5191
     18 N1         -0.0111    0.9658    0.0074 N.am      1 <0>        -0.6260
     19 H3          0.0025   -0.0341    0.0062 H         1 <0>         0.4276
     20 C15        -0.1901    5.2691    0.0297 C.3       1 <0>         0.5090
     21 F1         -1.5275    5.6792    0.0450 F         1 <0>        -0.1674
     22 F2          0.4606    5.7578    1.1676 F         1 <0>        -0.1662
     23 F3          0.4375    5.7680   -1.1168 F         1 <0>        -0.1663
     24 H4          6.6114    1.5352    2.2081 H         1 <0>         0.0574
     25 H5          6.6447    3.3149    2.2098 H         1 <0>         0.0630
     26 H6          5.1017    2.4534    2.4221 H         1 <0>         0.0571
     27 H7          5.1401    0.4035    0.6682 H         1 <0>         0.0846
     28 H8          5.2959    0.9119   -1.0396 H         1 <0>         0.0906
     29 H9          2.4238   -0.0839   -0.0182 H         1 <0>         0.1387
     30 H10         2.3583    4.8571    0.0016 H         1 <0>         0.1329
     31 H11         4.8544    4.4378    1.9689 H         1 <0>         0.0640
     32 H12         6.1504    5.1397    0.9708 H         1 <0>         0.0625
     33 H13         4.4556    5.6000    0.6811 H         1 <0>         0.0560
     34 H14        -2.2241    3.5116    0.0425 H         1 <0>         0.1726
@<TRIPOS>BOND
     1    1    2 1
     2    1   24 1
     3    1   25 1
     4    1   26 1
     5    2    3 1
     6    2   11 1
     7    2    4 1
     8    4    5 1
     9    4   27 1
    10    4   28 1
    11    5   10 ar
    12    5    6 ar
    13    6    7 ar
    14    6   29 1
    15    7   18 1
    16    7    8 ar
    17    8    9 ar
    18    8   14 1
    19    9   10 ar
    20    9   30 1
    21   10   11 1
    22   11   12 1
    23   11   13 1
    24   13   31 1
    25   13   32 1
    26   13   33 1
    27   14   15 2
    28   14   20 1
    29   15   16 1
    30   15   34 1
    31   16   17 2
    32   16   18 am
    33   18   19 1
    34   20   21 1
    35   20   22 1
    36   20   23 1
@<TRIPOS>MOLECULE
ZINC03814379
   46    49     0     0     0
SMALL
USER_CHARGES

@<TRIPOS>ATOM
      1 C1         -0.9002    3.1063    1.1676 C.3       1 <0>        -0.1352
      2 C2         -0.7446    1.5859    1.2388 C.3       1 <0>        -0.0595
      3 C3          0.0203    1.0901    0.0265 C.3       1 <0>        -0.1010
      4 C4         -0.7128    1.6125   -1.2191 C.3       1 <0>        -0.1176
      5 C5         -2.1691    1.1581   -1.2496 C.3       1 <0>        -0.0704
      6 H1         -2.2002    0.0749   -1.3679 H         1 <0>         0.0726
      7 C6         -2.9128    1.5415    0.0378 C.3       1 <0>        -0.0754
      8 H2         -2.9478    2.6263    0.1390 H         1 <0>         0.0858
      9 C7         -2.1518    0.9359    1.2034 C.3       1 <0>        -0.0829
     10 H3         -2.0650   -0.1436    1.0792 H         1 <0>         0.0753
     11 C8         -2.6928    1.2710    2.5978 C.3       1 <0>        -0.1135
     12 C9         -1.4565    1.0531    3.5121 C.3       1 <0>        -0.1569
     13 C10        -0.2098    1.2196    2.6079 C.3       1 <0>         0.1119
     14 H4          0.3385    0.2797    2.5439 H         1 <0>         0.0549
     15 O1          0.6369    2.2520    3.1172 O.3       1 <0>        -0.5598
     16 C11        -4.3294    0.9619   -0.0117 C.3       1 <0>        -0.1130
     17 C12        -5.1061    1.6288   -1.1492 C.3       1 <0>        -0.0987
     18 C13        -4.3273    1.4526   -2.4401 C.2       1 <0>        -0.0216
     19 C14        -4.9889    1.0042   -3.5066 C.2       1 <0>        -0.2454
     20 C15        -4.3004    0.8657   -4.7808 C.2       1 <0>         0.3863
     21 O2         -4.7256    0.1358   -5.6517 O.2       1 <0>        -0.4586
     22 C16        -3.0214    1.6604   -4.9587 C.3       1 <0>        -0.1594
     23 C17        -2.1557    1.4157   -3.7235 C.3       1 <0>        -0.1109
     24 C18        -2.8741    1.8107   -2.4453 C.3       1 <0>        -0.0610
     25 H5         -2.7830    2.8918   -2.3401 H         1 <0>         0.0913
     26 H6         -1.3917    3.3779    0.2334 H         1 <0>         0.0585
     27 H7         -1.5030    3.4496    2.0084 H         1 <0>         0.0543
     28 H8          0.0832    3.5746    1.2103 H         1 <0>         0.0597
     29 H9          0.0366    0.0002    0.0180 H         1 <0>         0.0631
     30 H10         1.0393    1.4763    0.0469 H         1 <0>         0.0679
     31 H11        -0.6804    2.7020   -1.2197 H         1 <0>         0.0699
     32 H12        -0.2072    1.2416   -2.1107 H         1 <0>         0.0663
     33 H13        -3.0279    2.3072    2.6427 H         1 <0>         0.0709
     34 H14        -3.4998    0.5914    2.8719 H         1 <0>         0.0667
     35 H15        -1.4437    1.7980    4.3078 H         1 <0>         0.0727
     36 H16        -1.4784    0.0501    3.9382 H         1 <0>         0.0674
     37 H17         0.9806    2.0771    4.0040 H         1 <0>         0.3760
     38 H18        -4.2774   -0.1126   -0.1873 H         1 <0>         0.0660
     39 H19        -4.8345    1.1530    0.9351 H         1 <0>         0.0719
     40 H20        -6.0857    1.1608   -1.2464 H         1 <0>         0.0777
     41 H21        -5.2256    2.6911   -0.9365 H         1 <0>         0.0845
     42 H22        -6.0401    0.7685   -3.4302 H         1 <0>         0.1345
     43 H23        -3.2422    2.6315   -5.0491 H         1 <0>         0.0897
     44 H24        -2.4963    1.3222   -5.8520 H         1 <0>         0.0919
     45 H25        -1.2392    1.9992   -3.8108 H         1 <0>         0.0828
     46 H26        -1.8983    0.3577   -3.6740 H         1 <0>         0.0700
@<TRIPOS>BOND
     1    1    2 1
     2    1   26 1
     3    1   27 1
     4    1   28 1
     5    2    9 1
     6    2   13 1
     7    2    3 1
     8    3    4 1
     9    3   29 1
    10    3   30 1
    11    4    5 1
    12    4   31 1
    13    4   32 1
    14    5    6 1
    15    5   24 1
    16    5    7 1
    17    7    8 1
    18    7    9 1
    19    7   16 1
    20    9   10 1
    21    9   11 1
    22   11   12 1
    23   11   33 1
    24   11   34 1
    25   12   13 1
    26   12   35 1
    27   12   36 1
    28   13   14 1
    29   13   15 1
    30   15   37 1
    31   16   17 1
    32   16   38 1
    33   16   39 1
    34   17   18 1
    35   17   40 1
    36   17   41 1
    37   18   24 1
    38   18   19 2
    39   19   20 1
    40   19   42 1
    41   20   21 2
    42   20   22 1
    43   22   23 1
    44   22   43 1
    45   22   44 1
    46   23   24 1
    47   23   45 1
    48   23   46 1
    49   24   25 1
@<TRIPOS>MOLECULE
ZINC03814380
   53    56     0     0     0
SMALL
USER_CHARGES

@<TRIPOS>ATOM
      1 C1         -4.4346    4.2558    2.7402 C.3       1 <0>        -0.1276
      2 C2         -3.0485    4.1129    2.1664 C.2       1 <0>        -0.1526
      3 C3         -2.7671    3.1063    1.3767 C.2       1 <0>        -0.1834
      4 C4         -1.3848    2.9638    0.8045 C.3       1 <0>         0.1761
      5 C5         -0.7645    1.6207    1.2424 C.3       1 <0>        -0.1479
      6 C6         -0.0127    1.0857    0.0080 C.3       1 <0>        -0.1190
      7 C7         -0.8024    1.6415   -1.2060 C.3       1 <0>        -0.0687
      8 H1         -0.1110    1.8064   -2.0622 H         1 <0>         0.0802
      9 C8         -1.3536    2.9853   -0.7220 C.3       1 <0>        -0.0294
     10 C9         -2.6238    3.4423   -1.3891 C.3       1 <0>        -0.1002
     11 C10        -3.6334    2.3313   -1.6556 C.3       1 <0>        -0.1182
     12 C11        -2.9298    1.2519   -2.4805 C.3       1 <0>        -0.0711
     13 H2         -2.4473    1.7161   -3.3450 H         1 <0>         0.0798
     14 C12        -1.8585    0.6150   -1.5962 C.3       1 <0>        -0.0716
     15 H3         -1.3691   -0.1789   -2.1834 H         1 <0>         0.0699
     16 C13        -2.4962   -0.0266   -0.3678 C.3       1 <0>        -0.1205
     17 C14        -3.4526   -1.1410   -0.8024 C.3       1 <0>        -0.1013
     18 C15        -4.4493   -0.5790   -1.7977 C.2       1 <0>        -0.0175
     19 C16        -5.7444   -0.7761   -1.5682 C.2       1 <0>        -0.2469
     20 C17        -6.7461   -0.3122   -2.5315 C.2       1 <0>         0.3874
     21 O1         -7.9141   -0.1854   -2.2207 O.2       1 <0>        -0.4603
     22 C18        -6.2584    0.0044   -3.9287 C.3       1 <0>        -0.1579
     23 C19        -4.9928    0.8489   -3.8219 C.3       1 <0>        -0.1140
     24 C20        -3.9237    0.1968   -2.9673 C.3       1 <0>        -0.0571
     25 H4         -3.3743   -0.5041   -3.6024 H         1 <0>         0.0887
     26 C21        -0.2817    4.0457   -1.1056 C.3       1 <0>        -0.1312
     27 O2         -0.5637    4.0353    1.3057 O.3       1 <0>        -0.5556
     28 H5         -4.4780    5.1458    3.3681 H         1 <0>         0.0614
     29 H6         -5.1561    4.3483    1.9285 H         1 <0>         0.0649
     30 H7         -4.6723    3.3767    3.3392 H         1 <0>         0.0646
     31 H8         -2.2871    4.8403    2.4063 H         1 <0>         0.1147
     32 H9         -3.5284    2.3789    1.1368 H         1 <0>         0.1146
     33 H10        -1.5418    0.9294    1.5564 H         1 <0>         0.0781
     34 H11        -0.0644    1.7866    2.0641 H         1 <0>         0.0681
     35 H12         0.0021   -0.0041    0.0020 H         1 <0>         0.0718
     36 H13         1.0156    1.4609    0.0002 H         1 <0>         0.0649
     37 H14        -2.3412    3.8676   -2.3711 H         1 <0>         0.0573
     38 H15        -3.0908    4.2546   -0.8409 H         1 <0>         0.0671
     39 H16        -4.4711    2.7472   -2.2216 H         1 <0>         0.0647
     40 H17        -4.0098    1.9139   -0.7268 H         1 <0>         0.0696
     41 H18        -1.7223   -0.4691    0.2652 H         1 <0>         0.0758
     42 H19        -3.0495    0.7111    0.2073 H         1 <0>         0.0736
     43 H20        -2.8828   -1.9441   -1.2720 H         1 <0>         0.0831
     44 H21        -3.9799   -1.5297    0.0680 H         1 <0>         0.0768
     45 H22        -6.0614   -1.2786   -0.6647 H         1 <0>         0.1316
     46 H23        -6.9653    0.5119   -4.4215 H         1 <0>         0.0825
     47 H24        -6.0414   -0.9228   -4.4629 H         1 <0>         0.0985
     48 H25        -5.2541    1.8225   -3.4129 H         1 <0>         0.0757
     49 H26        -4.5888    0.9992   -4.8290 H         1 <0>         0.0792
     50 H27        -0.1384    4.0430   -2.1862 H         1 <0>         0.0447
     51 H28        -0.6162    5.0326   -0.7859 H         1 <0>         0.0578
     52 H29         0.6605    3.8043   -0.6136 H         1 <0>         0.0593
     53 H30        -0.5321    4.0882    2.2707 H         1 <0>         0.3691
@<TRIPOS>BOND
     1    1    2 1
     2    1   28 1
     3    1   29 1
     4    1   30 1
     5    2    3 2
     6    2   31 1
     7    3    4 1
     8    3   32 1
     9    4    9 1
    10    4    5 1
    11    4   27 1
    12    5    6 1
    13    5   33 1
    14    5   34 1
    15    6    7 1
    16    6   35 1
    17    6   36 1
    18    7    8 1
    19    7   14 1
    20    7    9 1
    21    9   10 1
    22    9   26 1
    23   10   11 1
    24   10   37 1
    25   10   38 1
    26   11   12 1
    27   11   39 1
    28   11   40 1
    29   12   13 1
    30   12   24 1
    31   12   14 1
    32   14   15 1
    33   14   16 1
    34   16   17 1
    35   16   41 1
    36   16   42 1
    37   17   18 1
    38   17   43 1
    39   17   44 1
    40   18   24 1
    41   18   19 2
    42   19   20 1
    43   19   45 1
    44   20   21 2
    45   20   22 1
    46   22   23 1
    47   22   46 1
    48   22   47 1
    49   23   24 1
    50   23   48 1
    51   23   49 1
    52   24   25 1
    53   26   50 1
    54   26   51 1
    55   26   52 1
    56   27   53 1
@<TRIPOS>MOLECULE
ZINC03814381
   36    38     0     0     0
SMALL
USER_CHARGES

@<TRIPOS>ATOM
      1 C1         -0.0187    1.5258    0.0104 C.3       1 <0>        -0.1558
      2 C2          0.0021   -0.0041    0.0020 C.3       1 <0>        -0.1322
      3 C3         -1.4333   -0.5336    0.0129 C.3       1 <0>         0.1468
      4 H1         -1.9950   -0.0941   -0.8113 H         1 <0>         0.0758
      5 C4         -1.4243   -2.0620   -0.1212 C.3       1 <0>        -0.1352
      6 C5         -2.8678   -2.5601   -0.1839 C.3       1 <0>        -0.0744
      7 C6         -3.6697   -1.9980    0.9616 C.ar      1 <0>        -0.1629
      8 C7         -4.8251   -2.6335    1.3245 C.ar      1 <0>        -0.0151
      9 C8         -5.5986   -2.1411    2.3822 C.ar      1 <0>        -0.1704
     10 C9         -6.7996   -2.7891    2.7699 C.2       1 <0>        -0.0580
     11 C10        -7.5226   -2.2819    3.7989 C.2       1 <0>        -0.1723
     12 C11        -7.0848   -1.1246    4.4750 C.2       1 <0>         0.5415
     13 O1         -7.7464   -0.6824    5.3985 O.2       1 <0>        -0.5250
     14 N1         -5.9470   -0.5007    4.1163 N.am      1 <0>        -0.6276
     15 H2         -5.6534    0.3191    4.6080 H         1 <0>         0.4260
     16 C12        -5.1836   -0.9857    3.0742 C.ar      1 <0>         0.2451
     17 C13        -4.0099   -0.3510    2.6969 C.ar      1 <0>        -0.2502
     18 C14        -3.2559   -0.8558    1.6457 C.ar      1 <0>         0.2872
     19 N2         -2.0774   -0.1988    1.2897 N.pl3     1 <0>        -0.7296
     20 C15        -7.2664   -4.0260    2.0466 C.3       1 <0>         0.5056
     21 F1         -8.4657   -4.4722    2.6121 F         1 <0>        -0.1685
     22 F2         -7.4709   -3.7268    0.6953 F         1 <0>        -0.1678
     23 F3         -6.2961   -5.0273    2.1608 F         1 <0>        -0.1678
     24 H3          1.0039    1.9031    0.0027 H         1 <0>         0.0604
     25 H4         -0.5459    1.8868   -0.8726 H         1 <0>         0.0584
     26 H5         -0.5289    1.8773    0.9072 H         1 <0>         0.0527
     27 H6          0.5123   -0.3556   -0.8948 H         1 <0>         0.0822
     28 H7          0.5293   -0.3651    0.8851 H         1 <0>         0.0713
     29 H8         -0.9001   -2.3455   -1.0339 H         1 <0>         0.0830
     30 H9         -0.9234   -2.5014    0.7414 H         1 <0>         0.0734
     31 H10        -3.3167   -2.2461   -1.1262 H         1 <0>         0.0778
     32 H11        -2.8763   -3.6485   -0.1258 H         1 <0>         0.0815
     33 H12        -5.1416   -3.5190    0.7935 H         1 <0>         0.1345
     34 H13        -8.4384   -2.7672    4.1025 H         1 <0>         0.1675
     35 H14        -3.6822    0.5350    3.2204 H         1 <0>         0.1365
     36 H15        -1.6891    0.4685    1.8770 H         1 <0>         0.4054
@<TRIPOS>BOND
     1    1    2 1
     2    1   24 1
     3    1   25 1
     4    1   26 1
     5    2    3 1
     6    2   27 1
     7    2   28 1
     8    3    4 1
     9    3   19 1
    10    3    5 1
    11    5    6 1
    12    5   29 1
    13    5   30 1
    14    6    7 1
    15    6   31 1
    16    6   32 1
    17    7   18 ar
    18    7    8 ar
    19    8    9 ar
    20    8   33 1
    21    9   16 ar
    22    9   10 1
    23   10   11 2
    24   10   20 1
    25   11   12 1
    26   11   34 1
    27   12   13 2
    28   12   14 am
    29   14   15 1
    30   14   16 1
    31   16   17 ar
    32   17   18 ar
    33   17   35 1
    34   18   19 1
    35   19   36 1
    36   20   21 1
    37   20   22 1
    38   20   23 1
@<TRIPOS>MOLECULE
ZINC03814382
   67    71     0     0     0
SMALL
USER_CHARGES

@<TRIPOS>ATOM
      1 C1         -3.9266    4.9070    0.4656 C.3       1 <0>        -0.0445
      2 C2         -3.0447    3.7547    0.2180 C.1       1 <0>        -0.1659
      3 C3         -2.3414    2.8357    0.0206 C.1       1 <0>        -0.2078
      4 C4         -1.4595    1.6834   -0.2270 C.3       1 <0>         0.2574
      5 C5         -1.0022    1.6669   -1.7057 C.3       1 <0>        -0.1448
      6 C6          0.5749    1.7048   -1.6926 C.3       1 <0>        -0.1128
      7 C7          0.8928    1.1375   -0.3026 C.3       1 <0>        -0.0799
      8 H1          0.7732    0.0541   -0.2950 H         1 <0>         0.0858
      9 C8         -0.1785    1.8122    0.5942 C.3       1 <0>        -0.0364
     10 C9         -0.1920    1.0680    1.9178 C.3       1 <0>        -0.0872
     11 C10         1.1459    1.3575    2.6161 C.3       1 <0>        -0.0231
     12 H2          1.2323    0.7270    3.5011 H         1 <0>         0.0991
     13 C11         2.3101    1.0755    1.6872 C.2       1 <0>        -0.0434
     14 C12         3.3681    0.4494    2.1991 C.2       1 <0>        -0.1317
     15 C13         3.3740    0.0089    3.6451 C.3       1 <0>        -0.0813
     16 C14         3.9930   -1.3895    3.7291 C.3       1 <0>        -0.1568
     17 C15         5.3094   -1.4123    3.0000 C.2       1 <0>         0.3865
     18 O1          6.2224   -2.0824    3.4391 O.2       1 <0>        -0.4714
     19 C16         5.5020   -0.6726    1.8205 C.2       1 <0>        -0.2501
     20 C17         4.5616    0.1978    1.3919 C.2       1 <0>         0.0290
     21 C18         4.7048    0.9412    0.0874 C.3       1 <0>        -0.0963
     22 C19         3.3478    0.9167   -0.6149 C.3       1 <0>        -0.1116
     23 C20         2.2575    1.5272    0.2494 C.3       1 <0>        -0.0488
     24 H3          2.3520    2.6128    0.2249 H         1 <0>         0.0956
     25 C21         1.1835    2.8051    3.0331 C.ar      1 <0>        -0.1129
     26 C22         2.3368    3.5459    2.8502 C.ar      1 <0>        -0.0759
     27 C23         2.3729    4.8744    3.2259 C.ar      1 <0>        -0.1940
     28 C24         1.2527    5.4632    3.7987 C.ar      1 <0>         0.2116
     29 C25         0.0977    4.7146    3.9862 C.ar      1 <0>        -0.1935
     30 C26         0.0666    3.3882    3.6030 C.ar      1 <0>        -0.0671
     31 N1          1.2877    6.8048    4.1856 N.pl3     1 <0>        -0.6390
     32 C27         0.1055    7.4240    4.7899 C.3       1 <0>         0.0932
     33 C28         2.5067    7.5928    3.9870 C.3       1 <0>         0.0930
     34 C29         0.1723    3.2862    0.8070 C.3       1 <0>        -0.1575
     35 O2         -2.1335    0.4654    0.0958 O.3       1 <0>        -0.5420
     36 H4         -4.8360    4.8023   -0.1261 H         1 <0>         0.0806
     37 H5         -4.1843    4.9465    1.5240 H         1 <0>         0.0809
     38 H6         -3.4125    5.8255    0.1823 H         1 <0>         0.0807
     39 H7         -1.3460    0.7547   -2.1934 H         1 <0>         0.0798
     40 H8         -1.3933    2.5400   -2.2280 H         1 <0>         0.0714
     41 H9          0.9362    2.7292   -1.7825 H         1 <0>         0.0714
     42 H10         1.0018    1.0746   -2.4728 H         1 <0>         0.0745
     43 H11        -0.2940   -0.0027    1.7405 H         1 <0>         0.0774
     44 H12        -1.0172    1.4232    2.5350 H         1 <0>         0.0715
     45 H13         3.9654    0.7068    4.2377 H         1 <0>         0.0807
     46 H14         2.3521   -0.0176    4.0235 H         1 <0>         0.0936
     47 H15         4.1434   -1.6304    4.6879 H         1 <0>         0.0844
     48 H16         3.3163   -2.1128    3.2742 H         1 <0>         0.0992
     49 H17         6.4106   -0.8015    1.2509 H         1 <0>         0.1340
     50 H18         5.4524    0.4514   -0.5366 H         1 <0>         0.0852
     51 H19         5.0025    1.9720    0.2797 H         1 <0>         0.0883
     52 H20         3.0842   -0.1160   -0.8431 H         1 <0>         0.0694
     53 H21         3.4193    1.4782   -1.5464 H         1 <0>         0.0770
     54 H22         3.2089    3.0862    2.4092 H         1 <0>         0.1209
     55 H23         3.2725    5.4536    3.0788 H         1 <0>         0.1195
     56 H24        -0.7749    5.1692    4.4315 H         1 <0>         0.1195
     57 H25        -0.8310    2.8055    3.7488 H         1 <0>         0.1203
     58 H26         0.1436    7.3001    5.8722 H         1 <0>         0.0477
     59 H27         0.0871    8.4863    4.5463 H         1 <0>         0.0655
     60 H28        -0.7937    6.9464    4.4009 H         1 <0>         0.0681
     61 H29         2.4777    8.0658    3.0054 H         1 <0>         0.0474
     62 H30         2.5729    8.3603    4.7583 H         1 <0>         0.0657
     63 H31         3.3764    6.9388    4.0497 H         1 <0>         0.0684
     64 H32         0.0251    3.8329   -0.1244 H         1 <0>         0.0435
     65 H33        -0.4721    3.7051    1.5799 H         1 <0>         0.0689
     66 H34         1.2138    3.3707    1.1172 H         1 <0>         0.0903
     67 H35        -2.9551    0.3284   -0.3953 H         1 <0>         0.3785
@<TRIPOS>BOND
     1    1    2 1
     2    1   36 1
     3    1   37 1
     4    1   38 1
     5    2    3 3
     6    3    4 1
     7    4    9 1
     8    4    5 1
     9    4   35 1
    10    5    6 1
    11    5   39 1
    12    5   40 1
    13    6    7 1
    14    6   41 1
    15    6   42 1
    16    7    8 1
    17    7   23 1
    18    7    9 1
    19    9   10 1
    20    9   34 1
    21   10   11 1
    22   10   43 1
    23   10   44 1
    24   11   12 1
    25   11   13 1
    26   11   25 1
    27   13   23 1
    28   13   14 2
    29   14   20 1
    30   14   15 1
    31   15   16 1
    32   15   45 1
    33   15   46 1
    34   16   17 1
    35   16   47 1
    36   16   48 1
    37   17   18 2
    38   17   19 1
    39   19   20 2
    40   19   49 1
    41   20   21 1
    42   21   22 1
    43   21   50 1
    44   21   51 1
    45   22   23 1
    46   22   52 1
    47   22   53 1
    48   23   24 1
    49   25   30 ar
    50   25   26 ar
    51   26   27 ar
    52   26   54 1
    53   27   28 ar
    54   27   55 1
    55   28   29 ar
    56   28   31 1
    57   29   30 ar
    58   29   56 1
    59   30   57 1
    60   31   32 1
    61   31   33 1
    62   32   58 1
    63   32   59 1
    64   32   60 1
    65   33   61 1
    66   33   62 1
    67   33   63 1
    68   34   64 1
    69   34   65 1
    70   34   66 1
    71   35   67 1
@<TRIPOS>MOLECULE
ZINC03814383
   53    56     0     0     0
SMALL
USER_CHARGES

@<TRIPOS>ATOM
      1 C1         -2.2176    2.2641    1.2286 C.3       1 <0>        -0.1982
      2 C2         -0.7281    2.0356    1.2402 C.2       1 <0>         0.3622
      3 O1         -0.0910    2.2576    2.2418 O.2       1 <0>        -0.4541
      4 C3         -0.0337    1.5299    0.0020 C.3       1 <0>        -0.1244
      5 H1         -0.4737    1.9167   -0.8084 H         1 <0>         0.0891
      6 C4          1.4696    1.9020    0.0399 C.3       1 <0>        -0.1196
      7 C5          2.2545    0.5665   -0.0714 C.3       1 <0>        -0.1143
      8 C6          1.2520   -0.3645   -0.7629 C.3       1 <0>        -0.0791
      9 H2          1.1801   -0.1401   -1.8271 H         1 <0>         0.0792
     10 C7         -0.0706    0.0058   -0.0395 C.3       1 <0>        -0.0499
     11 C8         -1.2029   -0.6226   -0.8290 C.3       1 <0>        -0.1054
     12 C9         -1.0332   -2.1469   -0.7280 C.3       1 <0>        -0.1225
     13 C10         0.3299   -2.5982   -1.2435 C.3       1 <0>        -0.0661
     14 H3          0.3863   -2.4038   -2.3145 H         1 <0>         0.0716
     15 C11         1.4785   -1.8504   -0.5509 C.3       1 <0>        -0.0788
     16 H4          1.4886   -2.0867    0.5131 H         1 <0>         0.0880
     17 C12         2.8054   -2.2675   -1.1918 C.3       1 <0>        -0.1134
     18 C13         3.0538   -3.7520   -0.9151 C.3       1 <0>        -0.0975
     19 C14         1.8581   -4.5461   -1.4089 C.2       1 <0>        -0.0168
     20 C15         2.0927   -5.6150   -2.1691 C.2       1 <0>        -0.2433
     21 C16         0.9750   -6.4391   -2.6420 C.2       1 <0>         0.3868
     22 O2          1.0826   -7.1687   -3.6054 O.2       1 <0>        -0.4573
     23 C17        -0.3218   -6.3309   -1.8640 C.3       1 <0>        -0.1590
     24 C18        -0.6375   -4.8442   -1.7050 C.3       1 <0>        -0.1053
     25 C19         0.4861   -4.1046   -1.0011 C.3       1 <0>        -0.0285
     26 C20         0.3328   -4.3592    0.4998 C.3       1 <0>        -0.1509
     27 C21        -0.0603   -0.5520    1.3851 C.3       1 <0>        -0.1572
     28 H5         -2.5834    2.0320    0.3273 H         1 <0>         0.0725
     29 H6         -2.6877    1.6350    1.9845 H         1 <0>         0.0909
     30 H7         -2.4263    3.3115    1.4466 H         1 <0>         0.0917
     31 H8          1.7155    2.5516   -0.8001 H         1 <0>         0.0678
     32 H9          1.7084    2.3990    0.9802 H         1 <0>         0.0799
     33 H10         2.5137    0.1879    0.9173 H         1 <0>         0.0704
     34 H11         3.1489    0.6914   -0.6817 H         1 <0>         0.0679
     35 H12        -2.1616   -0.3266   -0.4033 H         1 <0>         0.0666
     36 H13        -1.1463   -0.3109   -1.8719 H         1 <0>         0.0679
     37 H14        -1.1365   -2.4478    0.3146 H         1 <0>         0.0750
     38 H15        -1.8135   -2.6311   -1.3153 H         1 <0>         0.0667
     39 H16         3.6167   -1.6770   -0.7662 H         1 <0>         0.0722
     40 H17         2.7582   -2.1007   -2.2679 H         1 <0>         0.0658
     41 H18         3.1792   -3.9082    0.1563 H         1 <0>         0.0843
     42 H19         3.9517   -4.0788   -1.4397 H         1 <0>         0.0775
     43 H20         3.1061   -5.8745   -2.4375 H         1 <0>         0.1336
     44 H21        -1.0515   -6.7950   -2.3662 H         1 <0>         0.0828
     45 H22        -0.2052   -6.7928   -0.8836 H         1 <0>         0.0989
     46 H23        -1.5535   -4.7353   -1.1242 H         1 <0>         0.0838
     47 H24        -0.7890   -4.4053   -2.6912 H         1 <0>         0.0691
     48 H25        -0.6520   -4.0251    0.8263 H         1 <0>         0.0694
     49 H26         0.4398   -5.4253    0.7003 H         1 <0>         0.0588
     50 H27         1.1015   -3.8086    1.0421 H         1 <0>         0.0637
     51 H28        -0.9848   -0.2737    1.8910 H         1 <0>         0.0509
     52 H29         0.0215   -1.6383    1.3494 H         1 <0>         0.0720
     53 H30         0.7899   -0.1414    1.9299 H         1 <0>         0.0646
@<TRIPOS>BOND
     1    1    2 1
     2    1   28 1
     3    1   29 1
     4    1   30 1
     5    2    3 2
     6    2    4 1
     7    4    5 1
     8    4   10 1
     9    4    6 1
    10    6    7 1
    11    6   31 1
    12    6   32 1
    13    7    8 1
    14    7   33 1
    15    7   34 1
    16    8    9 1
    17    8   15 1
    18    8   10 1
    19   10   11 1
    20   10   27 1
    21   11   12 1
    22   11   35 1
    23   11   36 1
    24   12   13 1
    25   12   37 1
    26   12   38 1
    27   13   14 1
    28   13   25 1
    29   13   15 1
    30   15   16 1
    31   15   17 1
    32   17   18 1
    33   17   39 1
    34   17   40 1
    35   18   19 1
    36   18   41 1
    37   18   42 1
    38   19   25 1
    39   19   20 2
    40   20   21 1
    41   20   43 1
    42   21   22 2
    43   21   23 1
    44   23   24 1
    45   23   44 1
    46   23   45 1
    47   24   25 1
    48   24   46 1
    49   24   47 1
    50   25   26 1
    51   26   48 1
    52   26   49 1
    53   26   50 1
    54   27   51 1
    55   27   52 1
    56   27   53 1
@<TRIPOS>MOLECULE
ZINC03814384
   42    44     0     0     0
SMALL
USER_CHARGES

@<TRIPOS>ATOM
      1 C1          0.2722   -0.2278   -2.5905 C.3       1 <0>        -0.1544
      2 C2          0.0667    1.2842   -2.4774 C.3       1 <0>        -0.1207
      3 C3         -0.9722    1.5780   -1.3932 C.3       1 <0>        -0.0396
      4 H1         -1.8871    1.0276   -1.6124 H         1 <0>         0.0854
      5 C4         -0.4269    1.1319   -0.0369 C.3       1 <0>        -0.1290
      6 C5         -1.3767    1.6175    1.0657 C.3       1 <0>         0.1468
      7 H2         -1.0285    1.2624    2.0356 H         1 <0>         0.0939
      8 N1         -1.3789    3.0859    1.0426 N.pl3     1 <0>        -0.7280
      9 C6         -1.4689    3.7449   -0.1842 C.ar      1 <0>         0.2901
     10 C7         -1.2747    3.0542   -1.3802 C.ar      1 <0>        -0.1566
     11 C8         -1.3581    3.7149   -2.5744 C.ar      1 <0>        -0.0173
     12 C9         -1.6404    5.0860   -2.6039 C.ar      1 <0>        -0.1707
     13 C10        -1.7304    5.7849   -3.8351 C.2       1 <0>        -0.0579
     14 C11        -2.0060    7.1126   -3.8236 C.2       1 <0>        -0.1729
     15 C12        -2.2006    7.7892   -2.6019 C.2       1 <0>         0.5415
     16 O1         -2.4480    8.9829   -2.6095 O.2       1 <0>        -0.5253
     17 N2         -2.1178    7.1367   -1.4272 N.am      1 <0>        -0.6275
     18 H3         -2.2591    7.6342   -0.5713 H         1 <0>         0.4258
     19 C13        -1.8391    5.7857   -1.3972 C.ar      1 <0>         0.2452
     20 C14        -1.7509    5.1041   -0.1924 C.ar      1 <0>        -0.2512
     21 C15        -1.5218    5.0607   -5.1401 C.3       1 <0>         0.5051
     22 F1         -1.6614    5.9618   -6.2010 F         1 <0>        -0.1684
     23 F2         -0.2378    4.5058   -5.1654 F         1 <0>        -0.1678
     24 F3         -2.4725    4.0420   -5.2653 F         1 <0>        -0.1679
     25 C16        -2.7901    1.0959    0.7988 C.3       1 <0>        -0.1405
     26 C17        -3.7036    1.4785    1.9650 C.3       1 <0>        -0.1512
     27 H4          0.9324   -0.4428   -3.4307 H         1 <0>         0.0566
     28 H5          0.7206   -0.6033   -1.6707 H         1 <0>         0.0561
     29 H6         -0.6900   -0.7142   -2.7506 H         1 <0>         0.0558
     30 H7         -0.2840    1.6756   -3.4323 H         1 <0>         0.0664
     31 H8          1.0111    1.7605   -2.2142 H         1 <0>         0.0666
     32 H9         -0.3612    0.0443   -0.0094 H         1 <0>         0.0836
     33 H10         0.5627    1.5617    0.1182 H         1 <0>         0.0737
     34 H11        -1.3170    3.5902    1.8689 H         1 <0>         0.4061
     35 H12        -1.2060    3.1770   -3.4985 H         1 <0>         0.1367
     36 H13        -2.0765    7.6547   -4.7550 H         1 <0>         0.1673
     37 H14        -1.9020    5.6304    0.7385 H         1 <0>         0.1363
     38 H15        -3.1722    1.5367   -0.1219 H         1 <0>         0.0702
     39 H16        -2.7640    0.0108    0.6986 H         1 <0>         0.0744
     40 H17        -3.7297    2.5636    2.0652 H         1 <0>         0.0542
     41 H18        -4.7105    1.1069    1.7748 H         1 <0>         0.0556
     42 H19        -3.3215    1.0377    2.8857 H         1 <0>         0.0535
@<TRIPOS>BOND
     1    1    2 1
     2    1   27 1
     3    1   28 1
     4    1   29 1
     5    2    3 1
     6    2   30 1
     7    2   31 1
     8    3    4 1
     9    3   10 1
    10    3    5 1
    11    5    6 1
    12    5   32 1
    13    5   33 1
    14    6    7 1
    15    6    8 1
    16    6   25 1
    17    8    9 1
    18    8   34 1
    19    9   20 ar
    20    9   10 ar
    21   10   11 ar
    22   11   12 ar
    23   11   35 1
    24   12   19 ar
    25   12   13 1
    26   13   14 2
    27   13   21 1
    28   14   15 1
    29   14   36 1
    30   15   16 2
    31   15   17 am
    32   17   18 1
    33   17   19 1
    34   19   20 ar
    35   20   37 1
    36   21   22 1
    37   21   23 1
    38   21   24 1
    39   25   26 1
    40   25   38 1
    41   25   39 1
    42   26   40 1
    43   26   41 1
    44   26   42 1
@<TRIPOS>MOLECULE
ZINC03814384
   42    44     0     0     0
SMALL
USER_CHARGES

@<TRIPOS>ATOM
      1 C1          0.2722   -0.2278   -2.5905 C.3       1 <0>        -0.1544
      2 C2          0.0667    1.2842   -2.4774 C.3       1 <0>        -0.1207
      3 C3         -0.9722    1.5780   -1.3932 C.3       1 <0>        -0.0396
      4 H1         -1.8871    1.0276   -1.6124 H         1 <0>         0.0854
      5 C4         -0.4269    1.1319   -0.0369 C.3       1 <0>        -0.1290
      6 C5         -1.3767    1.6175    1.0657 C.3       1 <0>         0.1468
      7 H2         -1.0285    1.2624    2.0356 H         1 <0>         0.0939
      8 N1         -1.3789    3.0859    1.0426 N.pl3     1 <0>        -0.7280
      9 C6         -1.4689    3.7449   -0.1842 C.ar      1 <0>         0.2901
     10 C7         -1.2747    3.0542   -1.3802 C.ar      1 <0>        -0.1566
     11 C8         -1.3581    3.7149   -2.5744 C.ar      1 <0>        -0.0173
     12 C9         -1.6404    5.0860   -2.6039 C.ar      1 <0>        -0.1707
     13 C10        -1.7304    5.7849   -3.8351 C.2       1 <0>        -0.0579
     14 C11        -2.0060    7.1126   -3.8236 C.2       1 <0>        -0.1729
     15 C12        -2.2006    7.7892   -2.6019 C.2       1 <0>         0.5415
     16 O1         -2.4480    8.9829   -2.6095 O.2       1 <0>        -0.5253
     17 N2         -2.1178    7.1367   -1.4272 N.am      1 <0>        -0.6275
     18 H3         -2.2591    7.6342   -0.5713 H         1 <0>         0.4258
     19 C13        -1.8391    5.7857   -1.3972 C.ar      1 <0>         0.2452
     20 C14        -1.7509    5.1041   -0.1924 C.ar      1 <0>        -0.2512
     21 C15        -1.5218    5.0607   -5.1401 C.3       1 <0>         0.5051
     22 F1         -1.6614    5.9618   -6.2010 F         1 <0>        -0.1684
     23 F2         -0.2378    4.5058   -5.1654 F         1 <0>        -0.1678
     24 F3         -2.4725    4.0420   -5.2653 F         1 <0>        -0.1679
     25 C16        -2.7901    1.0959    0.7988 C.3       1 <0>        -0.1405
     26 C17        -3.7036    1.4785    1.9650 C.3       1 <0>        -0.1512
     27 H4          0.9324   -0.4428   -3.4307 H         1 <0>         0.0566
     28 H5          0.7206   -0.6033   -1.6707 H         1 <0>         0.0561
     29 H6         -0.6900   -0.7142   -2.7506 H         1 <0>         0.0558
     30 H7         -0.2840    1.6756   -3.4323 H         1 <0>         0.0664
     31 H8          1.0111    1.7605   -2.2142 H         1 <0>         0.0666
     32 H9         -0.3612    0.0443   -0.0094 H         1 <0>         0.0836
     33 H10         0.5627    1.5617    0.1182 H         1 <0>         0.0737
     34 H11        -1.3170    3.5902    1.8689 H         1 <0>         0.4061
     35 H12        -1.2060    3.1770   -3.4985 H         1 <0>         0.1367
     36 H13        -2.0765    7.6547   -4.7550 H         1 <0>         0.1673
     37 H14        -1.9020    5.6304    0.7385 H         1 <0>         0.1363
     38 H15        -3.1722    1.5367   -0.1219 H         1 <0>         0.0702
     39 H16        -2.7640    0.0108    0.6986 H         1 <0>         0.0744
     40 H17        -3.7297    2.5636    2.0652 H         1 <0>         0.0542
     41 H18        -4.7105    1.1069    1.7748 H         1 <0>         0.0556
     42 H19        -3.3215    1.0377    2.8857 H         1 <0>         0.0535
@<TRIPOS>BOND
     1    1    2 1
     2    1   27 1
     3    1   28 1
     4    1   29 1
     5    2    3 1
     6    2   30 1
     7    2   31 1
     8    3    4 1
     9    3   10 1
    10    3    5 1
    11    5    6 1
    12    5   32 1
    13    5   33 1
    14    6    7 1
    15    6    8 1
    16    6   25 1
    17    8    9 1
    18    8   34 1
    19    9   20 ar
    20    9   10 ar
    21   10   11 ar
    22   11   12 ar
    23   11   35 1
    24   12   19 ar
    25   12   13 1
    26   13   14 2
    27   13   21 1
    28   14   15 1
    29   14   36 1
    30   15   16 2
    31   15   17 am
    32   17   18 1
    33   17   19 1
    34   19   20 ar
    35   20   37 1
    36   21   22 1
    37   21   23 1
    38   21   24 1
    39   25   26 1
    40   25   38 1
    41   25   39 1
    42   26   40 1
    43   26   41 1
    44   26   42 1
@<TRIPOS>MOLECULE
ZINC03814385
   30    32     0     0     0
SMALL
USER_CHARGES

@<TRIPOS>ATOM
      1 C1          1.1758   -2.0670   -0.3023 C.ar      1 <0>        -0.0156
      2 C2          1.1736   -0.6993   -0.2947 C.ar      1 <0>        -0.1625
      3 C3          0.0021   -0.0041    0.0020 C.ar      1 <0>         0.2846
      4 C4         -1.1699   -0.6889    0.2949 C.ar      1 <0>        -0.2489
      5 C5         -1.1803   -2.0755    0.2925 C.ar      1 <0>         0.2443
      6 C6          0.0049   -2.7758   -0.0092 C.ar      1 <0>        -0.1693
      7 C7         -0.0078   -4.1944   -0.0107 C.2       1 <0>        -0.0586
      8 C8         -1.1613   -4.8460    0.2787 C.2       1 <0>        -0.1713
      9 C9         -2.3335   -4.1213    0.5772 C.2       1 <0>         0.5415
     10 O1         -3.3619   -4.7229    0.8351 O.2       1 <0>        -0.5245
     11 N1         -2.3339   -2.7751    0.5821 N.am      1 <0>        -0.6276
     12 H1         -3.1753   -2.2791    0.7969 H         1 <0>         0.4262
     13 C10         1.2456   -4.9678   -0.3294 C.3       1 <0>         0.5058
     14 F1          0.9762   -6.3392   -0.2660 F         1 <0>        -0.1684
     15 F2          1.6827   -4.6376   -1.6167 F         1 <0>        -0.1678
     16 F3          2.2416   -4.6448    0.5984 F         1 <0>        -0.1677
     17 N2         -0.0168    1.3912    0.0097 N.pl3     1 <0>        -0.7364
     18 C11         1.2580    2.1205    0.0014 C.3       1 <0>         0.1158
     19 C12         2.1687    1.4616   -1.0424 C.3       1 <0>        -0.1405
     20 C13         2.4574    0.0247   -0.6090 C.3       1 <0>        -0.0749
     21 H2          2.0845   -2.6022   -0.5350 H         1 <0>         0.1348
     22 H3         -2.0725   -0.1420    0.5243 H         1 <0>         0.1373
     23 H4         -1.1824   -5.9258    0.2802 H         1 <0>         0.1678
     24 H5         -0.8592    1.8722    0.0163 H         1 <0>         0.4074
     25 H6          1.0851    3.1632   -0.2653 H         1 <0>         0.0861
     26 H7          1.7227    2.0628    0.9857 H         1 <0>         0.0672
     27 H8          3.1042    2.0165   -1.1135 H         1 <0>         0.0835
     28 H9          1.6697    1.4575   -2.0114 H         1 <0>         0.0727
     29 H10         3.0910    0.0362    0.2779 H         1 <0>         0.0781
     30 H11         2.9757   -0.4944   -1.4152 H         1 <0>         0.0810
@<TRIPOS>BOND
     1    1    6 ar
     2    1    2 ar
     3    1   21 1
     4    2   20 1
     5    2    3 ar
     6    3    4 ar
     7    3   17 1
     8    4    5 ar
     9    4   22 1
    10    5   11 1
    11    5    6 ar
    12    6    7 1
    13    7    8 2
    14    7   13 1
    15    8    9 1
    16    8   23 1
    17    9   10 2
    18    9   11 am
    19   11   12 1
    20   13   14 1
    21   13   15 1
    22   13   16 1
    23   17   18 1
    24   17   24 1
    25   18   19 1
    26   18   25 1
    27   18   26 1
    28   19   20 1
    29   19   27 1
    30   19   28 1
    31   20   29 1
    32   20   30 1
@<TRIPOS>MOLECULE
ZINC03814386
   40    42     0     0     0
SMALL
USER_CHARGES

@<TRIPOS>ATOM
      1 C1         -0.2547    3.4100   -1.6609 C.3       1 <0>        -0.1474
      2 C2         -0.8058    2.0571   -1.2058 C.3       1 <0>        -0.0838
      3 H1         -0.7886    1.3361   -2.0231 H         1 <0>         0.0895
      4 C3         -2.2328    2.2092   -0.6389 C.3       1 <0>        -0.0843
      5 C4         -2.0481    2.4293    0.8483 C.ar      1 <0>        -0.0277
      6 C5         -2.9283    2.9333    1.7864 C.ar      1 <0>        -0.1528
      7 C6         -2.5391    3.0475    3.1152 C.ar      1 <0>         0.1955
      8 C7         -1.2435    2.6449    3.4910 C.ar      1 <0>        -0.1135
      9 C8         -0.3675    2.1394    2.5273 C.ar      1 <0>        -0.0431
     10 C9         -0.7682    2.0344    1.2242 C.ar      1 <0>        -0.1021
     11 C10        -0.0187    1.5258    0.0104 C.3       1 <0>        -0.0195
     12 C11         0.0021   -0.0041    0.0020 C.3       1 <0>        -0.1379
     13 C12         1.4093    2.0752   -0.0003 C.3       1 <0>        -0.1442
     14 C13        -0.8416    2.7664    4.8937 C.2       1 <0>        -0.0828
     15 C14        -1.7353    3.2659    5.7827 C.2       1 <0>        -0.1385
     16 C15        -3.0221    3.6562    5.3540 C.2       1 <0>         0.5334
     17 O1         -3.8098    4.1033    6.1695 O.2       1 <0>        -0.5176
     18 N1         -3.4008    3.5474    4.0684 N.am      1 <0>        -0.5155
     19 C16        -4.7482    3.9667    3.6748 C.3       1 <0>         0.0612
     20 C17         0.5354    2.3463    5.3394 C.3       1 <0>         0.5093
     21 F1          0.6666    2.5631    6.7152 F         1 <0>        -0.1676
     22 F2          0.7213    0.9879    5.0615 F         1 <0>        -0.1665
     23 F3          1.4966    3.0981    4.6551 F         1 <0>        -0.1664
     24 H2          0.7928    3.2999   -1.9412 H         1 <0>         0.0643
     25 H3         -0.8253    3.7645   -2.5193 H         1 <0>         0.0574
     26 H4         -0.3392    4.1293   -0.8463 H         1 <0>         0.0565
     27 H5         -2.7291    3.0687   -1.0896 H         1 <0>         0.0844
     28 H6         -2.8096    1.3018   -0.8181 H         1 <0>         0.0899
     29 H7         -3.9199    3.2385    1.4866 H         1 <0>         0.1399
     30 H8          0.6274    1.8298    2.8116 H         1 <0>         0.1320
     31 H9          0.5400   -0.3650    0.8786 H         1 <0>         0.0592
     32 H10        -1.0203   -0.3814    0.0223 H         1 <0>         0.0578
     33 H11         0.5013   -0.3557   -0.9009 H         1 <0>         0.0636
     34 H12         1.9203    1.7411   -0.9032 H         1 <0>         0.0628
     35 H13         1.3795    3.1646    0.0185 H         1 <0>         0.0636
     36 H14         1.9451    1.7112    0.8764 H         1 <0>         0.0560
     37 H15        -1.4615    3.3653    6.8227 H         1 <0>         0.1725
     38 H16        -5.4311    3.1214    3.7598 H         1 <0>         0.0778
     39 H17        -5.0836    4.7719    4.3284 H         1 <0>         0.0968
     40 H18        -4.7323    4.3187    2.6433 H         1 <0>         0.0878
@<TRIPOS>BOND
     1    1    2 1
     2    1   24 1
     3    1   25 1
     4    1   26 1
     5    2    3 1
     6    2   11 1
     7    2    4 1
     8    4    5 1
     9    4   27 1
    10    4   28 1
    11    5   10 ar
    12    5    6 ar
    13    6    7 ar
    14    6   29 1
    15    7   18 1
    16    7    8 ar
    17    8    9 ar
    18    8   14 1
    19    9   10 ar
    20    9   30 1
    21   10   11 1
    22   11   12 1
    23   11   13 1
    24   12   31 1
    25   12   32 1
    26   12   33 1
    27   13   34 1
    28   13   35 1
    29   13   36 1
    30   14   15 2
    31   14   20 1
    32   15   16 1
    33   15   37 1
    34   16   17 2
    35   16   18 am
    36   18   19 1
    37   19   38 1
    38   19   39 1
    39   19   40 1
    40   20   21 1
    41   20   22 1
    42   20   23 1
@<TRIPOS>MOLECULE
ZINC03814387
   34    36     0     0     0
SMALL
USER_CHARGES

@<TRIPOS>ATOM
      1 C1          0.0045    8.8604    0.4550 C.3       1 <0>        -0.1455
      2 C2         -0.8273    7.5765    0.4794 C.3       1 <0>        -0.0924
      3 H1         -1.7469    7.7019   -0.0922 H         1 <0>         0.0845
      4 C3         -1.1372    7.1517    1.9301 C.3       1 <0>        -0.0788
      5 C4         -1.1182    5.6374    1.9131 C.ar      1 <0>        -0.1146
      6 C5         -1.6347    4.7412    2.8105 C.ar      1 <0>        -0.0470
      7 C6         -1.4936    3.3692    2.5880 C.ar      1 <0>        -0.1127
      8 C7         -2.0199    2.3877    3.5385 C.2       1 <0>        -0.0828
      9 C8         -1.8531    1.0696    3.2675 C.2       1 <0>        -0.1379
     10 C9         -1.1853    0.6645    2.0919 C.2       1 <0>         0.5342
     11 O1         -1.0469   -0.5254    1.8673 O.2       1 <0>        -0.5185
     12 N1         -0.6984    1.5583    1.2133 N.am      1 <0>        -0.5156
     13 C10        -0.8302    2.9130    1.4331 C.ar      1 <0>         0.1943
     14 C11        -0.3239    3.8385    0.5291 C.ar      1 <0>        -0.1488
     15 C12        -0.4683    5.1914    0.7696 C.ar      1 <0>        -0.0316
     16 C13        -0.0110    6.3793   -0.0513 C.3       1 <0>        -0.0844
     17 C14        -0.0127    1.0858    0.0080 C.3       1 <0>         0.0573
     18 C15        -2.7309    2.8325    4.7905 C.3       1 <0>         0.5096
     19 F1         -3.1321    1.7100    5.5228 F         1 <0>        -0.1675
     20 F2         -1.8655    3.6108    5.5667 F         1 <0>        -0.1664
     21 F3         -3.8552    3.5897    4.4443 F         1 <0>        -0.1663
     22 H2          0.9447    8.6942    0.9809 H         1 <0>         0.0586
     23 H3          0.2106    9.1402   -0.5781 H         1 <0>         0.0600
     24 H4         -0.5491    9.6614    0.9448 H         1 <0>         0.0610
     25 H5         -2.1210    7.5142    2.2283 H         1 <0>         0.0798
     26 H6         -0.3733    7.5318    2.6084 H         1 <0>         0.0862
     27 H7         -2.1397    5.0952    3.6971 H         1 <0>         0.1334
     28 H8         -2.2328    0.3270    3.9536 H         1 <0>         0.1728
     29 H9          0.1833    3.5002   -0.3623 H         1 <0>         0.1392
     30 H10         1.0549    6.5532    0.0965 H         1 <0>         0.0911
     31 H11        -0.2250    6.2142   -1.1073 H         1 <0>         0.0829
     32 H12         0.0021   -0.0041    0.0020 H         1 <0>         0.1059
     33 H13         1.0099    1.4631    0.0003 H         1 <0>         0.0800
     34 H14        -0.5399    1.4469   -0.8751 H         1 <0>         0.0801
@<TRIPOS>BOND
     1    1    2 1
     2    1   22 1
     3    1   23 1
     4    1   24 1
     5    2    3 1
     6    2   16 1
     7    2    4 1
     8    4    5 1
     9    4   25 1
    10    4   26 1
    11    5   15 ar
    12    5    6 ar
    13    6    7 ar
    14    6   27 1
    15    7   13 ar
    16    7    8 1
    17    8    9 2
    18    8   18 1
    19    9   10 1
    20    9   28 1
    21   10   11 2
    22   10   12 am
    23   12   13 1
    24   12   17 1
    25   13   14 ar
    26   14   15 ar
    27   14   29 1
    28   15   16 1
    29   16   30 1
    30   16   31 1
    31   17   32 1
    32   17   33 1
    33   17   34 1
    34   18   19 1
    35   18   20 1
    36   18   21 1
@<TRIPOS>MOLECULE
ZINC03814388
   45    47     0     0     0
SMALL
USER_CHARGES

@<TRIPOS>ATOM
      1 C1          1.5260    2.0751    0.2173 C.3       1 <0>        -0.1500
      2 C2          0.0862    1.5870    0.0455 C.3       1 <0>        -0.1129
      3 C3          0.0679    0.0577    0.0022 C.3       1 <0>         0.1114
      4 C4          0.8217   -0.4309   -1.2409 C.3       1 <0>        -0.1132
      5 C5          0.6061   -1.9414   -1.3583 C.3       1 <0>        -0.0802
      6 C6          0.8459   -2.5937   -0.0188 C.ar      1 <0>        -0.1396
      7 C7          1.0164   -3.9516    0.0071 C.ar      1 <0>        -0.0287
      8 C8          1.2299   -4.6153    1.2197 C.ar      1 <0>        -0.1490
      9 C9          1.4101   -6.0216    1.2619 C.2       1 <0>        -0.0665
     10 C10         1.6122   -6.6269    2.4585 C.2       1 <0>        -0.1602
     11 C11         1.6420   -5.8660    3.6453 C.2       1 <0>         0.5362
     12 O1          1.8238   -6.4260    4.7128 O.2       1 <0>        -0.5218
     13 N1          1.4733   -4.5307    3.6177 N.am      1 <0>        -0.5162
     14 C12         1.2665   -3.8773    2.4198 C.ar      1 <0>         0.2263
     15 C13         1.0954   -2.5038    2.3782 C.ar      1 <0>        -0.2192
     16 C14         0.8880   -1.8565    1.1612 C.ar      1 <0>         0.2054
     17 N2          0.7319   -0.4753    1.1929 N.pl3     1 <0>        -0.4780
     18 C15         0.0382   -0.0519    2.4166 C.3       1 <0>         0.0138
     19 C16         1.5094   -3.7664    4.8670 C.3       1 <0>         0.0591
     20 C17         1.3770   -6.8332   -0.0075 C.3       1 <0>         0.5066
     21 F1          1.5781   -8.1837    0.2972 F         1 <0>        -0.1681
     22 F2          0.1339   -6.6755   -0.6295 F         1 <0>        -0.1677
     23 F3          2.3883   -6.3938   -0.8685 F         1 <0>        -0.1671
     24 C18        -1.3792   -0.4372   -0.0434 C.3       1 <0>        -0.1834
     25 H1          1.5304    3.1583    0.3387 H         1 <0>         0.0512
     26 H2          1.9650    1.6088    1.0993 H         1 <0>         0.0661
     27 H3          2.1084    1.8059   -0.6639 H         1 <0>         0.0550
     28 H4         -0.3228    1.9817   -0.8845 H         1 <0>         0.0738
     29 H5         -0.5175    1.9339    0.8841 H         1 <0>         0.0663
     30 H6          0.4314    0.0673   -2.1283 H         1 <0>         0.0819
     31 H7          1.8853   -0.2172   -1.1349 H         1 <0>         0.0808
     32 H8          1.3012   -2.3512   -2.0910 H         1 <0>         0.0820
     33 H9         -0.4169   -2.1374   -1.6793 H         1 <0>         0.0809
     34 H10         0.9862   -4.5140   -0.9144 H         1 <0>         0.1354
     35 H11         1.7513   -7.6970    2.5027 H         1 <0>         0.1694
     36 H12         1.1227   -1.9311    3.2934 H         1 <0>         0.1443
     37 H13        -0.9394   -0.5316    2.4645 H         1 <0>         0.0490
     38 H14         0.6277   -0.3405    3.2868 H         1 <0>         0.0794
     39 H15        -0.0884    1.0307    2.4063 H         1 <0>         0.0856
     40 H16         1.6812   -4.4445    5.7030 H         1 <0>         0.1051
     41 H17         2.3153   -3.0340    4.8217 H         1 <0>         0.0794
     42 H18         0.5584   -3.2522    5.0060 H         1 <0>         0.0783
     43 H19        -1.8699   -0.0437   -0.9336 H         1 <0>         0.0714
     44 H20        -1.3898   -1.5267   -0.0742 H         1 <0>         0.0665
     45 H21        -1.9088   -0.0937    0.8452 H         1 <0>         0.0613
@<TRIPOS>BOND
     1    1    2 1
     2    1   25 1
     3    1   26 1
     4    1   27 1
     5    2    3 1
     6    2   28 1
     7    2   29 1
     8    3   17 1
     9    3    4 1
    10    3   24 1
    11    4    5 1
    12    4   30 1
    13    4   31 1
    14    5    6 1
    15    5   32 1
    16    5   33 1
    17    6   16 ar
    18    6    7 ar
    19    7    8 ar
    20    7   34 1
    21    8   14 ar
    22    8    9 1
    23    9   10 2
    24    9   20 1
    25   10   11 1
    26   10   35 1
    27   11   12 2
    28   11   13 am
    29   13   14 1
    30   13   19 1
    31   14   15 ar
    32   15   16 ar
    33   15   36 1
    34   16   17 1
    35   17   18 1
    36   18   37 1
    37   18   38 1
    38   18   39 1
    39   19   40 1
    40   19   41 1
    41   19   42 1
    42   20   21 1
    43   20   22 1
    44   20   23 1
    45   24   43 1
    46   24   44 1
    47   24   45 1
@<TRIPOS>MOLECULE
ZINC03814389
   37    39     0     0     0
SMALL
USER_CHARGES

@<TRIPOS>ATOM
      1 C1         -1.1699   -0.5590   -0.8100 C.3       1 <0>        -0.1480
      2 C2          0.0021   -0.0041    0.0020 C.3       1 <0>        -0.0886
      3 H1         -0.0129   -0.3971    1.0186 H         1 <0>         0.0841
      4 C3         -0.0188    1.5388    0.0105 C.3       1 <0>        -0.0839
      5 C4          1.4372    1.9560   -0.0012 C.ar      1 <0>        -0.0291
      6 C5          2.0145    3.1708    0.3147 C.ar      1 <0>        -0.1522
      7 C6          3.3923    3.3292    0.2322 C.ar      1 <0>         0.1953
      8 C7          4.1878    2.2419   -0.1762 C.ar      1 <0>        -0.1132
      9 C8          3.5853    1.0216   -0.4919 C.ar      1 <0>        -0.0442
     10 C9          2.2256    0.8856   -0.4034 C.ar      1 <0>        -0.1098
     11 C10         1.3476   -0.3155   -0.6863 C.3       1 <0>        -0.0486
     12 H2          1.7895   -1.2171   -0.2622 H         1 <0>         0.0848
     13 C11         1.1464   -0.4826   -2.1938 C.3       1 <0>        -0.1435
     14 C12         5.6391    2.4166   -0.2606 C.2       1 <0>        -0.0832
     15 C13         6.1657    3.6245    0.0591 C.2       1 <0>        -0.1379
     16 C14         5.3237    4.6825    0.4639 C.2       1 <0>         0.5335
     17 O1          5.8180    5.7598    0.7478 O.2       1 <0>        -0.5174
     18 N1          3.9901    4.5319    0.5438 N.am      1 <0>        -0.5155
     19 C15         3.1600    5.6622    0.9675 C.3       1 <0>         0.0611
     20 C16         6.5279    1.2791   -0.6932 C.3       1 <0>         0.5095
     21 F1          7.8614    1.7022   -0.6904 F         1 <0>        -0.1676
     22 F2          6.3770    0.2066    0.1924 F         1 <0>        -0.1664
     23 F3          6.1703    0.8725   -1.9831 F         1 <0>        -0.1664
     24 H3         -1.1162   -0.1804   -1.8308 H         1 <0>         0.0641
     25 H4         -1.1195   -1.6478   -0.8232 H         1 <0>         0.0607
     26 H5         -2.1088   -0.2442   -0.3547 H         1 <0>         0.0583
     27 H6         -0.5270    1.9149   -0.8774 H         1 <0>         0.0906
     28 H7         -0.5099    1.9053    0.9119 H         1 <0>         0.0829
     29 H8          1.3941    3.9980    0.6267 H         1 <0>         0.1402
     30 H9          4.1921    0.1851   -0.8056 H         1 <0>         0.1329
     31 H10         0.7384    0.4384   -2.6102 H         1 <0>         0.0579
     32 H11         2.1040   -0.7019   -2.6661 H         1 <0>         0.0567
     33 H12         0.4535   -1.3034   -2.3791 H         1 <0>         0.0675
     34 H13         7.2334    3.7776    0.0038 H         1 <0>         0.1727
     35 H14         3.0462    5.6432    2.0514 H         1 <0>         0.0779
     36 H15         3.6371    6.5956    0.6686 H         1 <0>         0.0969
     37 H16         2.1791    5.5889    0.4979 H         1 <0>         0.0879
@<TRIPOS>BOND
     1    1    2 1
     2    1   24 1
     3    1   25 1
     4    1   26 1
     5    2    3 1
     6    2   11 1
     7    2    4 1
     8    4    5 1
     9    4   27 1
    10    4   28 1
    11    5   10 ar
    12    5    6 ar
    13    6    7 ar
    14    6   29 1
    15    7   18 1
    16    7    8 ar
    17    8    9 ar
    18    8   14 1
    19    9   10 ar
    20    9   30 1
    21   10   11 1
    22   11   12 1
    23   11   13 1
    24   13   31 1
    25   13   32 1
    26   13   33 1
    27   14   15 2
    28   14   20 1
    29   15   16 1
    30   15   34 1
    31   16   17 2
    32   16   18 am
    33   18   19 1
    34   19   35 1
    35   19   36 1
    36   19   37 1
    37   20   21 1
    38   20   22 1
    39   20   23 1
@<TRIPOS>MOLECULE
ZINC03814390
   43    46     0     0     0
SMALL
USER_CHARGES

@<TRIPOS>ATOM
      1 C1         -6.8951   -2.8460    2.3891 C.3       1 <0>         0.0581
      2 N1         -7.1472   -1.8802    1.3167 N.am      1 <0>        -0.5146
      3 C2         -6.1552   -0.9958    0.9432 C.ar      1 <0>         0.2290
      4 C3         -4.9188   -1.0126    1.5715 C.ar      1 <0>        -0.1917
      5 C4         -3.9296   -0.1155    1.1851 C.ar      1 <0>         0.1684
      6 C5         -4.1903    0.8013    0.1606 C.ar      1 <0>        -0.1534
      7 C6         -5.3957    0.8327   -0.4660 C.ar      1 <0>        -0.0170
      8 C7         -6.4022   -0.0673   -0.0873 C.ar      1 <0>        -0.1429
      9 C8         -7.6672   -0.0569   -0.7278 C.2       1 <0>        -0.0670
     10 C9         -8.6155   -0.9425   -0.3331 C.2       1 <0>        -0.1577
     11 C10        -8.3444   -1.8608    0.7020 C.2       1 <0>         0.5356
     12 O1         -9.2079   -2.6499    1.0454 O.2       1 <0>        -0.5206
     13 C11        -7.9542    0.9256   -1.8338 C.3       1 <0>         0.5070
     14 F1         -9.2600    0.7361   -2.2988 F         1 <0>        -0.1678
     15 F2         -7.8175    2.2297   -1.3462 F         1 <0>        -0.1673
     16 F3         -7.0515    0.7232   -2.8833 F         1 <0>        -0.1668
     17 C12        -2.9307    1.6383   -0.0354 C.3       1 <0>        -0.0392
     18 H1         -3.1653    2.6902   -0.1987 H         1 <0>         0.0976
     19 C13        -2.1677    1.0429   -1.2186 C.3       1 <0>        -0.1068
     20 C14        -0.7391    1.5856   -1.2386 C.3       1 <0>        -0.1199
     21 C15        -0.0127    1.0858    0.0080 C.3       1 <0>        -0.1138
     22 C16        -0.7096    1.5683    1.2636 C.3       1 <0>        -0.1040
     23 C17        -2.1804    1.4245    1.2808 C.3       1 <0>         0.0906
     24 H2         -2.5813    2.1268    2.0117 H         1 <0>         0.0622
     25 N2         -2.6279    0.0474    1.6751 N.pl3     1 <0>        -0.4700
     26 C18        -2.5904   -0.1164    3.1345 C.3       1 <0>         0.0118
     27 H3         -7.7847   -3.4563    2.5449 H         1 <0>         0.1059
     28 H4         -6.0586   -3.4872    2.1113 H         1 <0>         0.0803
     29 H5         -6.6545   -2.3130    3.3089 H         1 <0>         0.0793
     30 H6         -4.7242   -1.7234    2.3610 H         1 <0>         0.1396
     31 H7         -5.5782    1.5490   -1.2534 H         1 <0>         0.1361
     32 H8         -9.5826   -0.9446   -0.8139 H         1 <0>         0.1706
     33 H9         -2.6709    1.3127   -2.1471 H         1 <0>         0.0670
     34 H10        -2.1417   -0.0427   -1.1238 H         1 <0>         0.0700
     35 H11        -0.7614    2.6754   -1.2372 H         1 <0>         0.0644
     36 H12        -0.2241    1.2283   -2.1304 H         1 <0>         0.0676
     37 H13         0.0021   -0.0041    0.0020 H         1 <0>         0.0653
     38 H14         1.0115    1.4586    0.0002 H         1 <0>         0.0654
     39 H15        -0.2939    1.0279    2.1140 H         1 <0>         0.0726
     40 H16        -0.4838    2.6266    1.3942 H         1 <0>         0.0706
     41 H17        -2.9383   -1.1155    3.3970 H         1 <0>         0.0785
     42 H18        -1.5684    0.0174    3.4890 H         1 <0>         0.0822
     43 H19        -3.2369    0.6274    3.6003 H         1 <0>         0.0447
@<TRIPOS>BOND
     1    1    2 1
     2    1   27 1
     3    1   28 1
     4    1   29 1
     5    2   11 am
     6    2    3 1
     7    3    8 ar
     8    3    4 ar
     9    4    5 ar
    10    4   30 1
    11    5   25 1
    12    5    6 ar
    13    6    7 ar
    14    6   17 1
    15    7    8 ar
    16    7   31 1
    17    8    9 1
    18    9   10 2
    19    9   13 1
    20   10   11 1
    21   10   32 1
    22   11   12 2
    23   13   14 1
    24   13   15 1
    25   13   16 1
    26   17   18 1
    27   17   23 1
    28   17   19 1
    29   19   20 1
    30   19   33 1
    31   19   34 1
    32   20   21 1
    33   20   35 1
    34   20   36 1
    35   21   22 1
    36   21   37 1
    37   21   38 1
    38   22   23 1
    39   22   39 1
    40   22   40 1
    41   23   24 1
    42   23   25 1
    43   25   26 1
    44   26   41 1
    45   26   42 1
    46   26   43 1
@<TRIPOS>MOLECULE
ZINC03814391
   31    33     0     0     0
SMALL
USER_CHARGES

@<TRIPOS>ATOM
      1 C1          0.1929    1.9455    2.3782 C.3       1 <0>        -0.1456
      2 C2         -0.7763    1.6040    1.2447 C.3       1 <0>        -0.0924
      3 H1         -1.5184    0.8768    1.5743 H         1 <0>         0.0848
      4 C3         -1.4607    2.8780    0.7026 C.3       1 <0>        -0.0792
      5 C4         -1.6205    2.6421   -0.7849 C.ar      1 <0>        -0.1139
      6 C5         -2.4235    3.2763   -1.6948 C.ar      1 <0>        -0.0473
      7 C6         -2.4061    2.8840   -3.0356 C.ar      1 <0>        -0.1137
      8 C7         -3.2534    3.5436   -4.0309 C.2       1 <0>        -0.0813
      9 C8         -3.1937    3.1176   -5.3168 C.2       1 <0>        -0.1389
     10 C9         -2.3304    2.0605   -5.6761 C.2       1 <0>         0.5387
     11 O1         -2.2931    1.6925   -6.8375 O.2       1 <0>        -0.5189
     12 N1         -1.5484    1.4488   -4.7694 N.am      1 <0>        -0.6259
     13 H2         -0.9484    0.7031   -5.0592 H         1 <0>         0.4278
     14 C10        -1.5618    1.8349   -3.4459 C.ar      1 <0>         0.1956
     15 C11        -0.7546    1.2046   -2.5071 C.ar      1 <0>        -0.1494
     16 C12        -0.7853    1.6074   -1.1859 C.ar      1 <0>        -0.0309
     17 C13        -0.0127    1.0858    0.0080 C.3       1 <0>        -0.0852
     18 C14        -4.1715    4.6712   -3.6350 C.3       1 <0>         0.5092
     19 F1         -4.8658    5.1247   -4.7617 F         1 <0>        -0.1673
     20 F2         -5.0837    4.2154   -2.6773 F         1 <0>        -0.1662
     21 F3         -3.4172    5.7202   -3.0985 F         1 <0>        -0.1662
     22 H3          0.9016    2.6995    2.0354 H         1 <0>         0.0588
     23 H4         -0.3661    2.3329    3.2299 H         1 <0>         0.0609
     24 H5          0.7338    1.0475    2.6767 H         1 <0>         0.0603
     25 H6         -0.8307    3.7493    0.8817 H         1 <0>         0.0862
     26 H7         -2.4356    3.0145    1.1706 H         1 <0>         0.0801
     27 H8         -3.0702    4.0804   -1.3760 H         1 <0>         0.1335
     28 H9         -3.8088    3.5893   -6.0689 H         1 <0>         0.1728
     29 H10        -0.1021    0.3992   -2.8105 H         1 <0>         0.1390
     30 H11         0.0021   -0.0041    0.0020 H         1 <0>         0.0831
     31 H12         1.0046    1.4772    0.0004 H         1 <0>         0.0913
@<TRIPOS>BOND
     1    1    2 1
     2    1   22 1
     3    1   23 1
     4    1   24 1
     5    2    3 1
     6    2   17 1
     7    2    4 1
     8    4    5 1
     9    4   25 1
    10    4   26 1
    11    5   16 ar
    12    5    6 ar
    13    6    7 ar
    14    6   27 1
    15    7   14 ar
    16    7    8 1
    17    8    9 2
    18    8   18 1
    19    9   10 1
    20    9   28 1
    21   10   11 2
    22   10   12 am
    23   12   13 1
    24   12   14 1
    25   14   15 ar
    26   15   16 ar
    27   15   29 1
    28   16   17 1
    29   17   30 1
    30   17   31 1
    31   18   19 1
    32   18   20 1
    33   18   21 1
@<TRIPOS>MOLECULE
ZINC03814392
   39    41     0     0     0
SMALL
USER_CHARGES

@<TRIPOS>ATOM
      1 C1         -3.8959    4.1435   -2.4984 C.3       1 <0>        -0.1511
      2 C2         -3.7757    2.8204   -1.7396 C.3       1 <0>        -0.1424
      3 C3         -3.6841    3.1000   -0.2382 C.3       1 <0>         0.1515
      4 H1         -4.5429    3.6909    0.0801 H         1 <0>         0.0932
      5 C4         -3.6477    1.7756    0.5356 C.3       1 <0>        -0.1038
      6 H2         -3.5134    1.9772    1.5983 H         1 <0>         0.0803
      7 C5         -2.4807    0.9345    0.0196 C.3       1 <0>        -0.0704
      8 C6         -1.2076    1.7408    0.0173 C.ar      1 <0>        -0.1608
      9 C7         -0.0126    1.0758    0.0080 C.ar      1 <0>        -0.0159
     10 C8          1.1916    1.7894    0.0003 C.ar      1 <0>        -0.1701
     11 C9          2.4389    1.1138   -0.0178 C.2       1 <0>        -0.0581
     12 C10         3.5844    1.8394   -0.0272 C.2       1 <0>        -0.1724
     13 C11         3.5352    3.2486   -0.0172 C.2       1 <0>         0.5414
     14 O1          4.5746    3.8856   -0.0259 O.2       1 <0>        -0.5251
     15 N1          2.3579    3.9012    0.0012 N.am      1 <0>        -0.6276
     16 H3          2.3439    4.9011    0.0084 H         1 <0>         0.4259
     17 C12         1.1703    3.1985    0.0102 C.ar      1 <0>         0.2447
     18 C13        -0.0478    3.8608    0.0285 C.ar      1 <0>        -0.2503
     19 C14        -1.2315    3.1348    0.0352 C.ar      1 <0>         0.2886
     20 N2         -2.4428    3.8273    0.0575 N.pl3     1 <0>        -0.7284
     21 C15         2.4902   -0.3923   -0.0277 C.3       1 <0>         0.5056
     22 F1          3.8242   -0.8134   -0.0452 F         1 <0>        -0.1686
     23 F2          1.8598   -0.8879    1.1187 F         1 <0>        -0.1678
     24 F3          1.8341   -0.8739   -1.1656 F         1 <0>        -0.1678
     25 C16        -4.9600    1.0192    0.3192 C.3       1 <0>        -0.1491
     26 H4         -3.9611    3.9443   -3.5680 H         1 <0>         0.0556
     27 H5         -4.7927    4.6697   -2.1714 H         1 <0>         0.0533
     28 H6         -3.0194    4.7592   -2.2962 H         1 <0>         0.0542
     29 H7         -2.8789    2.2942   -2.0666 H         1 <0>         0.0704
     30 H8         -4.6522    2.2047   -1.9418 H         1 <0>         0.0775
     31 H9         -2.3555    0.0610    0.6594 H         1 <0>         0.0799
     32 H10        -2.6959    0.6048   -0.9969 H         1 <0>         0.0797
     33 H11         0.0021   -0.0041    0.0020 H         1 <0>         0.1341
     34 H12         4.5394    1.3354   -0.0414 H         1 <0>         0.1674
     35 H13        -0.0759    4.9404    0.0378 H         1 <0>         0.1365
     36 H14        -2.4646    4.7746    0.2647 H         1 <0>         0.4065
     37 H15        -5.0904    0.8146   -0.7435 H         1 <0>         0.0620
     38 H16        -4.9323    0.0788    0.8696 H         1 <0>         0.0620
     39 H17        -5.7921    1.6254    0.6773 H         1 <0>         0.0596
@<TRIPOS>BOND
     1    1    2 1
     2    1   26 1
     3    1   27 1
     4    1   28 1
     5    2    3 1
     6    2   29 1
     7    2   30 1
     8    3    4 1
     9    3   20 1
    10    3    5 1
    11    5    6 1
    12    5    7 1
    13    5   25 1
    14    7    8 1
    15    7   31 1
    16    7   32 1
    17    8   19 ar
    18    8    9 ar
    19    9   10 ar
    20    9   33 1
    21   10   17 ar
    22   10   11 1
    23   11   12 2
    24   11   21 1
    25   12   13 1
    26   12   34 1
    27   13   14 2
    28   13   15 am
    29   15   16 1
    30   15   17 1
    31   17   18 ar
    32   18   19 ar
    33   18   35 1
    34   19   20 1
    35   20   36 1
    36   21   22 1
    37   21   23 1
    38   21   24 1
    39   25   37 1
    40   25   38 1
    41   25   39 1
@<TRIPOS>MOLECULE
ZINC03814393
   39    41     0     0     0
SMALL
USER_CHARGES

@<TRIPOS>ATOM
      1 C1          0.0021   -0.0041    0.0020 C.3       1 <0>        -0.1508
      2 C2         -0.0187    1.5258    0.0104 C.3       1 <0>        -0.1410
      3 C3          1.4167    2.0553   -0.0004 C.3       1 <0>         0.1519
      4 H1          1.9543    1.6467   -0.8560 H         1 <0>         0.0932
      5 C4          1.4046    3.5877   -0.0766 C.3       1 <0>        -0.1053
      6 H2          0.9554    3.9030   -1.0183 H         1 <0>         0.0884
      7 C5          0.5829    4.1334    1.0908 C.3       1 <0>        -0.0711
      8 C6          1.0541    3.5365    2.3918 C.ar      1 <0>        -0.1578
      9 C7          0.7528    4.1870    3.5566 C.ar      1 <0>        -0.0170
     10 C8          1.1639    3.6589    4.7859 C.ar      1 <0>        -0.1701
     11 C9          0.8571    4.3210    6.0026 C.2       1 <0>        -0.0580
     12 C10         1.2704    3.7775    7.1742 C.2       1 <0>        -0.1728
     13 C11         1.9967    2.5689    7.1819 C.2       1 <0>         0.5414
     14 O1          2.3600    2.0936    8.2441 O.2       1 <0>        -0.5254
     15 N1          2.2947    1.9317    6.0341 N.am      1 <0>        -0.6276
     16 H3          2.8113    1.0759    6.0604 H         1 <0>         0.4258
     17 C12         1.8915    2.4525    4.8215 C.ar      1 <0>         0.2444
     18 C13         2.1934    1.8044    3.6334 C.ar      1 <0>        -0.2510
     19 C14         1.7773    2.3449    2.4239 C.ar      1 <0>         0.2900
     20 N2          2.0974    1.6728    1.2436 N.pl3     1 <0>        -0.7255
     21 C15         0.0813    5.6130    5.9930 C.3       1 <0>         0.5055
     22 F1         -0.0911    6.0631    7.3063 F         1 <0>        -0.1686
     23 F2          0.7849    6.5740    5.2592 F         1 <0>        -0.1678
     24 F3         -1.1702    5.4011    5.4046 F         1 <0>        -0.1679
     25 C16         2.8373    4.1168    0.0135 C.3       1 <0>        -0.1452
     26 H4          0.5123   -0.3556   -0.8948 H         1 <0>         0.0533
     27 H5          0.5293   -0.3651    0.8851 H         1 <0>         0.0546
     28 H6         -1.0205   -0.3814    0.0098 H         1 <0>         0.0555
     29 H7         -0.5459    1.8868   -0.8726 H         1 <0>         0.0744
     30 H8         -0.5289    1.8773    0.9072 H         1 <0>         0.0707
     31 H9         -0.4675    3.8843    0.9396 H         1 <0>         0.0794
     32 H10         0.6941    5.2169    1.1303 H         1 <0>         0.0801
     33 H11         0.1956    5.1117    3.5276 H         1 <0>         0.1337
     34 H12         1.0417    4.2727    8.1063 H         1 <0>         0.1672
     35 H13         2.7513    0.8798    3.6488 H         1 <0>         0.1362
     36 H14         2.7592    0.9636    1.2448 H         1 <0>         0.4064
     37 H15         3.4248    3.7175   -0.8132 H         1 <0>         0.0542
     38 H16         2.8267    5.2054   -0.0407 H         1 <0>         0.0578
     39 H17         3.2812    3.8044    0.9588 H         1 <0>         0.0588
@<TRIPOS>BOND
     1    1    2 1
     2    1   26 1
     3    1   27 1
     4    1   28 1
     5    2    3 1
     6    2   29 1
     7    2   30 1
     8    3    4 1
     9    3   20 1
    10    3    5 1
    11    5    6 1
    12    5    7 1
    13    5   25 1
    14    7    8 1
    15    7   31 1
    16    7   32 1
    17    8   19 ar
    18    8    9 ar
    19    9   10 ar
    20    9   33 1
    21   10   17 ar
    22   10   11 1
    23   11   12 2
    24   11   21 1
    25   12   13 1
    26   12   34 1
    27   13   14 2
    28   13   15 am
    29   15   16 1
    30   15   17 1
    31   17   18 ar
    32   18   19 ar
    33   18   35 1
    34   19   20 1
    35   20   36 1
    36   21   22 1
    37   21   23 1
    38   21   24 1
    39   25   37 1
    40   25   38 1
    41   25   39 1
@<TRIPOS>MOLECULE
ZINC03814394
   49    52     0     0     0
SMALL
USER_CHARGES

@<TRIPOS>ATOM
      1 C1         -4.1569   -2.0771   -2.8047 C.3       1 <0>        -0.1579
      2 C2         -3.1416   -2.4702   -1.7297 C.3       1 <0>        -0.0985
      3 C3         -3.6495   -2.0186   -0.3590 C.3       1 <0>        -0.0357
      4 C4         -3.9814   -0.5380   -0.3509 C.3       1 <0>        -0.1030
      5 C5         -2.7103    0.2040   -0.7967 C.3       1 <0>        -0.1196
      6 C6         -1.5200   -0.1045    0.1045 C.3       1 <0>        -0.0710
      7 H1         -1.7146    0.3236    1.0878 H         1 <0>         0.0728
      8 C7         -1.2938   -1.6194    0.2394 C.3       1 <0>        -0.0704
      9 H2         -1.0028   -2.0496   -0.7189 H         1 <0>         0.0878
     10 C8         -2.5867   -2.2390    0.7108 C.3       1 <0>        -0.0671
     11 H3         -2.9230   -1.7206    1.6088 H         1 <0>         0.0795
     12 C9         -2.6474   -3.7065    0.9671 C.2       1 <0>        -0.1290
     13 C10        -3.8589   -4.1455    0.6564 C.2       1 <0>        -0.1904
     14 C11        -4.7306   -2.9658    0.1826 C.3       1 <0>         0.2740
     15 C12        -5.4994   -2.3256    1.2624 C.1       1 <0>        -0.2054
     16 C13        -6.1126   -1.8151    2.1236 C.1       1 <0>        -0.1709
     17 O1         -5.5952   -3.4081   -0.8656 O.3       1 <0>        -0.5329
     18 C14        -0.1870   -1.8483    1.2726 C.3       1 <0>        -0.1137
     19 C15         1.1289   -1.2811    0.7354 C.3       1 <0>        -0.0968
     20 C16         0.9207    0.1774    0.3702 C.2       1 <0>        -0.0248
     21 C17         1.8156    1.0619    0.8088 C.2       1 <0>        -0.2434
     22 C18         1.6834    2.4788    0.4525 C.2       1 <0>         0.3841
     23 O2          2.2214    3.3527    1.0998 O.2       1 <0>        -0.4568
     24 C19         0.8382    2.7924   -0.7854 C.3       1 <0>        -0.1564
     25 C20        -0.4810    2.0394   -0.6163 C.3       1 <0>        -0.1105
     26 C21        -0.2586    0.5439   -0.4781 C.3       1 <0>        -0.0589
     27 H4         -0.0987    0.1327   -1.4748 H         1 <0>         0.0921
     28 H5         -3.8101   -2.4266   -3.7772 H         1 <0>         0.0460
     29 H6         -5.1210   -2.5321   -2.5777 H         1 <0>         0.0807
     30 H7         -4.2628   -0.9924   -2.8251 H         1 <0>         0.0491
     31 H8         -2.1859   -1.9897   -1.9395 H         1 <0>         0.0684
     32 H9         -3.0121   -3.5525   -1.7307 H         1 <0>         0.0660
     33 H10        -4.2626   -0.2246    0.6545 H         1 <0>         0.0653
     34 H11        -4.7956   -0.3333   -1.0461 H         1 <0>         0.0742
     35 H12        -2.9011    1.2770   -0.7762 H         1 <0>         0.0670
     36 H13        -2.4675   -0.0914   -1.8174 H         1 <0>         0.0707
     37 H14        -1.8369   -4.3126    1.3439 H         1 <0>         0.1348
     38 H15        -4.1929   -5.1672    0.7614 H         1 <0>         0.1343
     39 H16        -6.6610   -1.3584    2.8938 H         1 <0>         0.2202
     40 H17        -6.2942   -4.0084   -0.5720 H         1 <0>         0.3753
     41 H18        -0.0750   -2.9170    1.4554 H         1 <0>         0.0721
     42 H19        -0.4473   -1.3450    2.2037 H         1 <0>         0.0663
     43 H20         1.4330   -1.8395   -0.1499 H         1 <0>         0.0852
     44 H21         1.9018   -1.3594    1.4999 H         1 <0>         0.0784
     45 H22         2.6390    0.7354    1.4267 H         1 <0>         0.1337
     46 H23         1.3253    2.4936   -1.6060 H         1 <0>         0.0905
     47 H24         0.6488    3.8646   -0.8369 H         1 <0>         0.0912
     48 H25        -1.1112    2.2264   -1.4857 H         1 <0>         0.0835
     49 H26        -0.9888    2.4074    0.2752 H         1 <0>         0.0702
@<TRIPOS>BOND
     1    1    2 1
     2    1   28 1
     3    1   29 1
     4    1   30 1
     5    2    3 1
     6    2   31 1
     7    2   32 1
     8    3   10 1
     9    3   14 1
    10    3    4 1
    11    4    5 1
    12    4   33 1
    13    4   34 1
    14    5    6 1
    15    5   35 1
    16    5   36 1
    17    6    7 1
    18    6   26 1
    19    6    8 1
    20    8    9 1
    21    8   10 1
    22    8   18 1
    23   10   11 1
    24   10   12 1
    25   12   13 2
    26   12   37 1
    27   13   14 1
    28   13   38 1
    29   14   15 1
    30   14   17 1
    31   15   16 3
    32   16   39 1
    33   17   40 1
    34   18   19 1
    35   18   41 1
    36   18   42 1
    37   19   20 1
    38   19   43 1
    39   19   44 1
    40   20   26 1
    41   20   21 2
    42   21   22 1
    43   21   45 1
    44   22   23 2
    45   22   24 1
    46   24   25 1
    47   24   46 1
    48   24   47 1
    49   25   26 1
    50   25   48 1
    51   25   49 1
    52   26   27 1
@<TRIPOS>MOLECULE
ZINC03814395
   51    54     0     0     0
SMALL
USER_CHARGES

@<TRIPOS>ATOM
      1 C1         -1.3139    2.8006   -0.0943 C.3       1 <0>        -0.1525
      2 C2         -0.1101    3.5066   -0.7213 C.3       1 <0>        -0.1038
      3 C3          1.0096    3.6230    0.3149 C.3       1 <0>        -0.0403
      4 C4          0.5424    4.4691    1.4838 C.3       1 <0>        -0.1025
      5 C5          0.0533    5.8073    0.9076 C.3       1 <0>        -0.1180
      6 C6          1.1458    6.5094    0.1067 C.3       1 <0>        -0.0705
      7 H1          1.9518    6.7963    0.7821 H         1 <0>         0.0715
      8 C7          1.7261    5.5991   -0.9856 C.3       1 <0>        -0.0752
      9 H2          0.9543    5.3535   -1.7150 H         1 <0>         0.0861
     10 C8          2.2356    4.3389   -0.3129 C.3       1 <0>        -0.0825
     11 H3          2.9631    4.5938    0.4577 H         1 <0>         0.0775
     12 C9          2.7837    3.2543   -1.2468 C.3       1 <0>        -0.1128
     13 C10         2.6606    1.9641   -0.3910 C.3       1 <0>        -0.1443
     14 C11         1.5483    2.2364    0.6521 C.3       1 <0>         0.2487
     15 C12         2.1088    2.2241    2.0132 C.1       1 <0>        -0.2079
     16 C13         2.5559    2.2144    3.0987 C.1       1 <0>        -0.1830
     17 O1          0.5109    1.2604    0.5359 O.3       1 <0>        -0.5283
     18 C14         2.8868    6.3222   -1.6749 C.3       1 <0>        -0.1138
     19 C15         2.3509    7.5556   -2.4051 C.3       1 <0>        -0.0972
     20 C16         1.5948    8.4192   -1.4119 C.2       1 <0>        -0.0244
     21 C17         1.8754    9.7214   -1.3805 C.2       1 <0>        -0.2446
     22 C18         1.1473   10.6072   -0.4654 C.2       1 <0>         0.3866
     23 O2          1.5946   11.6833   -0.1278 O.2       1 <0>        -0.4576
     24 C19        -0.1930   10.1073    0.0368 C.3       1 <0>        -0.1597
     25 C20         0.0124    8.6809    0.5455 C.3       1 <0>        -0.1094
     26 C21         0.5633    7.7725   -0.5393 C.3       1 <0>        -0.0598
     27 H4         -0.2651    7.4710   -1.1803 H         1 <0>         0.0905
     28 H5         -2.2109    3.0330   -0.6682 H         1 <0>         0.0394
     29 H6         -1.1473    1.7234   -0.1007 H         1 <0>         0.0836
     30 H7         -1.4411    3.1424    0.9329 H         1 <0>         0.0508
     31 H8         -0.4045    4.5028   -1.0515 H         1 <0>         0.0673
     32 H9          0.2443    2.9305   -1.5761 H         1 <0>         0.0626
     33 H10        -0.2746    3.9673    2.0023 H         1 <0>         0.0709
     34 H11         1.3700    4.6413    2.1718 H         1 <0>         0.0637
     35 H12        -0.8017    5.6232    0.2572 H         1 <0>         0.0708
     36 H13        -0.2570    6.4552    1.7275 H         1 <0>         0.0659
     37 H14         2.1760    3.1785   -2.1485 H         1 <0>         0.0748
     38 H15         3.8248    3.4541   -1.5008 H         1 <0>         0.0700
     39 H16         3.6046    1.7584    0.1137 H         1 <0>         0.0713
     40 H17         2.3824    1.1209   -1.0233 H         1 <0>         0.0807
     41 H18         2.9557    2.2056    4.0695 H         1 <0>         0.2172
     42 H19         0.7949    0.3586    0.7387 H         1 <0>         0.3688
     43 H20         3.3589    5.6510   -2.3924 H         1 <0>         0.0725
     44 H21         3.6184    6.6306   -0.9282 H         1 <0>         0.0657
     45 H22         1.6786    7.2438   -3.2045 H         1 <0>         0.0847
     46 H23         3.1823    8.1225   -2.8239 H         1 <0>         0.0778
     47 H24         2.6390   10.1249   -2.0289 H         1 <0>         0.1335
     48 H25        -0.8565   10.1239   -0.7112 H         1 <0>         0.0901
     49 H26        -0.5449   10.7432    0.8491 H         1 <0>         0.0916
     50 H27        -0.9432    8.2850    0.8894 H         1 <0>         0.0834
     51 H28         0.7109    8.7000    1.3820 H         1 <0>         0.0700
@<TRIPOS>BOND
     1    1    2 1
     2    1   28 1
     3    1   29 1
     4    1   30 1
     5    2    3 1
     6    2   31 1
     7    2   32 1
     8    3   10 1
     9    3   14 1
    10    3    4 1
    11    4    5 1
    12    4   33 1
    13    4   34 1
    14    5    6 1
    15    5   35 1
    16    5   36 1
    17    6    7 1
    18    6   26 1
    19    6    8 1
    20    8    9 1
    21    8   10 1
    22    8   18 1
    23   10   11 1
    24   10   12 1
    25   12   13 1
    26   12   37 1
    27   12   38 1
    28   13   14 1
    29   13   39 1
    30   13   40 1
    31   14   15 1
    32   14   17 1
    33   15   16 3
    34   16   41 1
    35   17   42 1
    36   18   19 1
    37   18   43 1
    38   18   44 1
    39   19   20 1
    40   19   45 1
    41   19   46 1
    42   20   26 1
    43   20   21 2
    44   21   22 1
    45   21   47 1
    46   22   23 2
    47   22   24 1
    48   24   25 1
    49   24   48 1
    50   24   49 1
    51   25   26 1
    52   25   50 1
    53   25   51 1
    54   26   27 1
@<TRIPOS>MOLECULE
ZINC03814396
   36    38     0     0     0
SMALL
USER_CHARGES

@<TRIPOS>ATOM
      1 C1          0.1238    8.9365   -0.8401 C.3       1 <0>        -0.1494
      2 C2         -0.6116    7.9017    0.0140 C.3       1 <0>        -0.1049
      3 H1         -1.6525    7.8397   -0.3031 H         1 <0>         0.0804
      4 C3          0.0577    6.5370   -0.1458 C.3       1 <0>        -0.0702
      5 C4         -0.5093    5.5526    0.8444 C.ar      1 <0>        -0.1623
      6 C5         -0.3631    4.2159    0.5941 C.ar      1 <0>        -0.0151
      7 C6         -0.8682    3.2705    1.4943 C.ar      1 <0>        -0.1700
      8 C7         -0.7223    1.8808    1.2496 C.2       1 <0>        -0.0581
      9 C8         -1.2202    0.9950    2.1476 C.2       1 <0>        -0.1721
     10 C9         -1.8792    1.4508    3.3078 C.2       1 <0>         0.5415
     11 O1         -2.3211    0.6409    4.1046 O.2       1 <0>        -0.5249
     12 N1         -2.0283    2.7669    3.5486 N.am      1 <0>        -0.6276
     13 H2         -2.4988    3.0704    4.3772 H         1 <0>         0.4261
     14 C10        -1.5358    3.6996    2.6589 C.ar      1 <0>         0.2449
     15 C11        -1.6841    5.0575    2.8973 C.ar      1 <0>        -0.2497
     16 C12        -1.1664    5.9798    1.9974 C.ar      1 <0>         0.2866
     17 N2         -1.3283    7.3401    2.2636 N.pl3     1 <0>        -0.7317
     18 C13        -0.5477    8.3147    1.4903 C.3       1 <0>         0.1477
     19 H3          0.4880    8.3110    1.8301 H         1 <0>         0.0748
     20 C14        -1.1450    9.7124    1.6648 C.3       1 <0>        -0.1638
     21 C15        -0.0169    1.3948    0.0097 C.3       1 <0>         0.5056
     22 F1          0.0021   -0.0041    0.0020 F         1 <0>        -0.1685
     23 F2          1.2956    1.8790   -0.0002 F         1 <0>        -0.1678
     24 F3         -0.6935    1.8582   -1.1237 F         1 <0>        -0.1678
     25 H4          1.1656    8.9938   -0.5246 H         1 <0>         0.0594
     26 H5          0.0774    8.6415   -1.8883 H         1 <0>         0.0619
     27 H6         -0.3476    9.9114   -0.7157 H         1 <0>         0.0630
     28 H7          1.1298    6.6396    0.0217 H         1 <0>         0.0782
     29 H8         -0.1122    6.1687   -1.1576 H         1 <0>         0.0814
     30 H9          0.1436    3.8886   -0.3017 H         1 <0>         0.1346
     31 H10        -1.1111   -0.0653    1.9733 H         1 <0>         0.1676
     32 H11        -2.1903    5.3976    3.7887 H         1 <0>         0.1370
     33 H12        -1.9472    7.6375    2.9487 H         1 <0>         0.4061
     34 H13        -1.1228    9.9880    2.7192 H         1 <0>         0.0628
     35 H14        -0.5620   10.4312    1.0890 H         1 <0>         0.0800
     36 H15        -2.1758    9.7138    1.3106 H         1 <0>         0.0644
@<TRIPOS>BOND
     1    1    2 1
     2    1   25 1
     3    1   26 1
     4    1   27 1
     5    2    3 1
     6    2   18 1
     7    2    4 1
     8    4    5 1
     9    4   28 1
    10    4   29 1
    11    5   16 ar
    12    5    6 ar
    13    6    7 ar
    14    6   30 1
    15    7   14 ar
    16    7    8 1
    17    8    9 2
    18    8   21 1
    19    9   10 1
    20    9   31 1
    21   10   11 2
    22   10   12 am
    23   12   13 1
    24   12   14 1
    25   14   15 ar
    26   15   16 ar
    27   15   32 1
    28   16   17 1
    29   17   18 1
    30   17   33 1
    31   18   19 1
    32   18   20 1
    33   20   34 1
    34   20   35 1
    35   20   36 1
    36   21   22 1
    37   21   23 1
    38   21   24 1
@<TRIPOS>MOLECULE
ZINC03814399
   42    44     0     0     0
SMALL
USER_CHARGES

@<TRIPOS>ATOM
      1 C1         -1.4359    5.9271   -1.8635 C.3       1 <0>        -0.1828
      2 C2         -1.2135    6.2206   -0.3785 C.3       1 <0>         0.1072
      3 C3         -2.3801    5.6519    0.4388 C.3       1 <0>        -0.1133
      4 C4         -2.5660    4.1869    0.0375 C.3       1 <0>        -0.0801
      5 C5         -1.2287    3.4878    0.0351 C.ar      1 <0>        -0.1397
      6 C6         -1.2253    2.1190    0.0194 C.ar      1 <0>        -0.0287
      7 C7         -0.0172    1.4142    0.0098 C.ar      1 <0>        -0.1486
      8 C8          0.0021   -0.0041    0.0020 C.2       1 <0>        -0.0667
      9 C9          1.1948   -0.6493   -0.0152 C.2       1 <0>        -0.1598
     10 C10         2.4001    0.0825   -0.0257 C.2       1 <0>         0.5362
     11 O1          3.4636   -0.5131   -0.0419 O.2       1 <0>        -0.5216
     12 N1          2.3945    1.4287   -0.0175 N.am      1 <0>        -0.5162
     13 C11         1.2013    2.1222    0.0020 C.ar      1 <0>         0.2262
     14 C12         1.1828    3.5067    0.0155 C.ar      1 <0>        -0.2184
     15 C13        -0.0295    4.1945    0.0363 C.ar      1 <0>         0.2045
     16 N2          0.0265    5.5833    0.0677 N.pl3     1 <0>        -0.4815
     17 C14         1.1785    6.0811   -0.6958 C.3       1 <0>         0.0141
     18 C15         3.6626    2.1620   -0.0298 C.3       1 <0>         0.0589
     19 C16        -1.2871   -0.7844    0.0133 C.3       1 <0>         0.5067
     20 F1         -1.0031   -2.1543    0.0026 F         1 <0>        -0.1681
     21 F2         -2.0138   -0.4678    1.1660 F         1 <0>        -0.1670
     22 F3         -2.0411   -0.4556   -1.1183 F         1 <0>        -0.1677
     23 C17        -1.1241    7.7326   -0.1619 C.3       1 <0>        -0.1437
     24 H1         -2.3668    6.3907   -2.1900 H         1 <0>         0.0716
     25 H2         -0.6058    6.3322   -2.4422 H         1 <0>         0.0610
     26 H3         -1.4936    4.8494   -2.0162 H         1 <0>         0.0659
     27 H4         -3.2897    6.2118    0.2219 H         1 <0>         0.0828
     28 H5         -2.1521    5.7167    1.5027 H         1 <0>         0.0789
     29 H6         -3.0035    4.1366   -0.9596 H         1 <0>         0.0813
     30 H7         -3.2299    3.6976    0.7501 H         1 <0>         0.0825
     31 H8         -2.1612    1.5799    0.0186 H         1 <0>         0.1357
     32 H9          1.2217   -1.7289   -0.0207 H         1 <0>         0.1695
     33 H10         2.1123    4.0566    0.0103 H         1 <0>         0.1441
     34 H11         1.1305    5.7000   -1.7159 H         1 <0>         0.0490
     35 H12         1.1591    7.1708   -0.7138 H         1 <0>         0.0861
     36 H13         2.1009    5.7419   -0.2243 H         1 <0>         0.0793
     37 H14         4.4915    1.4543   -0.0450 H         1 <0>         0.1052
     38 H15         3.7083    2.7941   -0.9167 H         1 <0>         0.0784
     39 H16         3.7317    2.7834    0.8631 H         1 <0>         0.0795
     40 H17        -0.9600    7.9391    0.8957 H         1 <0>         0.0679
     41 H18        -0.2945    8.1345   -0.7435 H         1 <0>         0.0618
     42 H19        -2.0541    8.2013   -0.4836 H         1 <0>         0.0697
@<TRIPOS>BOND
     1    1    2 1
     2    1   24 1
     3    1   25 1
     4    1   26 1
     5    2   16 1
     6    2    3 1
     7    2   23 1
     8    3    4 1
     9    3   27 1
    10    3   28 1
    11    4    5 1
    12    4   29 1
    13    4   30 1
    14    5   15 ar
    15    5    6 ar
    16    6    7 ar
    17    6   31 1
    18    7   13 ar
    19    7    8 1
    20    8    9 2
    21    8   19 1
    22    9   10 1
    23    9   32 1
    24   10   11 2
    25   10   12 am
    26   12   13 1
    27   12   18 1
    28   13   14 ar
    29   14   15 ar
    30   14   33 1
    31   15   16 1
    32   16   17 1
    33   17   34 1
    34   17   35 1
    35   17   36 1
    36   18   37 1
    37   18   38 1
    38   18   39 1
    39   19   20 1
    40   19   21 1
    41   19   22 1
    42   23   40 1
    43   23   41 1
    44   23   42 1
@<TRIPOS>MOLECULE
ZINC03814400
   31    33     0     0     0
SMALL
USER_CHARGES

@<TRIPOS>ATOM
      1 C1          0.5694   -2.8798    0.9758 C.3       1 <0>        -0.1470
      2 C2          1.4782   -2.1609   -0.0231 C.3       1 <0>        -0.0529
      3 H1          1.3355   -2.5660   -1.0249 H         1 <0>         0.0910
      4 C3          2.9550   -2.2958    0.4035 C.3       1 <0>        -0.1175
      5 C4          3.5548   -0.9447   -0.0389 C.3       1 <0>        -0.0885
      6 C5          2.3951    0.0295   -0.0220 C.ar      1 <0>        -0.0308
      7 C6          1.1964   -0.6728   -0.0132 C.ar      1 <0>        -0.1099
      8 C7          0.0021   -0.0041    0.0020 C.ar      1 <0>        -0.0450
      9 C8         -0.0169    1.3932    0.0097 C.ar      1 <0>        -0.1142
     10 C9         -1.2787    2.1354    0.0318 C.2       1 <0>        -0.0812
     11 C10        -1.2331    3.4906    0.0360 C.2       1 <0>        -0.1391
     12 C11         0.0095    4.1600    0.0285 C.2       1 <0>         0.5388
     13 O1          0.0279    5.3786    0.0374 O.2       1 <0>        -0.5189
     14 N1          1.1733    3.4869    0.0122 N.am      1 <0>        -0.6259
     15 H2          2.0355    3.9935    0.0074 H         1 <0>         0.4278
     16 C12         1.1953    2.1085    0.0020 C.ar      1 <0>         0.1960
     17 C13         2.3970    1.4107   -0.0145 C.ar      1 <0>        -0.1497
     18 C14        -2.5991    1.4093    0.0447 C.3       1 <0>         0.5090
     19 F1         -3.6432    2.3403    0.0652 F         1 <0>        -0.1673
     20 F2         -2.7055    0.6146   -1.1018 F         1 <0>        -0.1663
     21 F3         -2.6746    0.5989    1.1825 F         1 <0>        -0.1662
     22 H3         -0.4729   -2.7132    0.7040 H         1 <0>         0.0578
     23 H4          0.7832   -3.9485    0.9577 H         1 <0>         0.0626
     24 H5          0.7504   -2.4900    1.9775 H         1 <0>         0.0590
     25 H6          3.0362   -2.4205    1.4833 H         1 <0>         0.0776
     26 H7          3.4352   -3.1225   -0.1200 H         1 <0>         0.0819
     27 H8          4.3266   -0.6261    0.6618 H         1 <0>         0.0837
     28 H9          3.9665   -1.0250   -1.0450 H         1 <0>         0.0904
     29 H10        -0.9259   -0.5565    0.0077 H         1 <0>         0.1331
     30 H11        -2.1508    4.0599    0.0491 H         1 <0>         0.1728
     31 H12         3.3333    1.9488   -0.0214 H         1 <0>         0.1390
@<TRIPOS>BOND
     1    1    2 1
     2    1   22 1
     3    1   23 1
     4    1   24 1
     5    2    3 1
     6    2    7 1
     7    2    4 1
     8    4    5 1
     9    4   25 1
    10    4   26 1
    11    5    6 1
    12    5   27 1
    13    5   28 1
    14    6   17 ar
    15    6    7 ar
    16    7    8 ar
    17    8    9 ar
    18    8   29 1
    19    9   16 ar
    20    9   10 1
    21   10   11 2
    22   10   18 1
    23   11   12 1
    24   11   30 1
    25   12   13 2
    26   12   14 am
    27   14   15 1
    28   14   16 1
    29   16   17 ar
    30   17   31 1
    31   18   19 1
    32   18   20 1
    33   18   21 1
@<TRIPOS>MOLECULE
ZINC03814400
   31    33     0     0     0
SMALL
USER_CHARGES

@<TRIPOS>ATOM
      1 C1          0.5694   -2.8798    0.9758 C.3       1 <0>        -0.1470
      2 C2          1.4782   -2.1609   -0.0231 C.3       1 <0>        -0.0529
      3 H1          1.3355   -2.5660   -1.0249 H         1 <0>         0.0910
      4 C3          2.9550   -2.2958    0.4035 C.3       1 <0>        -0.1175
      5 C4          3.5548   -0.9447   -0.0389 C.3       1 <0>        -0.0885
      6 C5          2.3951    0.0295   -0.0220 C.ar      1 <0>        -0.0308
      7 C6          1.1964   -0.6728   -0.0132 C.ar      1 <0>        -0.1099
      8 C7          0.0021   -0.0041    0.0020 C.ar      1 <0>        -0.0450
      9 C8         -0.0169    1.3932    0.0097 C.ar      1 <0>        -0.1142
     10 C9         -1.2787    2.1354    0.0318 C.2       1 <0>        -0.0812
     11 C10        -1.2331    3.4906    0.0360 C.2       1 <0>        -0.1391
     12 C11         0.0095    4.1600    0.0285 C.2       1 <0>         0.5388
     13 O1          0.0279    5.3786    0.0374 O.2       1 <0>        -0.5189
     14 N1          1.1733    3.4869    0.0122 N.am      1 <0>        -0.6259
     15 H2          2.0355    3.9935    0.0074 H         1 <0>         0.4278
     16 C12         1.1953    2.1085    0.0020 C.ar      1 <0>         0.1960
     17 C13         2.3970    1.4107   -0.0145 C.ar      1 <0>        -0.1497
     18 C14        -2.5991    1.4093    0.0447 C.3       1 <0>         0.5090
     19 F1         -3.6432    2.3403    0.0652 F         1 <0>        -0.1673
     20 F2         -2.7055    0.6146   -1.1018 F         1 <0>        -0.1663
     21 F3         -2.6746    0.5989    1.1825 F         1 <0>        -0.1662
     22 H3         -0.4729   -2.7132    0.7040 H         1 <0>         0.0578
     23 H4          0.7832   -3.9485    0.9577 H         1 <0>         0.0626
     24 H5          0.7504   -2.4900    1.9775 H         1 <0>         0.0590
     25 H6          3.0362   -2.4205    1.4833 H         1 <0>         0.0776
     26 H7          3.4352   -3.1225   -0.1200 H         1 <0>         0.0819
     27 H8          4.3266   -0.6261    0.6618 H         1 <0>         0.0837
     28 H9          3.9665   -1.0250   -1.0450 H         1 <0>         0.0904
     29 H10        -0.9259   -0.5565    0.0077 H         1 <0>         0.1331
     30 H11        -2.1508    4.0599    0.0491 H         1 <0>         0.1728
     31 H12         3.3333    1.9488   -0.0214 H         1 <0>         0.1390
@<TRIPOS>BOND
     1    1    2 1
     2    1   22 1
     3    1   23 1
     4    1   24 1
     5    2    3 1
     6    2    7 1
     7    2    4 1
     8    4    5 1
     9    4   25 1
    10    4   26 1
    11    5    6 1
    12    5   27 1
    13    5   28 1
    14    6   17 ar
    15    6    7 ar
    16    7    8 ar
    17    8    9 ar
    18    8   29 1
    19    9   16 ar
    20    9   10 1
    21   10   11 2
    22   10   18 1
    23   11   12 1
    24   11   30 1
    25   12   13 2
    26   12   14 am
    27   14   15 1
    28   14   16 1
    29   16   17 ar
    30   17   31 1
    31   18   19 1
    32   18   20 1
    33   18   21 1
@<TRIPOS>MOLECULE
ZINC03814401
   39    41     0     0     0
SMALL
USER_CHARGES

@<TRIPOS>ATOM
      1 C1          4.3801    1.3627    2.3554 C.3       1 <0>        -0.1556
      2 C2          3.6166    1.9777    1.1809 C.3       1 <0>        -0.1317
      3 C3          2.2073    1.3850    1.1223 C.3       1 <0>         0.1470
      4 H1          1.7034    1.5363    2.0770 H         1 <0>         0.0755
      5 C4          1.4059    2.0570   -0.0003 C.3       1 <0>        -0.1302
      6 C5         -0.0184    1.5028    0.0103 C.3       1 <0>        -0.0441
      7 H2         -0.5339    1.8512    0.9053 H         1 <0>         0.0833
      8 C6          0.0021   -0.0041    0.0020 C.ar      1 <0>        -0.1583
      9 C7         -1.1181   -0.6708   -0.4119 C.ar      1 <0>        -0.0156
     10 C8         -1.1394   -2.0702   -0.4303 C.ar      1 <0>        -0.1708
     11 C9         -2.2940   -2.7757   -0.8567 C.2       1 <0>        -0.0579
     12 C10        -2.2777   -4.1317   -0.8586 C.2       1 <0>        -0.1726
     13 C11        -1.1262   -4.8310   -0.4424 C.2       1 <0>         0.5416
     14 O1         -1.1289   -6.0501   -0.4493 O.2       1 <0>        -0.5252
     15 N1         -0.0240   -4.1728   -0.0370 N.am      1 <0>        -0.6276
     16 H3          0.7831   -4.6867    0.2535 H         1 <0>         0.4259
     17 C12        -0.0014   -2.7932   -0.0200 C.ar      1 <0>         0.2454
     18 C13         1.1286   -2.1054    0.3958 C.ar      1 <0>        -0.2506
     19 C14         1.1304   -0.7169    0.4055 C.ar      1 <0>         0.2882
     20 N2          2.2836   -0.0507    0.8222 N.pl3     1 <0>        -0.7295
     21 C15        -3.5241   -2.0273   -1.3014 C.3       1 <0>         0.5052
     22 F1         -4.5180   -2.9405   -1.6694 F         1 <0>        -0.1684
     23 F2         -3.9897   -1.2295   -0.2507 F         1 <0>        -0.1679
     24 F3         -3.2065   -1.2171   -2.3968 F         1 <0>        -0.1677
     25 C16        -0.7658    2.0052   -1.2265 C.3       1 <0>        -0.1486
     26 H4          3.8548    1.5820    3.2850 H         1 <0>         0.0584
     27 H5          4.4454    0.2830    2.2210 H         1 <0>         0.0526
     28 H6          5.3841    1.7850    2.3972 H         1 <0>         0.0605
     29 H7          4.1419    1.7585    0.2513 H         1 <0>         0.0713
     30 H8          3.5513    3.0574    1.3154 H         1 <0>         0.0821
     31 H9          1.8738    1.8434   -0.9614 H         1 <0>         0.0744
     32 H10         1.3799    3.1342    0.1639 H         1 <0>         0.0827
     33 H11        -1.9895   -0.1153   -0.7258 H         1 <0>         0.1368
     34 H12        -3.1515   -4.6789   -1.1803 H         1 <0>         0.1675
     35 H13         2.0064   -2.6493    0.7120 H         1 <0>         0.1365
     36 H14         3.1228   -0.5287    0.9126 H         1 <0>         0.4053
     37 H15        -1.7877    1.6264   -1.2123 H         1 <0>         0.0601
     38 H16        -0.7822    3.0951   -1.2233 H         1 <0>         0.0624
     39 H17        -0.2599    1.6521   -2.1251 H         1 <0>         0.0598
@<TRIPOS>BOND
     1    1    2 1
     2    1   26 1
     3    1   27 1
     4    1   28 1
     5    2    3 1
     6    2   29 1
     7    2   30 1
     8    3    4 1
     9    3   20 1
    10    3    5 1
    11    5    6 1
    12    5   31 1
    13    5   32 1
    14    6    7 1
    15    6    8 1
    16    6   25 1
    17    8   19 ar
    18    8    9 ar
    19    9   10 ar
    20    9   33 1
    21   10   17 ar
    22   10   11 1
    23   11   12 2
    24   11   21 1
    25   12   13 1
    26   12   34 1
    27   13   14 2
    28   13   15 am
    29   15   16 1
    30   15   17 1
    31   17   18 ar
    32   18   19 ar
    33   18   35 1
    34   19   20 1
    35   20   36 1
    36   21   22 1
    37   21   23 1
    38   21   24 1
    39   25   37 1
    40   25   38 1
    41   25   39 1
@<TRIPOS>MOLECULE
ZINC03814402
   37    39     0     0     0
SMALL
USER_CHARGES

@<TRIPOS>ATOM
      1 C1          2.9883    3.9238    1.9560 C.3       1 <0>        -0.1475
      2 C2          2.8808    3.7615    0.4384 C.3       1 <0>        -0.0840
      3 H1          3.3379    4.6070   -0.0758 H         1 <0>         0.0896
      4 C3          1.4089    3.5891    0.0085 C.3       1 <0>        -0.0848
      5 C4          1.1694    2.0935    0.0021 C.ar      1 <0>        -0.0274
      6 C5         -0.0168    1.3851    0.0097 C.ar      1 <0>        -0.1506
      7 C6          0.0021   -0.0041    0.0020 C.ar      1 <0>         0.1962
      8 C7          1.2388   -0.6765   -0.0144 C.ar      1 <0>        -0.1144
      9 C8          2.4274    0.0576   -0.0214 C.ar      1 <0>        -0.0435
     10 C9          2.3874    1.4263   -0.0127 C.ar      1 <0>        -0.1015
     11 C10         3.5192    2.4327   -0.0173 C.3       1 <0>        -0.0198
     12 C11         4.6132    2.0056    0.9633 C.3       1 <0>        -0.1447
     13 C12         4.0971    2.5750   -1.4268 C.3       1 <0>        -0.1379
     14 C13         1.2504   -2.1406   -0.0233 C.2       1 <0>        -0.0810
     15 C14         0.0644   -2.7978   -0.0150 C.2       1 <0>        -0.1395
     16 C15        -1.1482   -2.0759    0.0018 C.2       1 <0>         0.5388
     17 O1         -2.2031   -2.6865    0.0097 O.2       1 <0>        -0.5192
     18 N1         -1.1691   -0.7316    0.0098 N.am      1 <0>        -0.6260
     19 H2         -2.0468   -0.2525    0.0216 H         1 <0>         0.4276
     20 C16         2.5518   -2.9003   -0.0418 C.3       1 <0>         0.5089
     21 F1          2.2895   -4.2745   -0.0477 F         1 <0>        -0.1674
     22 F2          3.2750   -2.5587   -1.1896 F         1 <0>        -0.1663
     23 F3          3.2990   -2.5731    1.0948 F         1 <0>        -0.1662
     24 H3          4.0383    3.9200    2.2484 H         1 <0>         0.0644
     25 H4          2.5316    4.8676    2.2537 H         1 <0>         0.0575
     26 H5          2.4715    3.0992    2.4470 H         1 <0>         0.0566
     27 H6          0.7464    4.0754    0.7245 H         1 <0>         0.0848
     28 H7          1.2558    4.0005   -0.9893 H         1 <0>         0.0900
     29 H8         -0.9596    1.9117    0.0170 H         1 <0>         0.1385
     30 H9          3.3782   -0.4545   -0.0341 H         1 <0>         0.1324
     31 H10         5.0207    1.0424    0.6561 H         1 <0>         0.0560
     32 H11         5.4080    2.7515    0.9683 H         1 <0>         0.0629
     33 H12         4.1903    1.9187    1.9642 H         1 <0>         0.0641
     34 H13         3.3101    2.8897   -2.1121 H         1 <0>         0.0579
     35 H14         4.8923    3.3204   -1.4199 H         1 <0>         0.0637
     36 H15         4.5006    1.6162   -1.7526 H         1 <0>         0.0593
     37 H16         0.0477   -3.8777   -0.0216 H         1 <0>         0.1725
@<TRIPOS>BOND
     1    1    2 1
     2    1   24 1
     3    1   25 1
     4    1   26 1
     5    2    3 1
     6    2   11 1
     7    2    4 1
     8    4    5 1
     9    4   27 1
    10    4   28 1
    11    5   10 ar
    12    5    6 ar
    13    6    7 ar
    14    6   29 1
    15    7   18 1
    16    7    8 ar
    17    8    9 ar
    18    8   14 1
    19    9   10 ar
    20    9   30 1
    21   10   11 1
    22   11   12 1
    23   11   13 1
    24   12   31 1
    25   12   32 1
    26   12   33 1
    27   13   34 1
    28   13   35 1
    29   13   36 1
    30   14   15 2
    31   14   20 1
    32   15   16 1
    33   15   37 1
    34   16   17 2
    35   16   18 am
    36   18   19 1
    37   20   21 1
    38   20   22 1
    39   20   23 1
@<TRIPOS>MOLECULE
ZINC03814403
   36    38     0     0     0
SMALL
USER_CHARGES

@<TRIPOS>ATOM
      1 C1          3.4566    2.8128    1.9612 C.3       1 <0>        -0.1456
      2 C2          3.6227    3.1102    0.4696 C.3       1 <0>        -0.1054
      3 H1          4.5610    3.6392    0.3030 H         1 <0>         0.0887
      4 C3          2.4565    3.9716   -0.0138 C.3       1 <0>        -0.0715
      5 C4          1.1736    3.1812    0.0053 C.ar      1 <0>        -0.1579
      6 C5         -0.0130    3.8610    0.0227 C.ar      1 <0>        -0.0169
      7 C6         -1.2260    3.1625    0.0318 C.ar      1 <0>        -0.1699
      8 C7         -2.4648    3.8537    0.0487 C.2       1 <0>        -0.0581
      9 C8         -3.6193    3.1424    0.0559 C.2       1 <0>        -0.1725
     10 C9         -3.5878    1.7327    0.0468 C.2       1 <0>         0.5415
     11 O1         -4.6350    1.1088    0.0528 O.2       1 <0>        -0.5252
     12 N1         -2.4186    1.0655    0.0312 N.am      1 <0>        -0.6277
     13 H2         -2.4170    0.0655    0.0296 H         1 <0>         0.4259
     14 C10        -1.2224    1.7533    0.0174 C.ar      1 <0>         0.2443
     15 C11        -0.0126    1.0758    0.0080 C.ar      1 <0>        -0.2508
     16 C12         1.1801    1.7870    0.0004 C.ar      1 <0>         0.2888
     17 N2          2.3828    1.0794   -0.0079 N.pl3     1 <0>        -0.7283
     18 C13         3.6273    1.7945   -0.3194 C.3       1 <0>         0.1478
     19 H3          4.4851    1.1901   -0.0242 H         1 <0>         0.0933
     20 C14         3.6936    2.0900   -1.8191 C.3       1 <0>        -0.1708
     21 C15        -2.4973    5.3603    0.0581 C.3       1 <0>         0.5056
     22 F1         -3.8260    5.7980    0.0744 F         1 <0>        -0.1686
     23 F2         -1.8363    5.8340    1.1964 F         1 <0>        -0.1678
     24 F3         -1.8598    5.8476   -1.0880 F         1 <0>        -0.1679
     25 H4          2.5202    2.2790    2.1232 H         1 <0>         0.0586
     26 H5          4.2891    2.1985    2.3041 H         1 <0>         0.0544
     27 H6          3.4422    3.7492    2.5189 H         1 <0>         0.0580
     28 H7          2.6559    4.3103   -1.0304 H         1 <0>         0.0799
     29 H8          2.3562    4.8372    0.6411 H         1 <0>         0.0804
     30 H9         -0.0142    4.9410    0.0298 H         1 <0>         0.1340
     31 H10        -4.5680    3.6584    0.0684 H         1 <0>         0.1674
     32 H11         0.0021   -0.0041    0.0020 H         1 <0>         0.1365
     33 H12         2.3966    0.1296    0.1887 H         1 <0>         0.4066
     34 H13         4.6048    2.6460   -2.0400 H         1 <0>         0.0693
     35 H14         3.6966    1.1521   -2.3745 H         1 <0>         0.0598
     36 H15         2.8266    2.6825   -2.1114 H         1 <0>         0.0642
@<TRIPOS>BOND
     1    1    2 1
     2    1   25 1
     3    1   26 1
     4    1   27 1
     5    2    3 1
     6    2   18 1
     7    2    4 1
     8    4    5 1
     9    4   28 1
    10    4   29 1
    11    5   16 ar
    12    5    6 ar
    13    6    7 ar
    14    6   30 1
    15    7   14 ar
    16    7    8 1
    17    8    9 2
    18    8   21 1
    19    9   10 1
    20    9   31 1
    21   10   11 2
    22   10   12 am
    23   12   13 1
    24   12   14 1
    25   14   15 ar
    26   15   16 ar
    27   15   32 1
    28   16   17 1
    29   17   18 1
    30   17   33 1
    31   18   19 1
    32   18   20 1
    33   20   34 1
    34   20   35 1
    35   20   36 1
    36   21   22 1
    37   21   23 1
    38   21   24 1
@<TRIPOS>MOLECULE
ZINC03814404
   39    41     0     0     0
SMALL
USER_CHARGES

@<TRIPOS>ATOM
      1 C1         -0.0989    9.5706    0.9574 C.3       1 <0>        -0.1547
      2 C2         -0.0521    8.0413    0.9517 C.3       1 <0>        -0.1200
      3 C3          0.8768    7.5637   -0.1663 C.3       1 <0>        -0.0403
      4 H1          0.5457    7.9862   -1.1149 H         1 <0>         0.0839
      5 C4          2.2999    8.0368    0.1283 C.3       1 <0>        -0.1298
      6 C5          3.2576    7.3810   -0.8749 C.3       1 <0>         0.1429
      7 H2          2.9396    7.6094   -1.8922 H         1 <0>         0.0748
      8 N1          3.2144    5.9295   -0.6544 N.pl3     1 <0>        -0.7313
      9 C6          1.9766    5.3072   -0.4878 C.ar      1 <0>         0.2880
     10 C7          0.8272    6.0596   -0.2465 C.ar      1 <0>        -0.1577
     11 C8         -0.3779    5.4356   -0.0801 C.ar      1 <0>        -0.0163
     12 C9         -0.4655    4.0400   -0.1516 C.ar      1 <0>        -0.1705
     13 C10        -1.7086    3.3783    0.0201 C.2       1 <0>        -0.0580
     14 C11        -1.7548    2.0255   -0.0613 C.2       1 <0>        -0.1725
     15 C12        -0.5791    1.2858   -0.3039 C.2       1 <0>         0.5416
     16 O1         -0.6377    0.0700   -0.3704 O.2       1 <0>        -0.5251
     17 N2          0.6062    1.9025   -0.4687 N.am      1 <0>        -0.6275
     18 H3          1.4282    1.3607   -0.6438 H         1 <0>         0.4260
     19 C13         0.6936    3.2777   -0.3975 C.ar      1 <0>         0.2454
     20 C14         1.9100    3.9228   -0.5647 C.ar      1 <0>        -0.2505
     21 C15        -2.9634    4.1696    0.2856 C.3       1 <0>         0.5052
     22 F1         -4.0473    3.2949    0.4165 F         1 <0>        -0.1684
     23 F2         -2.8109    4.9033    1.4669 F         1 <0>        -0.1677
     24 F3         -3.1968    5.0452   -0.7803 F         1 <0>        -0.1678
     25 C16         4.6797    7.8975   -0.6474 C.3       1 <0>        -0.1616
     26 H4          0.8816    9.9631    1.2270 H         1 <0>         0.0562
     27 H5         -0.3736    9.9294   -0.0346 H         1 <0>         0.0560
     28 H6         -0.8380    9.9088    1.6836 H         1 <0>         0.0569
     29 H7         -1.0546    7.6478    0.7841 H         1 <0>         0.0667
     30 H8          0.3221    7.6857    1.9118 H         1 <0>         0.0668
     31 H9          2.3524    9.1209    0.0283 H         1 <0>         0.0839
     32 H10         2.5777    7.7498    1.1425 H         1 <0>         0.0740
     33 H11         4.0339    5.4114   -0.6246 H         1 <0>         0.4058
     34 H12        -1.2656    6.0214    0.1075 H         1 <0>         0.1370
     35 H13        -2.6964    1.5116    0.0640 H         1 <0>         0.1675
     36 H14         2.8049    3.3484   -0.7534 H         1 <0>         0.1368
     37 H15         4.9970    7.6533    0.3664 H         1 <0>         0.0644
     38 H16         5.3554    7.4285   -1.3625 H         1 <0>         0.0634
     39 H17         4.6997    8.9788   -0.7838 H         1 <0>         0.0767
@<TRIPOS>BOND
     1    1    2 1
     2    1   26 1
     3    1   27 1
     4    1   28 1
     5    2    3 1
     6    2   29 1
     7    2   30 1
     8    3    4 1
     9    3   10 1
    10    3    5 1
    11    5    6 1
    12    5   31 1
    13    5   32 1
    14    6    7 1
    15    6    8 1
    16    6   25 1
    17    8    9 1
    18    8   33 1
    19    9   20 ar
    20    9   10 ar
    21   10   11 ar
    22   11   12 ar
    23   11   34 1
    24   12   19 ar
    25   12   13 1
    26   13   14 2
    27   13   21 1
    28   14   15 1
    29   14   35 1
    30   15   16 2
    31   15   17 am
    32   17   18 1
    33   17   19 1
    34   19   20 ar
    35   20   36 1
    36   21   22 1
    37   21   23 1
    38   21   24 1
    39   25   37 1
    40   25   38 1
    41   25   39 1
@<TRIPOS>MOLECULE
ZINC03814404
   39    41     0     0     0
SMALL
USER_CHARGES

@<TRIPOS>ATOM
      1 C1         -0.0989    9.5706    0.9574 C.3       1 <0>        -0.1547
      2 C2         -0.0521    8.0413    0.9517 C.3       1 <0>        -0.1200
      3 C3          0.8768    7.5637   -0.1663 C.3       1 <0>        -0.0403
      4 H1          0.5457    7.9862   -1.1149 H         1 <0>         0.0839
      5 C4          2.2999    8.0368    0.1283 C.3       1 <0>        -0.1298
      6 C5          3.2576    7.3810   -0.8749 C.3       1 <0>         0.1429
      7 H2          2.9396    7.6094   -1.8922 H         1 <0>         0.0748
      8 N1          3.2144    5.9295   -0.6544 N.pl3     1 <0>        -0.7313
      9 C6          1.9766    5.3072   -0.4878 C.ar      1 <0>         0.2880
     10 C7          0.8272    6.0596   -0.2465 C.ar      1 <0>        -0.1577
     11 C8         -0.3779    5.4356   -0.0801 C.ar      1 <0>        -0.0163
     12 C9         -0.4655    4.0400   -0.1516 C.ar      1 <0>        -0.1705
     13 C10        -1.7086    3.3783    0.0201 C.2       1 <0>        -0.0580
     14 C11        -1.7548    2.0255   -0.0613 C.2       1 <0>        -0.1725
     15 C12        -0.5791    1.2858   -0.3039 C.2       1 <0>         0.5416
     16 O1         -0.6377    0.0700   -0.3704 O.2       1 <0>        -0.5251
     17 N2          0.6062    1.9025   -0.4687 N.am      1 <0>        -0.6275
     18 H3          1.4282    1.3607   -0.6438 H         1 <0>         0.4260
     19 C13         0.6936    3.2777   -0.3975 C.ar      1 <0>         0.2454
     20 C14         1.9100    3.9228   -0.5647 C.ar      1 <0>        -0.2505
     21 C15        -2.9634    4.1696    0.2856 C.3       1 <0>         0.5052
     22 F1         -4.0473    3.2949    0.4165 F         1 <0>        -0.1684
     23 F2         -2.8109    4.9033    1.4669 F         1 <0>        -0.1677
     24 F3         -3.1968    5.0452   -0.7803 F         1 <0>        -0.1678
     25 C16         4.6797    7.8975   -0.6474 C.3       1 <0>        -0.1616
     26 H4          0.8816    9.9631    1.2270 H         1 <0>         0.0562
     27 H5         -0.3736    9.9294   -0.0346 H         1 <0>         0.0560
     28 H6         -0.8380    9.9088    1.6836 H         1 <0>         0.0569
     29 H7         -1.0546    7.6478    0.7841 H         1 <0>         0.0667
     30 H8          0.3221    7.6857    1.9118 H         1 <0>         0.0668
     31 H9          2.3524    9.1209    0.0283 H         1 <0>         0.0839
     32 H10         2.5777    7.7498    1.1425 H         1 <0>         0.0740
     33 H11         4.0339    5.4114   -0.6246 H         1 <0>         0.4058
     34 H12        -1.2656    6.0214    0.1075 H         1 <0>         0.1370
     35 H13        -2.6964    1.5116    0.0640 H         1 <0>         0.1675
     36 H14         2.8049    3.3484   -0.7534 H         1 <0>         0.1368
     37 H15         4.9970    7.6533    0.3664 H         1 <0>         0.0644
     38 H16         5.3554    7.4285   -1.3625 H         1 <0>         0.0634
     39 H17         4.6997    8.9788   -0.7838 H         1 <0>         0.0767
@<TRIPOS>BOND
     1    1    2 1
     2    1   26 1
     3    1   27 1
     4    1   28 1
     5    2    3 1
     6    2   29 1
     7    2   30 1
     8    3    4 1
     9    3   10 1
    10    3    5 1
    11    5    6 1
    12    5   31 1
    13    5   32 1
    14    6    7 1
    15    6    8 1
    16    6   25 1
    17    8    9 1
    18    8   33 1
    19    9   20 ar
    20    9   10 ar
    21   10   11 ar
    22   11   12 ar
    23   11   34 1
    24   12   19 ar
    25   12   13 1
    26   13   14 2
    27   13   21 1
    28   14   15 1
    29   14   35 1
    30   15   16 2
    31   15   17 am
    32   17   18 1
    33   17   19 1
    34   19   20 ar
    35   20   36 1
    36   21   22 1
    37   21   23 1
    38   21   24 1
    39   25   37 1
    40   25   38 1
    41   25   39 1
@<TRIPOS>MOLECULE
ZINC03814405
   40    43     0     0     0
SMALL
USER_CHARGES

@<TRIPOS>ATOM
      1 C1         -4.4164   -0.2343   -3.1070 C.3       1 <0>        -0.1481
      2 C2         -4.2895    0.5008   -1.7711 C.3       1 <0>        -0.0919
      3 H1         -4.9240    0.0212   -1.0258 H         1 <0>         0.0745
      4 C3         -4.7109    1.9655   -1.9443 C.3       1 <0>        -0.1142
      5 C4         -4.7512    2.6046   -0.5598 C.3       1 <0>        -0.1210
      6 C5         -3.4656    2.4615    0.1904 C.3       1 <0>         0.1535
      7 H2         -3.7442    2.4556    1.2442 H         1 <0>         0.0541
      8 C6         -2.6308    1.2190   -0.0012 C.3       1 <0>        -0.0361
      9 H3         -2.7848    0.5393    0.8370 H         1 <0>         0.0957
     10 C7         -2.8401    0.4747   -1.3063 C.3       1 <0>        -0.1059
     11 C8         -1.2005    1.7420    0.0172 C.ar      1 <0>        -0.1778
     12 C9         -0.0126    1.0758    0.0080 C.ar      1 <0>         0.0007
     13 C10         1.1905    1.7942    0.0003 C.ar      1 <0>        -0.1701
     14 C11         2.4402    1.1238   -0.0070 C.2       1 <0>        -0.0567
     15 C12         3.5824    1.8550   -0.0189 C.2       1 <0>        -0.1724
     16 C13         3.5254    3.2638   -0.0249 C.2       1 <0>         0.5419
     17 O1          4.5615    3.9060   -0.0377 O.2       1 <0>        -0.5247
     18 N1          2.3452    3.9109   -0.0162 N.am      1 <0>        -0.6272
     19 H4          2.3267    4.9107   -0.0218 H         1 <0>         0.4263
     20 C14         1.1600    3.2030    0.0004 C.ar      1 <0>         0.2502
     21 C15        -0.0587    3.8628    0.0212 C.ar      1 <0>        -0.2399
     22 C16        -1.2473    3.1358    0.0403 C.ar      1 <0>         0.2653
     23 N2         -2.5630    3.6003    0.0774 N.pl3     1 <0>        -0.7203
     24 C17         2.4983   -0.3821   -0.0022 C.3       1 <0>         0.5057
     25 F1          3.8342   -0.7973   -0.0112 F         1 <0>        -0.1684
     26 F2          1.8661   -0.8695    1.1467 F         1 <0>        -0.1677
     27 F3          1.8484   -0.8774   -1.1378 F         1 <0>        -0.1677
     28 H5         -3.7723    0.2418   -3.8463 H         1 <0>         0.0548
     29 H6         -4.1161   -1.2743   -2.9794 H         1 <0>         0.0566
     30 H7         -5.4513   -0.1940   -3.4469 H         1 <0>         0.0566
     31 H8         -5.6988    2.0139   -2.4023 H         1 <0>         0.0690
     32 H9         -3.9875    2.4872   -2.5709 H         1 <0>         0.0645
     33 H10        -5.5484    2.1377    0.0187 H         1 <0>         0.0796
     34 H11        -4.9766    3.6654   -0.6699 H         1 <0>         0.0706
     35 H12        -2.2156    0.9298   -2.0751 H         1 <0>         0.0661
     36 H13        -2.5316   -0.5623   -1.1735 H         1 <0>         0.0694
     37 H14         0.0021   -0.0041    0.0020 H         1 <0>         0.1344
     38 H15         4.5401    1.3557   -0.0239 H         1 <0>         0.1679
     39 H16        -0.0871    4.9425    0.0230 H         1 <0>         0.1350
     40 H17        -2.8339    4.5302    0.0250 H         1 <0>         0.4178
@<TRIPOS>BOND
     1    1    2 1
     2    1   28 1
     3    1   29 1
     4    1   30 1
     5    2    3 1
     6    2   10 1
     7    2    4 1
     8    4    5 1
     9    4   31 1
    10    4   32 1
    11    5    6 1
    12    5   33 1
    13    5   34 1
    14    6    7 1
    15    6   23 1
    16    6    8 1
    17    8    9 1
    18    8   10 1
    19    8   11 1
    20   10   35 1
    21   10   36 1
    22   11   22 ar
    23   11   12 ar
    24   12   13 ar
    25   12   37 1
    26   13   20 ar
    27   13   14 1
    28   14   15 2
    29   14   24 1
    30   15   16 1
    31   15   38 1
    32   16   17 2
    33   16   18 am
    34   18   19 1
    35   18   20 1
    36   20   21 ar
    37   21   22 ar
    38   21   39 1
    39   22   23 1
    40   23   40 1
    41   24   25 1
    42   24   26 1
    43   24   27 1
@<TRIPOS>MOLECULE
ZINC03814406
   39    41     0     0     0
SMALL
USER_CHARGES

@<TRIPOS>ATOM
      1 C1          0.0111    1.0724    2.5063 C.3       1 <0>        -0.1549
      2 C2         -0.7288    1.5792    1.2668 C.3       1 <0>        -0.1257
      3 C3         -0.0127    1.0858    0.0080 C.3       1 <0>        -0.1284
      4 C4         -0.7527    1.5927   -1.2315 C.3       1 <0>         0.1472
      5 H1         -0.8606    2.6761   -1.1796 H         1 <0>         0.0758
      6 C5          0.0271    1.2081   -2.4956 C.3       1 <0>        -0.1349
      7 C6         -0.6905    1.7891   -3.7136 C.3       1 <0>        -0.0742
      8 C7         -2.1502    1.4153   -3.6935 C.ar      1 <0>        -0.1628
      9 C8         -2.8543    1.4666   -4.8649 C.ar      1 <0>        -0.0152
     10 C9         -4.2128    1.1300   -4.8866 C.ar      1 <0>        -0.1704
     11 C10        -4.9565    1.1793   -6.0937 C.2       1 <0>        -0.0580
     12 C11        -6.2709    0.8461   -6.0751 C.2       1 <0>        -0.1723
     13 C12        -6.8899    0.4556   -4.8699 C.2       1 <0>         0.5415
     14 O1         -8.0726    0.1597   -4.8710 O.2       1 <0>        -0.5251
     15 N1         -6.1948    0.4046   -3.7182 N.am      1 <0>        -0.6275
     16 H2         -6.6517    0.1247   -2.8739 H         1 <0>         0.4260
     17 C13        -4.8555    0.7363   -3.6958 C.ar      1 <0>         0.2451
     18 C14        -4.1303    0.6874   -2.5149 C.ar      1 <0>        -0.2502
     19 C15        -2.7833    1.0247   -2.5142 C.ar      1 <0>         0.2873
     20 N2         -2.0773    0.9630   -1.3122 N.pl3     1 <0>        -0.7293
     21 C16        -4.2939    1.5973   -7.3810 C.3       1 <0>         0.5057
     22 F1         -5.2307    1.5651   -8.4195 F         1 <0>        -0.1685
     23 F2         -3.7912    2.8959   -7.2465 F         1 <0>        -0.1678
     24 F3         -3.2446    0.7189   -7.6721 F         1 <0>        -0.1678
     25 H3          0.0259   -0.0175    2.5003 H         1 <0>         0.0546
     26 H4          1.0337    1.4497    2.4986 H         1 <0>         0.0561
     27 H5         -0.4990    1.4239    3.4031 H         1 <0>         0.0560
     28 H6         -0.7436    2.6691    1.2728 H         1 <0>         0.0651
     29 H7         -1.7514    1.2020    1.2746 H         1 <0>         0.0594
     30 H8          0.0021   -0.0041    0.0020 H         1 <0>         0.0719
     31 H9          1.0099    1.4631    0.0003 H         1 <0>         0.0824
     32 H10         1.0373    1.6136   -2.4391 H         1 <0>         0.0827
     33 H11         0.0735    0.1224   -2.5801 H         1 <0>         0.0734
     34 H12        -0.5965    2.8750   -3.7031 H         1 <0>         0.0778
     35 H13        -0.2336    1.3967   -4.6221 H         1 <0>         0.0814
     36 H14        -2.3602    1.7681   -5.7767 H         1 <0>         0.1344
     37 H15        -6.8466    0.8805   -6.9882 H         1 <0>         0.1675
     38 H16        -4.6128    0.3875   -1.5964 H         1 <0>         0.1365
     39 H17        -2.4553    0.5110   -0.5417 H         1 <0>         0.4054
@<TRIPOS>BOND
     1    1    2 1
     2    1   25 1
     3    1   26 1
     4    1   27 1
     5    2    3 1
     6    2   28 1
     7    2   29 1
     8    3    4 1
     9    3   30 1
    10    3   31 1
    11    4    5 1
    12    4   20 1
    13    4    6 1
    14    6    7 1
    15    6   32 1
    16    6   33 1
    17    7    8 1
    18    7   34 1
    19    7   35 1
    20    8   19 ar
    21    8    9 ar
    22    9   10 ar
    23    9   36 1
    24   10   17 ar
    25   10   11 1
    26   11   12 2
    27   11   21 1
    28   12   13 1
    29   12   37 1
    30   13   14 2
    31   13   15 am
    32   15   16 1
    33   15   17 1
    34   17   18 ar
    35   18   19 ar
    36   18   38 1
    37   19   20 1
    38   20   39 1
    39   21   22 1
    40   21   23 1
    41   21   24 1
@<TRIPOS>MOLECULE
ZINC03814407
   36    38     0     0     0
SMALL
USER_CHARGES

@<TRIPOS>ATOM
      1 C1         -6.0760    2.1450    0.1981 C.3       1 <0>        -0.1552
      2 C2         -4.8712    1.3133   -0.2462 C.3       1 <0>         0.1690
      3 C3         -4.8380   -0.0093    0.5306 C.3       1 <0>        -0.1275
      4 C4         -3.6715   -0.8534    0.0181 C.3       1 <0>        -0.0757
      5 C5         -2.3972   -0.0490    0.0213 C.ar      1 <0>        -0.1616
      6 C6         -1.2032   -0.7158    0.0091 C.ar      1 <0>        -0.0157
      7 C7          0.0021   -0.0041    0.0020 C.ar      1 <0>        -0.1704
      8 C8          1.2484   -0.6817   -0.0134 C.2       1 <0>        -0.0580
      9 C9          2.3950    0.0422   -0.0204 C.2       1 <0>        -0.1725
     10 C10         2.3480    1.4514   -0.0123 C.2       1 <0>         0.5415
     11 O1          3.3884    2.0868   -0.0187 O.2       1 <0>        -0.5252
     12 N1          1.1716    2.1058    0.0022 N.am      1 <0>        -0.6275
     13 H1          1.1591    3.1057    0.0075 H         1 <0>         0.4260
     14 C11        -0.0170    1.4050    0.0098 C.ar      1 <0>         0.2449
     15 C12        -1.2342    2.0693    0.0192 C.ar      1 <0>        -0.2503
     16 C13        -2.4189    1.3451    0.0312 C.ar      1 <0>         0.2889
     17 N2         -3.6292    2.0394    0.0497 N.pl3     1 <0>        -0.7261
     18 C14         1.2973   -2.1879   -0.0224 C.3       1 <0>         0.5056
     19 F1          2.6307   -2.6110   -0.0371 F         1 <0>        -0.1686
     20 F2          0.6640   -2.6819    1.1231 F         1 <0>        -0.1678
     21 F3          0.6428   -2.6690   -1.1613 F         1 <0>        -0.1678
     22 C15        -4.9608    1.0304   -1.7472 C.3       1 <0>        -0.1637
     23 H2         -6.0782    3.0954   -0.3357 H         1 <0>         0.0637
     24 H3         -6.9944    1.6016   -0.0238 H         1 <0>         0.0766
     25 H4         -6.0138    2.3307    1.2704 H         1 <0>         0.0645
     26 H5         -4.7025    0.1943    1.5928 H         1 <0>         0.0730
     27 H6         -5.7744   -0.5460    0.3782 H         1 <0>         0.0823
     28 H7         -3.8857   -1.1850   -0.9979 H         1 <0>         0.0798
     29 H8         -3.5486   -1.7257    0.6601 H         1 <0>         0.0805
     30 H9         -1.1902   -1.7958    0.0046 H         1 <0>         0.1343
     31 H10         3.3493   -0.4634   -0.0319 H         1 <0>         0.1674
     32 H11        -1.2606    3.1489    0.0257 H         1 <0>         0.1365
     33 H12        -3.6500    2.9873    0.2545 H         1 <0>         0.4052
     34 H13        -4.1077    0.4255   -2.0545 H         1 <0>         0.0646
     35 H14        -5.8840    0.4916   -1.9609 H         1 <0>         0.0692
     36 H15        -4.9547    1.9724   -2.2955 H         1 <0>         0.0600
@<TRIPOS>BOND
     1    1    2 1
     2    1   23 1
     3    1   24 1
     4    1   25 1
     5    2   17 1
     6    2    3 1
     7    2   22 1
     8    3    4 1
     9    3   26 1
    10    3   27 1
    11    4    5 1
    12    4   28 1
    13    4   29 1
    14    5   16 ar
    15    5    6 ar
    16    6    7 ar
    17    6   30 1
    18    7   14 ar
    19    7    8 1
    20    8    9 2
    21    8   18 1
    22    9   10 1
    23    9   31 1
    24   10   11 2
    25   10   12 am
    26   12   13 1
    27   12   14 1
    28   14   15 ar
    29   15   16 ar
    30   15   32 1
    31   16   17 1
    32   17   33 1
    33   18   19 1
    34   18   20 1
    35   18   21 1
    36   22   34 1
    37   22   35 1
    38   22   36 1
@<TRIPOS>MOLECULE
ZINC03814408
   54    57     0     0     0
SMALL
USER_CHARGES

@<TRIPOS>ATOM
      1 C1          0.2215   -0.2450    1.6731 C.3       1 <0>        -0.1477
      2 C2          0.2507    1.2249    2.0970 C.3       1 <0>        -0.1699
      3 C3         -0.7207    2.0101    1.2539 C.2       1 <0>         0.3711
      4 O1         -1.2960    1.4736    0.3377 O.2       1 <0>        -0.4476
      5 C4         -0.9742    3.4650    1.5543 C.3       1 <0>        -0.1005
      6 C5         -1.9143    4.0763    0.4872 C.3       1 <0>        -0.1185
      7 C6         -3.1465    4.6284    1.2563 C.3       1 <0>        -0.1154
      8 C7         -2.5957    4.8676    2.6686 C.3       1 <0>        -0.0758
      9 H1         -1.9899    5.7728    2.7101 H         1 <0>         0.0837
     10 C8         -1.7138    3.6092    2.8826 C.3       1 <0>        -0.0478
     11 C9         -0.8391    3.8770    4.0951 C.3       1 <0>        -0.1049
     12 C10        -1.7643    3.9176    5.3208 C.3       1 <0>        -0.1037
     13 C11        -2.9251    4.8651    5.0930 C.2       1 <0>        -0.0547
     14 C12        -3.2707    5.6644    6.1011 C.2       1 <0>        -0.1351
     15 C13        -2.5146    5.6192    7.4094 C.3       1 <0>        -0.0829
     16 C14        -2.3042    7.0537    7.9032 C.3       1 <0>        -0.1580
     17 C15        -3.6125    7.7976    7.8923 C.2       1 <0>         0.3863
     18 O2         -3.8472    8.6034    8.7703 O.2       1 <0>        -0.4709
     19 C16        -4.5402    7.6033    6.8702 C.2       1 <0>        -0.2534
     20 C17        -4.3855    6.6024    5.9761 C.2       1 <0>         0.0320
     21 C18        -5.3548    6.3981    4.8387 C.3       1 <0>        -0.0974
     22 C19        -4.5415    6.0930    3.5819 C.3       1 <0>        -0.1115
     23 C20        -3.6475    4.8788    3.7697 C.3       1 <0>        -0.0474
     24 H2         -4.2539    3.9767    3.6882 H         1 <0>         0.0930
     25 C21        -2.5862    2.3770    3.1307 C.3       1 <0>        -0.1619
     26 C22         0.3478    4.2339    1.5981 C.3       1 <0>        -0.1381
     27 H3         -0.7837   -0.6430    1.8112 H         1 <0>         0.0587
     28 H4          0.5034   -0.3260    0.6233 H         1 <0>         0.0614
     29 H5          0.9242   -0.8130    2.2829 H         1 <0>         0.0620
     30 H6         -0.0079    1.2992    3.0601 H         1 <0>         0.0890
     31 H7          1.2560    1.6229    1.9589 H         1 <0>         0.0979
     32 H8         -1.4071    4.8849   -0.0390 H         1 <0>         0.0702
     33 H9         -2.2276    3.3079   -0.2196 H         1 <0>         0.0841
     34 H10        -3.9506    3.8928    1.2760 H         1 <0>         0.0702
     35 H11        -3.4891    5.5634    0.8130 H         1 <0>         0.0697
     36 H12        -0.1070    3.0776    4.2088 H         1 <0>         0.0716
     37 H13        -0.3305    4.8344    3.9820 H         1 <0>         0.0741
     38 H14        -2.1513    2.9164    5.5106 H         1 <0>         0.0843
     39 H15        -1.1949    4.2509    6.1884 H         1 <0>         0.0866
     40 H16        -3.0913    5.0597    8.1460 H         1 <0>         0.0803
     41 H17        -1.5492    5.1366    7.2575 H         1 <0>         0.0944
     42 H18        -1.9444    7.0357    8.8361 H         1 <0>         0.0840
     43 H19        -1.5940    7.5608    7.2500 H         1 <0>         0.0986
     44 H20        -5.4079    8.2437    6.8113 H         1 <0>         0.1343
     45 H21        -5.9425    7.3035    4.6874 H         1 <0>         0.0852
     46 H22        -6.0166    5.5614    5.0623 H         1 <0>         0.0892
     47 H23        -3.9216    6.9568    3.3416 H         1 <0>         0.0684
     48 H24        -5.2256    5.9059    2.7542 H         1 <0>         0.0772
     49 H25        -1.9494    1.5045    3.2766 H         1 <0>         0.0585
     50 H26        -3.1945    2.5359    4.0211 H         1 <0>         0.0715
     51 H27        -3.2361    2.2129    2.2712 H         1 <0>         0.0622
     52 H28         0.8544    4.1406    0.6376 H         1 <0>         0.0589
     53 H29         0.1496    5.2859    1.8037 H         1 <0>         0.0687
     54 H30         0.9811    3.8232    2.3844 H         1 <0>         0.0656
@<TRIPOS>BOND
     1    1    2 1
     2    1   27 1
     3    1   28 1
     4    1   29 1
     5    2    3 1
     6    2   30 1
     7    2   31 1
     8    3    4 2
     9    3    5 1
    10    5   10 1
    11    5    6 1
    12    5   26 1
    13    6    7 1
    14    6   32 1
    15    6   33 1
    16    7    8 1
    17    7   34 1
    18    7   35 1
    19    8    9 1
    20    8   23 1
    21    8   10 1
    22   10   11 1
    23   10   25 1
    24   11   12 1
    25   11   36 1
    26   11   37 1
    27   12   13 1
    28   12   38 1
    29   12   39 1
    30   13   23 1
    31   13   14 2
    32   14   20 1
    33   14   15 1
    34   15   16 1
    35   15   40 1
    36   15   41 1
    37   16   17 1
    38   16   42 1
    39   16   43 1
    40   17   18 2
    41   17   19 1
    42   19   20 2
    43   19   44 1
    44   20   21 1
    45   21   22 1
    46   21   45 1
    47   21   46 1
    48   22   23 1
    49   22   47 1
    50   22   48 1
    51   23   24 1
    52   25   49 1
    53   25   50 1
    54   25   51 1
    55   26   52 1
    56   26   53 1
    57   26   54 1
@<TRIPOS>MOLECULE
ZINC03814409
   49    52     0     0     0
SMALL
USER_CHARGES

@<TRIPOS>ATOM
      1 C1          2.1857    1.3578    1.1599 C.3       1 <0>        -0.1353
      2 C2          1.4238    2.0006   -0.0008 C.3       1 <0>        -0.0563
      3 C3         -0.0238    1.5492    0.0228 C.3       1 <0>        -0.1027
      4 C4         -0.0202    0.0121    0.0256 C.3       1 <0>        -0.1230
      5 C5          0.7245   -0.5510   -1.1807 C.3       1 <0>        -0.0629
      6 H1          0.1725   -0.3090   -2.0889 H         1 <0>         0.0713
      7 C6          2.1489    0.0199   -1.2856 C.3       1 <0>        -0.0802
      8 H2          2.7233   -0.2641   -0.4038 H         1 <0>         0.0906
      9 C7          2.0291    1.5313   -1.3512 C.3       1 <0>        -0.0835
     10 H3          1.3980    1.8256   -2.1897 H         1 <0>         0.0768
     11 C8          3.3530    2.3035   -1.3823 C.3       1 <0>        -0.1139
     12 C9          2.9496    3.7080   -0.8565 C.3       1 <0>        -0.1574
     13 C10         1.6675    3.5060   -0.0107 C.3       1 <0>         0.1105
     14 H4          0.8259    4.0233   -0.4713 H         1 <0>         0.0569
     15 O1          1.8724    3.9832    1.3206 O.3       1 <0>        -0.5602
     16 C11         2.8296   -0.5073   -2.5488 C.3       1 <0>        -0.1114
     17 C12         2.9761   -2.0313   -2.4684 C.3       1 <0>        -0.0971
     18 C13         1.5949   -2.6138   -2.2201 C.2       1 <0>        -0.0206
     19 C14         1.1402   -3.5609   -3.0360 C.2       1 <0>        -0.2417
     20 C15        -0.2118   -4.0968   -2.8232 C.2       1 <0>         0.3874
     21 O2         -0.5280   -5.2084   -3.1925 O.2       1 <0>        -0.4567
     22 C16        -1.1886   -3.1773   -2.1146 C.3       1 <0>        -0.1581
     23 C17        -0.5262   -2.7086   -0.8196 C.3       1 <0>        -0.1107
     24 C18         0.8196   -2.0724   -1.0596 C.3       1 <0>        -0.0316
     25 C19         1.6528   -2.3557    0.1921 C.3       1 <0>        -0.1576
     26 H5          2.0828    0.2740    1.1061 H         1 <0>         0.0611
     27 H6          3.2401    1.6264    1.0954 H         1 <0>         0.0538
     28 H7          1.7769    1.7151    2.1051 H         1 <0>         0.0606
     29 H8         -0.5420    1.9177   -0.8625 H         1 <0>         0.0630
     30 H9         -0.5140    1.9209    0.9226 H         1 <0>         0.0675
     31 H10         0.4615   -0.3408    0.9375 H         1 <0>         0.0754
     32 H11        -1.0495   -0.3460    0.0071 H         1 <0>         0.0676
     33 H12         4.0853    1.8400   -0.7212 H         1 <0>         0.0702
     34 H13         3.7391    2.3659   -2.3997 H         1 <0>         0.0662
     35 H14         3.7463    4.1182   -0.2360 H         1 <0>         0.0725
     36 H15         2.7445    4.3759   -1.6930 H         1 <0>         0.0669
     37 H16         2.0724    4.9278    1.3735 H         1 <0>         0.3754
     38 H17         2.2277   -0.2472   -3.4195 H         1 <0>         0.0656
     39 H18         3.8169   -0.0551   -2.6433 H         1 <0>         0.0713
     40 H19         3.3755   -2.4144   -3.4075 H         1 <0>         0.0778
     41 H20         3.6421   -2.2960   -1.6471 H         1 <0>         0.0836
     42 H21         1.7553   -3.9303   -3.8432 H         1 <0>         0.1356
     43 H22        -1.3996   -2.3974   -2.7039 H         1 <0>         0.0890
     44 H23        -2.1064   -3.7187   -1.8856 H         1 <0>         0.0906
     45 H24        -1.1778   -1.9831   -0.3325 H         1 <0>         0.0892
     46 H25        -0.3971   -3.5658   -0.1589 H         1 <0>         0.0724
     47 H26         1.1582   -1.9252    1.0628 H         1 <0>         0.0685
     48 H27         1.7522   -3.4328    0.3262 H         1 <0>         0.0564
     49 H28         2.6414   -1.9108    0.0789 H         1 <0>         0.0668
@<TRIPOS>BOND
     1    1    2 1
     2    1   26 1
     3    1   27 1
     4    1   28 1
     5    2    9 1
     6    2   13 1
     7    2    3 1
     8    3    4 1
     9    3   29 1
    10    3   30 1
    11    4    5 1
    12    4   31 1
    13    4   32 1
    14    5    6 1
    15    5   24 1
    16    5    7 1
    17    7    8 1
    18    7    9 1
    19    7   16 1
    20    9   10 1
    21    9   11 1
    22   11   12 1
    23   11   33 1
    24   11   34 1
    25   12   13 1
    26   12   35 1
    27   12   36 1
    28   13   14 1
    29   13   15 1
    30   15   37 1
    31   16   17 1
    32   16   38 1
    33   16   39 1
    34   17   18 1
    35   17   40 1
    36   17   41 1
    37   18   24 1
    38   18   19 2
    39   19   20 1
    40   19   42 1
    41   20   21 2
    42   20   22 1
    43   22   23 1
    44   22   43 1
    45   22   44 1
    46   23   24 1
    47   23   45 1
    48   23   46 1
    49   24   25 1
    50   25   47 1
    51   25   48 1
    52   25   49 1
@<TRIPOS>MOLECULE
ZINC03814410
   45    48     0     0     0
SMALL
USER_CHARGES

@<TRIPOS>ATOM
      1 C1         -1.3989    3.9086   -0.4515 C.3       1 <0>        -0.1368
      2 C2         -1.9083    2.4796   -0.6503 C.3       1 <0>        -0.0582
      3 C3         -3.2090    2.5195   -1.4247 C.3       1 <0>        -0.1023
      4 C4         -4.1912    3.4099   -0.6776 C.3       1 <0>        -0.1142
      5 C5         -4.3889    2.9210    0.7499 C.3       1 <0>        -0.0418
      6 H1         -4.8316    1.9259    0.7071 H         1 <0>         0.0780
      7 C6         -5.3364    3.8005    1.5139 C.ar      1 <0>        -0.0629
      8 C7         -6.3872    4.3896    0.8242 C.ar      1 <0>        -0.1115
      9 C8         -7.2931    5.1995    1.4776 C.ar      1 <0>        -0.1327
     10 C9         -7.1545    5.4273    2.8375 C.ar      1 <0>         0.0775
     11 C10        -6.1019    4.8425    3.5286 C.ar      1 <0>         0.0767
     12 C11        -5.1856    4.0302    2.8656 C.ar      1 <0>        -0.0835
     13 C12        -4.0539    3.4511    3.6729 C.3       1 <0>        -0.0730
     14 C13        -3.3512    2.3247    2.9163 C.3       1 <0>        -0.1133
     15 C14        -3.0539    2.8136    1.4985 C.3       1 <0>        -0.0745
     16 H2         -2.5666    3.7883    1.5243 H         1 <0>         0.0863
     17 C15        -2.1921    1.8307    0.7333 C.3       1 <0>        -0.0824
     18 H3         -2.7126    0.8806    0.6125 H         1 <0>         0.0771
     19 C16        -0.7701    1.6018    1.2619 C.3       1 <0>        -0.1124
     20 C17        -0.0127    1.0858    0.0080 C.3       1 <0>        -0.1569
     21 C18        -0.7919    1.6138   -1.2225 C.3       1 <0>         0.1115
     22 H4         -1.2113    0.7826   -1.7893 H         1 <0>         0.0573
     23 O1          0.0672    2.3962   -2.0544 O.3       1 <0>        -0.5599
     24 O2         -5.9650    5.0642    4.8633 O.3       1 <0>        -0.4851
     25 O3         -8.0452    6.2196    3.4919 O.3       1 <0>        -0.4882
     26 H5         -1.1033    4.3261   -1.4140 H         1 <0>         0.0623
     27 H6         -2.1908    4.5196   -0.0183 H         1 <0>         0.0594
     28 H7         -0.5399    3.8981    0.2193 H         1 <0>         0.0542
     29 H8         -3.0322    2.9163   -2.4244 H         1 <0>         0.0694
     30 H9         -3.6294    1.5161   -1.4933 H         1 <0>         0.0617
     31 H10        -5.1509    3.4063   -1.1945 H         1 <0>         0.0679
     32 H11        -3.7980    4.4263   -0.6579 H         1 <0>         0.0707
     33 H12        -6.4971    4.2117   -0.2354 H         1 <0>         0.1312
     34 H13        -8.1065    5.6541    0.9317 H         1 <0>         0.1327
     35 H14        -3.3324    4.2383    3.8917 H         1 <0>         0.0795
     36 H15        -4.4485    3.0583    4.6100 H         1 <0>         0.0739
     37 H16        -3.9994    1.4493    2.8749 H         1 <0>         0.0652
     38 H17        -2.4190    2.0691    3.4200 H         1 <0>         0.0725
     39 H18        -0.7676    0.8494    2.0506 H         1 <0>         0.0670
     40 H19        -0.3355    2.5360    1.6175 H         1 <0>         0.0714
     41 H20         0.0021   -0.0041    0.0020 H         1 <0>         0.0674
     42 H21         1.0060    1.4735    0.0004 H         1 <0>         0.0728
     43 H22         0.8193    1.9063   -2.4140 H         1 <0>         0.3753
     44 H23        -6.4287    4.4223    5.4183 H         1 <0>         0.3843
     45 H24        -8.8061    5.7428    3.8507 H         1 <0>         0.3863
@<TRIPOS>BOND
     1    1    2 1
     2    1   26 1
     3    1   27 1
     4    1   28 1
     5    2   17 1
     6    2   21 1
     7    2    3 1
     8    3    4 1
     9    3   29 1
    10    3   30 1
    11    4    5 1
    12    4   31 1
    13    4   32 1
    14    5    6 1
    15    5   15 1
    16    5    7 1
    17    7   12 ar
    18    7    8 ar
    19    8    9 ar
    20    8   33 1
    21    9   10 ar
    22    9   34 1
    23   10   11 ar
    24   10   25 1
    25   11   12 ar
    26   11   24 1
    27   12   13 1
    28   13   14 1
    29   13   35 1
    30   13   36 1
    31   14   15 1
    32   14   37 1
    33   14   38 1
    34   15   16 1
    35   15   17 1
    36   17   18 1
    37   17   19 1
    38   19   20 1
    39   19   39 1
    40   19   40 1
    41   20   21 1
    42   20   41 1
    43   20   42 1
    44   21   22 1
    45   21   23 1
    46   23   43 1
    47   24   44 1
    48   25   45 1
@<TRIPOS>MOLECULE
ZINC03814411
   53    56     0     0     0
SMALL
USER_CHARGES

@<TRIPOS>ATOM
      1 C1         -0.0411   -0.4227   -2.5134 C.3       1 <0>        -0.1527
      2 C2         -0.0646    1.1071   -2.5072 C.3       1 <0>        -0.0435
      3 C3         -0.8126    1.6115   -3.7431 C.3       1 <0>        -0.1055
      4 C4         -0.1018    1.1220   -5.0062 C.3       1 <0>        -0.1545
      5 C5          1.3316    1.6569   -5.0248 C.3       1 <0>         0.1053
      6 H1          1.8378    1.3088   -5.9252 H         1 <0>         0.0507
      7 C6          2.0791    1.1521   -3.7914 C.3       1 <0>        -0.1100
      8 C7          1.3696    1.6400   -2.5271 C.3       1 <0>        -0.0682
      9 H2          1.3519    2.7299   -2.5204 H         1 <0>         0.0768
     10 C8          2.1196    1.1354   -1.2930 C.3       1 <0>        -0.1178
     11 C9          1.4103    1.6246   -0.0285 C.3       1 <0>        -0.1129
     12 C10        -0.0212    1.0871   -0.0072 C.3       1 <0>        -0.0757
     13 H3         -0.0054   -0.0028   -0.0125 H         1 <0>         0.0831
     14 C11        -0.7722    1.6015   -1.2451 C.3       1 <0>        -0.0658
     15 H4         -0.7735    2.6914   -1.2284 H         1 <0>         0.0650
     16 C12        -2.2199    1.1228   -1.2602 C.3       1 <0>        -0.1201
     17 C13        -2.9507    1.5076    0.0372 C.3       1 <0>        -0.1026
     18 C14        -2.1719    0.9052    1.1900 C.3       1 <0>        -0.0577
     19 C15        -0.7527    1.5832    1.2259 C.3       1 <0>        -0.0813
     20 H5         -0.8557    2.6679    1.1944 H         1 <0>         0.0733
     21 C16        -0.1826    1.1250    2.5725 C.3       1 <0>        -0.1122
     22 C17        -1.3994    1.2595    3.5285 C.3       1 <0>        -0.1539
     23 C18        -2.7129    1.1717    2.5909 C.3       1 <0>         0.1069
     24 H6         -3.2615    2.1134    2.6110 H         1 <0>         0.0579
     25 O1         -3.5569    0.0969    3.0085 O.3       1 <0>        -0.5583
     26 C19        -2.0125   -0.6013    0.9751 C.3       1 <0>        -0.1337
     27 O2          1.3072    3.0856   -5.0140 O.3       1 <0>        -0.5630
     28 H7          0.4918   -0.7815   -1.6328 H         1 <0>         0.0604
     29 H8         -1.0630   -0.8018   -2.4992 H         1 <0>         0.0555
     30 H9          0.4645   -0.7747   -3.4126 H         1 <0>         0.0566
     31 H10        -1.8337    1.2304   -3.7303 H         1 <0>         0.0630
     32 H11        -0.8316    2.7013   -3.7365 H         1 <0>         0.0665
     33 H12        -0.0830    0.0322   -5.0134 H         1 <0>         0.0733
     34 H13        -0.6353    1.4819   -5.8860 H         1 <0>         0.0613
     35 H14         3.1007    1.5319   -3.8043 H         1 <0>         0.0664
     36 H15         2.0964    0.0623   -3.8007 H         1 <0>         0.0760
     37 H16         3.1406    1.5166   -1.3073 H         1 <0>         0.0593
     38 H17         2.1386    0.0455   -1.3001 H         1 <0>         0.0631
     39 H18         1.3894    2.7144   -0.0222 H         1 <0>         0.0595
     40 H19         1.9461    1.2663    0.8505 H         1 <0>         0.0609
     41 H20        -2.7359    1.5741   -2.1076 H         1 <0>         0.0623
     42 H21        -2.2358    0.0384   -1.3693 H         1 <0>         0.0700
     43 H22        -2.9815    2.5926    0.1375 H         1 <0>         0.0607
     44 H23        -3.9641    1.1066    0.0247 H         1 <0>         0.0643
     45 H24         0.1520    0.0891    2.5174 H         1 <0>         0.0692
     46 H25         0.6308    1.7779    2.8892 H         1 <0>         0.0663
     47 H26        -1.3958    0.4471    4.2552 H         1 <0>         0.0696
     48 H27        -1.3674    2.2205    4.0419 H         1 <0>         0.0655
     49 H28        -3.9306    0.2111    3.8930 H         1 <0>         0.3746
     50 H29        -1.5481   -0.7829    0.0059 H         1 <0>         0.0610
     51 H30        -1.3835   -1.0161    1.7628 H         1 <0>         0.0525
     52 H31        -2.9922   -1.0780    1.0036 H         1 <0>         0.0583
     53 H32         0.8469    3.4768   -5.7692 H         1 <0>         0.3745
@<TRIPOS>BOND
     1    1    2 1
     2    1   28 1
     3    1   29 1
     4    1   30 1
     5    2    8 1
     6    2   14 1
     7    2    3 1
     8    3    4 1
     9    3   31 1
    10    3   32 1
    11    4    5 1
    12    4   33 1
    13    4   34 1
    14    5    6 1
    15    5    7 1
    16    5   27 1
    17    7    8 1
    18    7   35 1
    19    7   36 1
    20    8    9 1
    21    8   10 1
    22   10   11 1
    23   10   37 1
    24   10   38 1
    25   11   12 1
    26   11   39 1
    27   11   40 1
    28   12   13 1
    29   12   19 1
    30   12   14 1
    31   14   15 1
    32   14   16 1
    33   16   17 1
    34   16   41 1
    35   16   42 1
    36   17   18 1
    37   17   43 1
    38   17   44 1
    39   18   23 1
    40   18   19 1
    41   18   26 1
    42   19   20 1
    43   19   21 1
    44   21   22 1
    45   21   45 1
    46   21   46 1
    47   22   23 1
    48   22   47 1
    49   22   48 1
    50   23   24 1
    51   23   25 1
    52   25   49 1
    53   26   50 1
    54   26   51 1
    55   26   52 1
    56   27   53 1
@<TRIPOS>MOLECULE
ZINC03814412
   53    56     0     0     0
SMALL
USER_CHARGES

@<TRIPOS>ATOM
      1 C1         -3.1547    3.8587   -4.2664 C.3       1 <0>        -0.1527
      2 C2         -3.8341    2.5062   -4.0425 C.3       1 <0>        -0.0473
      3 C3         -3.8546    1.7224   -5.3563 C.3       1 <0>        -0.1087
      4 C4         -4.6282    2.5165   -6.4110 C.3       1 <0>        -0.1536
      5 C5         -6.0629    2.7411   -5.9291 C.3       1 <0>         0.1051
      6 H1         -6.5480    1.7779   -5.7708 H         1 <0>         0.0517
      7 C6         -6.0429    3.5241   -4.6149 C.3       1 <0>        -0.1096
      8 C7         -5.2687    2.7308   -3.5599 C.3       1 <0>        -0.0707
      9 H2         -5.7537    1.7677   -3.4012 H         1 <0>         0.0696
     10 C8         -5.2500    3.5149   -2.2463 C.3       1 <0>        -0.1155
     11 C9         -4.4674    2.7296   -1.1918 C.3       1 <0>        -0.1122
     12 C10        -3.0327    2.5174   -1.6772 C.3       1 <0>        -0.0741
     13 H3         -2.5401    3.4756   -1.8423 H         1 <0>         0.0851
     14 C11        -3.0592    1.7151   -2.9877 C.3       1 <0>        -0.0672
     15 H4         -3.5800    0.7733   -2.8147 H         1 <0>         0.0646
     16 C12        -1.6512    1.4162   -3.4909 C.3       1 <0>        -0.1191
     17 C13        -0.8113    0.7256   -2.4262 C.3       1 <0>        -0.1028
     18 C14        -0.7895    1.6104   -1.1950 C.3       1 <0>        -0.0562
     19 C15        -2.2464    1.7049   -0.6660 C.3       1 <0>        -0.0836
     20 H5         -2.6791    0.7102   -0.5597 H         1 <0>         0.0735
     21 C16        -2.0350    2.3454    0.7103 C.3       1 <0>        -0.1127
     22 C17        -0.7782    1.6054    1.2504 C.3       1 <0>        -0.1568
     23 C18        -0.0127    1.0858    0.0080 C.3       1 <0>         0.1102
     24 H6          0.0021   -0.0041    0.0020 H         1 <0>         0.0559
     25 O1          1.3211    1.5984   -0.0020 O.3       1 <0>        -0.5601
     26 C19        -0.2836    3.0050   -1.5693 C.3       1 <0>        -0.1345
     27 O2         -6.7856    3.4823   -6.9142 O.3       1 <0>        -0.5699
     28 H7         -2.1325    3.6994   -4.6097 H         1 <0>         0.0560
     29 H8         -3.7068    4.4227   -5.0182 H         1 <0>         0.0597
     30 H9         -3.1407    4.4176   -3.3306 H         1 <0>         0.0611
     31 H10        -2.8326    1.5617   -5.6997 H         1 <0>         0.0695
     32 H11        -4.3403    0.7596   -5.1976 H         1 <0>         0.0616
     33 H12        -4.1429    3.4797   -6.5689 H         1 <0>         0.0741
     34 H13        -4.6425    1.9590   -7.3475 H         1 <0>         0.0616
     35 H14        -5.5580    4.4874   -4.7733 H         1 <0>         0.0732
     36 H15        -7.0650    3.6839   -4.2716 H         1 <0>         0.0671
     37 H16        -4.7729    4.4816   -2.4073 H         1 <0>         0.0664
     38 H17        -6.2722    3.6677   -1.9002 H         1 <0>         0.0617
     39 H18        -4.9436    1.7624   -1.0311 H         1 <0>         0.0603
     40 H19        -4.4556    3.2891   -0.2564 H         1 <0>         0.0629
     41 H20        -1.7155    0.7757   -4.3705 H         1 <0>         0.0633
     42 H21        -1.1650    2.3521   -3.7665 H         1 <0>         0.0700
     43 H22         0.2042    0.5745   -2.7923 H         1 <0>         0.0648
     44 H23        -1.2661   -0.2350   -2.1845 H         1 <0>         0.0594
     45 H24        -1.8406    3.4135    0.6129 H         1 <0>         0.0696
     46 H25        -2.8965    2.1688    1.3543 H         1 <0>         0.0654
     47 H26        -1.0782    0.7691    1.8818 H         1 <0>         0.0663
     48 H27        -0.1506    2.2948    1.8152 H         1 <0>         0.0721
     49 H28         1.8573    1.3145    0.7510 H         1 <0>         0.3745
     50 H29         0.7697    2.9478   -1.8441 H         1 <0>         0.0604
     51 H30        -0.8590    3.3859   -2.4130 H         1 <0>         0.0604
     52 H31        -0.4009    3.6748   -0.7174 H         1 <0>         0.0529
     53 H32        -6.8389    3.0447   -7.7749 H         1 <0>         0.3773
@<TRIPOS>BOND
     1    1    2 1
     2    1   28 1
     3    1   29 1
     4    1   30 1
     5    2    8 1
     6    2   14 1
     7    2    3 1
     8    3    4 1
     9    3   31 1
    10    3   32 1
    11    4    5 1
    12    4   33 1
    13    4   34 1
    14    5    6 1
    15    5    7 1
    16    5   27 1
    17    7    8 1
    18    7   35 1
    19    7   36 1
    20    8    9 1
    21    8   10 1
    22   10   11 1
    23   10   37 1
    24   10   38 1
    25   11   12 1
    26   11   39 1
    27   11   40 1
    28   12   13 1
    29   12   19 1
    30   12   14 1
    31   14   15 1
    32   14   16 1
    33   16   17 1
    34   16   41 1
    35   16   42 1
    36   17   18 1
    37   17   43 1
    38   17   44 1
    39   18   23 1
    40   18   19 1
    41   18   26 1
    42   19   20 1
    43   19   21 1
    44   21   22 1
    45   21   45 1
    46   21   46 1
    47   22   23 1
    48   22   47 1
    49   22   48 1
    50   23   24 1
    51   23   25 1
    52   25   49 1
    53   26   50 1
    54   26   51 1
    55   26   52 1
    56   27   53 1
@<TRIPOS>MOLECULE
ZINC03814413
   51    54     0     0     0
SMALL
USER_CHARGES

@<TRIPOS>ATOM
      1 C1          3.3401    1.5690   -3.7253 C.3       1 <0>        -0.1339
      2 C2          4.2566    1.3645   -2.5174 C.3       1 <0>        -0.0571
      3 C3          4.4613   -0.1182   -2.2728 C.3       1 <0>        -0.1031
      4 C4          3.0676   -0.7539   -2.1477 C.3       1 <0>        -0.1217
      5 C5          2.2506   -0.1075   -1.0332 C.3       1 <0>        -0.0644
      6 H1          2.7252   -0.3399   -0.0799 H         1 <0>         0.0669
      7 C6          2.1682    1.4179   -1.1981 C.3       1 <0>        -0.0759
      8 H2          1.6532    1.6606   -2.1276 H         1 <0>         0.0871
      9 C7          3.5885    1.9504   -1.2446 C.3       1 <0>        -0.0836
     10 H3          4.1363    1.6461   -0.3528 H         1 <0>         0.0750
     11 C8          3.7286    3.4575   -1.4863 C.3       1 <0>        -0.1127
     12 C9          5.1670    3.5859   -2.0579 C.3       1 <0>        -0.1569
     13 C10         5.5179    2.2082   -2.6721 C.3       1 <0>         0.1103
     14 H4          6.3460    1.7525   -2.1292 H         1 <0>         0.0564
     15 O1          5.8505    2.3525   -4.0544 O.3       1 <0>        -0.5598
     16 C11         1.4274    2.0180   -0.0007 C.3       1 <0>        -0.1102
     17 C12        -0.0185    1.5152    0.0104 C.3       1 <0>        -0.0881
     18 C13         0.0021   -0.0041    0.0020 C.2       1 <0>        -0.0843
     19 C14        -0.7020   -0.6348    0.8961 C.2       1 <0>        -0.1994
     20 C15        -0.7347   -2.1324    1.0085 C.3       1 <0>         0.1383
     21 H5          0.0164   -2.4710    1.7222 H         1 <0>         0.0627
     22 C16        -0.4427   -2.7369   -0.3685 C.3       1 <0>        -0.1114
     23 C17         0.8990   -2.1932   -0.8593 C.3       1 <0>        -0.1072
     24 C18         0.8322   -0.6873   -1.0443 C.3       1 <0>        -0.0165
     25 C19         0.2097   -0.4000   -2.4121 C.3       1 <0>        -0.1480
     26 O2         -2.0309   -2.5447    1.4466 O.3       1 <0>        -0.5647
     27 H6          3.1620    2.6346   -3.8700 H         1 <0>         0.0532
     28 H7          3.8145    1.1558   -4.6154 H         1 <0>         0.0590
     29 H8          2.3909    1.0623   -3.5511 H         1 <0>         0.0615
     30 H9          4.9980   -0.5622   -3.1112 H         1 <0>         0.0658
     31 H10         5.0234   -0.2684   -1.3511 H         1 <0>         0.0613
     32 H11         3.1796   -1.8171   -1.9355 H         1 <0>         0.0632
     33 H12         2.5367   -0.6353   -3.0922 H         1 <0>         0.0732
     34 H13         2.9927    3.8016   -2.2130 H         1 <0>         0.0702
     35 H14         3.6349    4.0085   -0.5505 H         1 <0>         0.0655
     36 H15         5.8670    3.8282   -1.2583 H         1 <0>         0.0662
     37 H16         5.1971    4.3572   -2.8275 H         1 <0>         0.0722
     38 H17         6.6449    2.8802   -4.2147 H         1 <0>         0.3747
     39 H18         1.4332    3.1053   -0.0778 H         1 <0>         0.0657
     40 H19         1.9238    1.7167    0.9217 H         1 <0>         0.0620
     41 H20        -0.5409    1.8801   -0.8740 H         1 <0>         0.0730
     42 H21        -0.5238    1.8705    0.9084 H         1 <0>         0.0677
     43 H22        -1.2744   -0.0535    1.6037 H         1 <0>         0.1078
     44 H23        -1.2305   -2.4557   -1.0673 H         1 <0>         0.0728
     45 H24        -0.3920   -3.8228   -0.2894 H         1 <0>         0.0713
     46 H25         1.1494   -2.6612   -1.8114 H         1 <0>         0.0752
     47 H26         1.6714   -2.4313   -0.1281 H         1 <0>         0.0646
     48 H27         0.1979    0.6758   -2.5872 H         1 <0>         0.0600
     49 H28         0.7983   -0.8880   -3.1889 H         1 <0>         0.0628
     50 H29        -0.8105   -0.7830   -2.4346 H         1 <0>         0.0553
     51 H30        -2.2817   -2.1978    2.3137 H         1 <0>         0.3778
@<TRIPOS>BOND
     1    1    2 1
     2    1   27 1
     3    1   28 1
     4    1   29 1
     5    2    9 1
     6    2   13 1
     7    2    3 1
     8    3    4 1
     9    3   30 1
    10    3   31 1
    11    4    5 1
    12    4   32 1
    13    4   33 1
    14    5    6 1
    15    5   24 1
    16    5    7 1
    17    7    8 1
    18    7    9 1
    19    7   16 1
    20    9   10 1
    21    9   11 1
    22   11   12 1
    23   11   34 1
    24   11   35 1
    25   12   13 1
    26   12   36 1
    27   12   37 1
    28   13   14 1
    29   13   15 1
    30   15   38 1
    31   16   17 1
    32   16   39 1
    33   16   40 1
    34   17   18 1
    35   17   41 1
    36   17   42 1
    37   18   24 1
    38   18   19 2
    39   19   20 1
    40   19   43 1
    41   20   21 1
    42   20   22 1
    43   20   26 1
    44   22   23 1
    45   22   44 1
    46   22   45 1
    47   23   24 1
    48   23   46 1
    49   23   47 1
    50   24   25 1
    51   25   48 1
    52   25   49 1
    53   25   50 1
    54   26   51 1
@<TRIPOS>MOLECULE
ZINC03814414
   51    54     0     0     0
SMALL
USER_CHARGES

@<TRIPOS>ATOM
      1 C1          0.4511    3.0662    5.2226 C.3       1 <0>        -0.1318
      2 C2          0.9877    1.6343    5.1721 C.3       1 <0>        -0.0537
      3 C3          1.9743    1.4586    4.0311 C.3       1 <0>        -0.1031
      4 C4          1.2549    1.8837    2.7417 C.3       1 <0>        -0.1210
      5 C5         -0.0153    1.0714    2.5074 C.3       1 <0>        -0.0660
      6 H1          0.2682    0.0341    2.3291 H         1 <0>         0.0652
      7 C6         -0.9520    1.1151    3.7229 C.3       1 <0>        -0.0675
      8 H2         -1.3171    2.1271    3.8976 H         1 <0>         0.0833
      9 C7         -0.1669    0.6269    4.9247 C.3       1 <0>        -0.0848
     10 H3          0.2476   -0.3596    4.7172 H         1 <0>         0.0723
     11 C8         -0.9062    0.6042    6.2584 C.3       1 <0>        -0.1118
     12 C9          0.1696    0.9179    7.3280 C.3       1 <0>        -0.1573
     13 C10         1.4869    1.1991    6.5547 C.3       1 <0>         0.1075
     14 H4          2.0919    0.2953    6.4822 H         1 <0>         0.0605
     15 O1          2.2253    2.2508    7.1796 O.3       1 <0>        -0.5592
     16 C11        -2.1266    0.1677    3.4550 C.3       1 <0>        -0.0842
     17 C12        -2.7951    0.5612    2.1701 C.2       1 <0>        -0.1546
     18 C13        -2.1744    1.1784    1.2079 C.2       1 <0>        -0.1046
     19 C14        -0.7302    1.5800    1.2673 C.3       1 <0>        -0.0140
     20 C15        -0.0127    1.0858    0.0080 C.3       1 <0>        -0.1036
     21 C16        -0.7534    1.5930   -1.2310 C.3       1 <0>        -0.1156
     22 C17        -2.1671    1.0097   -1.2607 C.3       1 <0>         0.1086
     23 H5         -2.1120   -0.0784   -1.2266 H         1 <0>         0.0545
     24 C18        -2.9551    1.5191   -0.0503 C.3       1 <0>        -0.1171
     25 O2         -2.8249    1.4159   -2.4625 O.3       1 <0>        -0.5687
     26 C19        -0.6603    3.1083    1.2858 C.3       1 <0>        -0.1510
     27 H6         -0.2738    3.1542    6.0318 H         1 <0>         0.0531
     28 H7          1.2758    3.7573    5.3968 H         1 <0>         0.0596
     29 H8         -0.0310    3.3072    4.2752 H         1 <0>         0.0602
     30 H9          2.8476    2.0900    4.1947 H         1 <0>         0.0672
     31 H10         2.2779    0.4142    3.9601 H         1 <0>         0.0615
     32 H11         0.9933    2.9394    2.8125 H         1 <0>         0.0757
     33 H12         1.9281    1.7420    1.8963 H         1 <0>         0.0620
     34 H13        -1.6853    1.3664    6.2714 H         1 <0>         0.0673
     35 H14        -1.3391   -0.3807    6.4335 H         1 <0>         0.0650
     36 H15        -0.1207    1.7963    7.9043 H         1 <0>         0.0735
     37 H16         0.2998    0.0618    7.9899 H         1 <0>         0.0641
     38 H17         2.4980    2.0549    8.0865 H         1 <0>         0.3755
     39 H18        -2.8429    0.2353    4.2737 H         1 <0>         0.0707
     40 H19        -1.7585   -0.8552    3.3755 H         1 <0>         0.0725
     41 H20        -3.8398    0.3212    2.0384 H         1 <0>         0.1033
     42 H21         0.0021   -0.0041    0.0020 H         1 <0>         0.0640
     43 H22         1.0098    1.4634    0.0003 H         1 <0>         0.0737
     44 H23        -0.8106    2.6810   -1.1993 H         1 <0>         0.0743
     45 H24        -0.2153    1.2840   -2.1271 H         1 <0>         0.0700
     46 H25        -3.0814    2.5993   -0.1227 H         1 <0>         0.0798
     47 H26        -3.9320    1.0366   -0.0187 H         1 <0>         0.0688
     48 H27        -3.7281    1.0816   -2.5488 H         1 <0>         0.3779
     49 H28        -1.1484    3.5051    0.3956 H         1 <0>         0.0570
     50 H29        -1.1657    3.4843    2.1754 H         1 <0>         0.0552
     51 H30         0.3828    3.4242    1.2997 H         1 <0>         0.0655
@<TRIPOS>BOND
     1    1    2 1
     2    1   27 1
     3    1   28 1
     4    1   29 1
     5    2    9 1
     6    2   13 1
     7    2    3 1
     8    3    4 1
     9    3   30 1
    10    3   31 1
    11    4    5 1
    12    4   32 1
    13    4   33 1
    14    5    6 1
    15    5   19 1
    16    5    7 1
    17    7    8 1
    18    7    9 1
    19    7   16 1
    20    9   10 1
    21    9   11 1
    22   11   12 1
    23   11   34 1
    24   11   35 1
    25   12   13 1
    26   12   36 1
    27   12   37 1
    28   13   14 1
    29   13   15 1
    30   15   38 1
    31   16   17 1
    32   16   39 1
    33   16   40 1
    34   17   18 2
    35   17   41 1
    36   18   24 1
    37   18   19 1
    38   19   20 1
    39   19   26 1
    40   20   21 1
    41   20   42 1
    42   20   43 1
    43   21   22 1
    44   21   44 1
    45   21   45 1
    46   22   23 1
    47   22   24 1
    48   22   25 1
    49   24   46 1
    50   24   47 1
    51   25   48 1
    52   26   49 1
    53   26   50 1
    54   26   51 1
@<TRIPOS>MOLECULE
ZINC03814415
   48    51     0     0     0
SMALL
USER_CHARGES

@<TRIPOS>ATOM
      1 C1         -1.2897    4.0120   -0.1419 C.3       1 <0>        -0.1343
      2 C2         -0.7191    3.5729    1.2081 C.3       1 <0>        -0.0446
      3 C3          0.7074    4.0685    1.3488 C.3       1 <0>        -0.1011
      4 C4          1.4841    3.5663    0.1214 C.3       1 <0>        -0.1183
      5 C5          1.4264    2.0466   -0.0006 C.3       1 <0>        -0.0717
      6 H1          1.9658    1.6115    0.8407 H         1 <0>         0.0716
      7 C6         -0.0187    1.5275    0.0104 C.3       1 <0>        -0.0754
      8 H2         -0.5546    1.8977   -0.8636 H         1 <0>         0.0876
      9 C7         -0.6745    2.0232    1.2865 C.3       1 <0>        -0.0819
     10 H3         -0.1016    1.7021    2.1564 H         1 <0>         0.0784
     11 C8         -2.1592    1.6784    1.4488 C.3       1 <0>        -0.1128
     12 C9         -2.6588    2.7552    2.4503 C.3       1 <0>        -0.1452
     13 C10        -1.6847    3.9532    2.3258 C.3       1 <0>         0.2503
     14 C11        -0.9527    4.1487    3.5878 C.1       1 <0>        -0.2102
     15 C12        -0.3688    4.3047    4.5943 C.1       1 <0>        -0.1803
     16 O1         -2.4011    5.1400    1.9788 O.3       1 <0>        -0.5405
     17 C13         0.0021   -0.0041    0.0020 C.3       1 <0>        -0.1137
     18 C14         0.6015   -0.4904   -1.3192 C.3       1 <0>        -0.0972
     19 C15         1.9698    0.1419   -1.4981 C.2       1 <0>        -0.0238
     20 C16         2.9832   -0.6571   -1.8319 C.2       1 <0>        -0.2444
     21 C17         4.3240   -0.0973   -2.0338 C.2       1 <0>         0.3867
     22 O2          5.3209   -0.7849   -1.9601 O.2       1 <0>        -0.4575
     23 C18         4.3982    1.3858   -2.3400 C.3       1 <0>        -0.1597
     24 C19         3.5479    2.1105   -1.2976 C.3       1 <0>        -0.1095
     25 C20         2.1106    1.6205   -1.3054 C.3       1 <0>        -0.0601
     26 H4          1.5889    2.1186   -2.1226 H         1 <0>         0.0909
     27 H5         -0.6900    3.5854   -0.9459 H         1 <0>         0.0640
     28 H6         -2.3186    3.6638   -0.2321 H         1 <0>         0.0579
     29 H7         -1.2669    5.0997   -0.2095 H         1 <0>         0.0618
     30 H8          1.1520    3.6671    2.2595 H         1 <0>         0.0646
     31 H9          0.7210    5.1581    1.3768 H         1 <0>         0.0670
     32 H10         2.5254    3.8766    0.2084 H         1 <0>         0.0665
     33 H11         1.0546    4.0115   -0.7761 H         1 <0>         0.0698
     34 H12        -2.2796    0.6785    1.8657 H         1 <0>         0.0703
     35 H13        -2.6840    1.7637    0.4973 H         1 <0>         0.0753
     36 H14        -2.6378    2.3599    3.4659 H         1 <0>         0.0720
     37 H15        -3.6706    3.0672    2.1915 H         1 <0>         0.0809
     38 H16         0.1534    4.4441    5.4945 H         1 <0>         0.2181
     39 H17        -3.0309    5.4304    2.6527 H         1 <0>         0.3785
     40 H18         0.6093   -0.3648    0.8322 H         1 <0>         0.0658
     41 H19        -1.0150   -0.3828    0.1031 H         1 <0>         0.0729
     42 H20         0.7005   -1.5756   -1.2979 H         1 <0>         0.0779
     43 H21        -0.0472   -0.1969   -2.1446 H         1 <0>         0.0846
     44 H22         2.8170   -1.7173   -1.9535 H         1 <0>         0.1336
     45 H23         4.0477    1.5539   -3.2614 H         1 <0>         0.0902
     46 H24         5.4318    1.7260   -2.2766 H         1 <0>         0.0916
     47 H25         3.5601    3.1796   -1.5099 H         1 <0>         0.0833
     48 H26         3.9763    1.9396   -0.3100 H         1 <0>         0.0700
@<TRIPOS>BOND
     1    1    2 1
     2    1   27 1
     3    1   28 1
     4    1   29 1
     5    2    9 1
     6    2   13 1
     7    2    3 1
     8    3    4 1
     9    3   30 1
    10    3   31 1
    11    4    5 1
    12    4   32 1
    13    4   33 1
    14    5    6 1
    15    5   25 1
    16    5    7 1
    17    7    8 1
    18    7    9 1
    19    7   17 1
    20    9   10 1
    21    9   11 1
    22   11   12 1
    23   11   34 1
    24   11   35 1
    25   12   13 1
    26   12   36 1
    27   12   37 1
    28   13   14 1
    29   13   16 1
    30   14   15 3
    31   15   38 1
    32   16   39 1
    33   17   18 1
    34   17   40 1
    35   17   41 1
    36   18   19 1
    37   18   42 1
    38   18   43 1
    39   19   25 1
    40   19   20 2
    41   20   21 1
    42   20   44 1
    43   21   22 2
    44   21   23 1
    45   23   24 1
    46   23   45 1
    47   23   46 1
    48   24   25 1
    49   24   47 1
    50   24   48 1
    51   25   26 1
@<TRIPOS>MOLECULE
ZINC03814416
   43    46     0     0     0
SMALL
USER_CHARGES

@<TRIPOS>ATOM
      1 C1         -4.4750   -0.2562    1.5791 C.3       1 <0>        -0.1360
      2 C2         -4.4278    1.1480    2.1850 C.3       1 <0>        -0.0588
      3 C3         -5.0559    2.1285    1.2169 C.3       1 <0>        -0.1027
      4 C4         -4.3168    1.9956   -0.1283 C.3       1 <0>        -0.1134
      5 C5         -2.8255    2.2396    0.0519 C.3       1 <0>        -0.0437
      6 H1         -2.7049    3.2620    0.4099 H         1 <0>         0.0746
      7 C6         -2.0772    2.1120   -1.2428 C.ar      1 <0>        -0.0686
      8 C7         -2.7041    2.5285   -2.4091 C.ar      1 <0>        -0.1204
      9 C8         -2.0509    2.4529   -3.6217 C.ar      1 <0>        -0.1229
     10 C9         -0.7616    1.9565   -3.6759 C.ar      1 <0>        -0.1222
     11 C10        -0.1392    1.5369   -2.5191 C.ar      1 <0>        -0.1223
     12 C11        -0.7943    1.6091   -1.2961 C.ar      1 <0>        -0.0754
     13 C12        -0.0552    1.1239   -0.0769 C.3       1 <0>        -0.0810
     14 C13        -0.7323    1.6015    1.2072 C.3       1 <0>        -0.1128
     15 C14        -2.2254    1.2972    1.1035 C.3       1 <0>        -0.0745
     16 H2         -2.3851    0.2614    0.8039 H         1 <0>         0.0857
     17 C15        -2.9484    1.5704    2.4062 C.3       1 <0>        -0.0826
     18 H3         -2.8858    2.6281    2.6620 H         1 <0>         0.0774
     19 C16        -2.5516    0.6877    3.5945 C.3       1 <0>        -0.1122
     20 C17        -3.8008    0.7606    4.5147 C.3       1 <0>        -0.1565
     21 C18        -4.9985    1.1149    3.5980 C.3       1 <0>         0.1108
     22 H4         -5.4043    2.0908    3.8645 H         1 <0>         0.0571
     23 O1         -6.0128    0.1133    3.6992 O.3       1 <0>        -0.5599
     24 H5         -3.9360   -0.9490    2.2253 H         1 <0>         0.0539
     25 H6         -5.5126   -0.5775    1.4873 H         1 <0>         0.0609
     26 H7         -4.0103   -0.2424    0.5933 H         1 <0>         0.0603
     27 H8         -6.1115    1.8915    1.0836 H         1 <0>         0.0681
     28 H9         -4.9496    3.1440    1.5983 H         1 <0>         0.0627
     29 H10        -4.7176    2.7251   -0.8320 H         1 <0>         0.0656
     30 H11        -4.4711    0.9923   -0.5253 H         1 <0>         0.0702
     31 H12        -3.7117    2.9151   -2.3668 H         1 <0>         0.1220
     32 H13        -2.5446    2.7797   -4.5250 H         1 <0>         0.1205
     33 H14        -0.2432    1.8978   -4.6216 H         1 <0>         0.1203
     34 H15         0.8676    1.1486   -2.5643 H         1 <0>         0.1191
     35 H16        -0.0315    0.0342   -0.0840 H         1 <0>         0.0751
     36 H17         0.9662    1.5033   -0.1043 H         1 <0>         0.0738
     37 H18        -0.3098    1.0754    2.0632 H         1 <0>         0.0703
     38 H19        -0.5831    2.6748    1.3243 H         1 <0>         0.0647
     39 H20        -2.3709   -0.3371    3.2702 H         1 <0>         0.0712
     40 H21        -1.6756    1.0934    4.1006 H         1 <0>         0.0667
     41 H22        -3.6651    1.5356    5.2691 H         1 <0>         0.0671
     42 H23        -3.9691   -0.2037    4.9942 H         1 <0>         0.0727
     43 H24        -6.4129    0.0459    4.5769 H         1 <0>         0.3749
@<TRIPOS>BOND
     1    1    2 1
     2    1   24 1
     3    1   25 1
     4    1   26 1
     5    2   17 1
     6    2   21 1
     7    2    3 1
     8    3    4 1
     9    3   27 1
    10    3   28 1
    11    4    5 1
    12    4   29 1
    13    4   30 1
    14    5    6 1
    15    5   15 1
    16    5    7 1
    17    7   12 ar
    18    7    8 ar
    19    8    9 ar
    20    8   31 1
    21    9   10 ar
    22    9   32 1
    23   10   11 ar
    24   10   33 1
    25   11   12 ar
    26   11   34 1
    27   12   13 1
    28   13   14 1
    29   13   35 1
    30   13   36 1
    31   14   15 1
    32   14   37 1
    33   14   38 1
    34   15   16 1
    35   15   17 1
    36   17   18 1
    37   17   19 1
    38   19   20 1
    39   19   39 1
    40   19   40 1
    41   20   21 1
    42   20   41 1
    43   20   42 1
    44   21   22 1
    45   21   23 1
    46   23   43 1
@<TRIPOS>MOLECULE
ZINC03814417
   47    50     0     0     0
SMALL
USER_CHARGES

@<TRIPOS>ATOM
      1 C1          1.9242    2.0636    1.4311 C.3       1 <0>        -0.1513
      2 C2          1.3841    2.1048    0.0001 C.3       1 <0>        -0.0292
      3 C3         -0.1009    1.7919    0.0492 C.3       1 <0>        -0.1067
      4 C4         -0.3593    0.2892    0.1468 C.3       1 <0>        -0.1600
      5 C5          0.2983   -0.3633   -1.0535 C.2       1 <0>         0.3880
      6 O1         -0.2975   -1.1500   -1.7594 O.2       1 <0>        -0.4561
      7 C6          1.6931    0.0076   -1.3162 C.2       1 <0>        -0.2417
      8 C7          2.1844    1.1453   -0.8255 C.2       1 <0>        -0.0185
      9 C8          3.6388    1.4691   -1.1148 C.3       1 <0>        -0.0969
     10 C9          3.7320    2.9096   -1.6222 C.3       1 <0>        -0.1138
     11 C10         3.0815    3.8464   -0.5997 C.3       1 <0>        -0.0781
     12 H1          3.5432    3.7094    0.3781 H         1 <0>         0.0920
     13 C11         1.5803    3.5341   -0.5206 C.3       1 <0>        -0.0684
     14 H2          1.1513    3.5993   -1.5205 H         1 <0>         0.0725
     15 C12         0.8466    4.5060    0.3987 C.3       1 <0>        -0.1218
     16 C13         1.1045    5.9681    0.0015 C.3       1 <0>        -0.0979
     17 C14         2.6045    6.1846    0.0405 C.3       1 <0>        -0.1245
     18 C15         3.2273    5.2857   -1.0613 C.3       1 <0>        -0.0787
     19 H3          2.7174    5.4349   -2.0130 H         1 <0>         0.0847
     20 C16         4.6640    5.8178   -1.1031 C.3       1 <0>        -0.1134
     21 C17         4.4528    7.3521   -0.9862 C.3       1 <0>        -0.1765
     22 C18         3.1010    7.5562   -0.3098 C.2       1 <0>         0.3798
     23 O2          2.5443    8.6070   -0.0994 O.2       1 <0>        -0.4370
     24 C19         3.1492    5.7734    1.4098 C.3       1 <0>        -0.1428
     25 H4          1.8642    1.0444    1.8128 H         1 <0>         0.0586
     26 H5          2.9632    2.3933    1.4369 H         1 <0>         0.0648
     27 H6          1.3300    2.7238    2.0628 H         1 <0>         0.0696
     28 H7         -0.5751    2.1761   -0.8539 H         1 <0>         0.0696
     29 H8         -0.5396    2.2851    0.9166 H         1 <0>         0.0842
     30 H9          0.0317   -0.0617    0.9977 H         1 <0>         0.0907
     31 H10        -1.4319    0.0961    0.1335 H         1 <0>         0.0916
     32 H11         2.3222   -0.6416   -1.9072 H         1 <0>         0.1343
     33 H12         4.2248    1.3649   -0.2016 H         1 <0>         0.0847
     34 H13         4.0203    0.7884   -1.8757 H         1 <0>         0.0782
     35 H14         4.7791    3.1829   -1.7520 H         1 <0>         0.0736
     36 H15         3.2125    2.9938   -2.5767 H         1 <0>         0.0670
     37 H16        -0.2237    4.3065    0.3455 H         1 <0>         0.0688
     38 H17         1.1853    4.3508    1.4231 H         1 <0>         0.0757
     39 H18         0.7290    6.1511   -1.0053 H         1 <0>         0.0665
     40 H19         0.6143    6.6370    0.7088 H         1 <0>         0.0719
     41 H20         5.1416    5.5639   -2.0495 H         1 <0>         0.0776
     42 H21         5.2488    5.4425   -0.2634 H         1 <0>         0.0793
     43 H22         4.4654    7.7608   -1.8988 H         1 <0>         0.0883
     44 H23         5.2440    7.7926   -0.3796 H         1 <0>         0.0974
     45 H24         2.9423    4.7169    1.5808 H         1 <0>         0.0812
     46 H25         4.2256    5.9421    1.4383 H         1 <0>         0.0618
     47 H26         2.6675    6.3681    2.1860 H         1 <0>         0.0608
@<TRIPOS>BOND
     1    1    2 1
     2    1   25 1
     3    1   26 1
     4    1   27 1
     5    2    8 1
     6    2   13 1
     7    2    3 1
     8    3    4 1
     9    3   28 1
    10    3   29 1
    11    4    5 1
    12    4   30 1
    13    4   31 1
    14    5    6 2
    15    5    7 1
    16    7    8 2
    17    7   32 1
    18    8    9 1
    19    9   10 1
    20    9   33 1
    21    9   34 1
    22   10   11 1
    23   10   35 1
    24   10   36 1
    25   11   12 1
    26   11   18 1
    27   11   13 1
    28   13   14 1
    29   13   15 1
    30   15   16 1
    31   15   37 1
    32   15   38 1
    33   16   17 1
    34   16   39 1
    35   16   40 1
    36   17   22 1
    37   17   18 1
    38   17   24 1
    39   18   19 1
    40   18   20 1
    41   20   21 1
    42   20   41 1
    43   20   42 1
    44   21   22 1
    45   21   43 1
    46   21   44 1
    47   22   23 2
    48   24   45 1
    49   24   46 1
    50   24   47 1
@<TRIPOS>MOLECULE
ZINC03814418
   51    54     0     0     0
SMALL
USER_CHARGES

@<TRIPOS>ATOM
      1 C1         -3.1001    6.3516    1.6291 C.3       1 <0>        -0.1501
      2 C2         -4.2202    5.3142    1.5282 C.3       1 <0>        -0.0524
      3 C3         -5.4093    5.9259    0.7896 C.3       1 <0>        -0.1063
      4 C4         -6.5113    4.8737    0.6291 C.3       1 <0>        -0.1638
      5 C5         -6.8447    4.3179    1.9961 C.2       1 <0>         0.3596
      6 O1         -7.9862    4.2797    2.3881 O.2       1 <0>        -0.4580
      7 C6         -5.7105    3.8110    2.8583 C.3       1 <0>        -0.1624
      8 C7         -4.6337    4.8993    2.9420 C.3       1 <0>        -0.0684
      9 H1         -5.0272    5.7636    3.4771 H         1 <0>         0.0773
     10 C8         -3.4133    4.3348    3.6762 C.3       1 <0>        -0.1171
     11 C9         -2.8677    3.1171    2.9253 C.3       1 <0>        -0.1172
     12 C10        -2.4798    3.5259    1.5041 C.3       1 <0>        -0.0738
     13 H2         -1.6948    4.2812    1.5408 H         1 <0>         0.0848
     14 C11        -3.7075    4.0900    0.7705 C.3       1 <0>        -0.0715
     15 H3         -4.4896    3.3310    0.7553 H         1 <0>         0.0697
     16 C12        -3.3740    4.4652   -0.6691 C.3       1 <0>        -0.1208
     17 C13        -2.7614    3.2778   -1.4309 C.3       1 <0>        -0.1032
     18 C14        -1.5228    2.8432   -0.6692 C.3       1 <0>        -0.0534
     19 C15        -1.9967    2.3255    0.7162 C.3       1 <0>        -0.0847
     20 H4         -2.8149    1.6174    0.5848 H         1 <0>         0.0710
     21 C16        -0.7681    1.6005    1.2587 C.3       1 <0>        -0.1115
     22 C17        -0.0127    1.0858    0.0080 C.3       1 <0>        -0.1576
     23 C18        -0.7938    1.6151   -1.2256 C.3       1 <0>         0.1073
     24 H5         -1.5071    0.8705   -1.5790 H         1 <0>         0.0598
     25 O2          0.1055    1.9876   -2.2718 O.3       1 <0>        -0.5595
     26 C19        -0.5479    4.0100   -0.4994 C.3       1 <0>        -0.1341
     27 H6         -2.7871    6.6468    0.6276 H         1 <0>         0.0597
     28 H7         -3.4626    7.2262    2.1691 H         1 <0>         0.0548
     29 H8         -2.2527    5.9206    2.1623 H         1 <0>         0.0660
     30 H9         -5.7948    6.7712    1.3596 H         1 <0>         0.0679
     31 H10        -5.0883    6.2683   -0.1942 H         1 <0>         0.0802
     32 H11        -7.3208    5.2981    0.2235 H         1 <0>         0.0786
     33 H12        -6.1590    4.0698   -0.0173 H         1 <0>         0.0995
     34 H13        -6.0555    3.6006    3.7730 H         1 <0>         0.0785
     35 H14        -5.2868    2.9107    2.4132 H         1 <0>         0.1038
     36 H15        -2.6347    5.0960    3.7261 H         1 <0>         0.0712
     37 H16        -3.7002    4.0412    4.6860 H         1 <0>         0.0645
     38 H17        -3.6428    2.3519    2.8843 H         1 <0>         0.0621
     39 H18        -1.9929    2.7203    3.4405 H         1 <0>         0.0664
     40 H19        -4.2860    4.7814   -1.1756 H         1 <0>         0.0643
     41 H20        -2.6629    5.2913   -0.6668 H         1 <0>         0.0715
     42 H21        -2.4870    3.5863   -2.4397 H         1 <0>         0.0668
     43 H22        -3.4767    2.4565   -1.4750 H         1 <0>         0.0611
     44 H23        -1.0704    0.7636    1.8883 H         1 <0>         0.0645
     45 H24        -0.1398    2.2903    1.8222 H         1 <0>         0.0675
     46 H25         0.0021   -0.0041    0.0020 H         1 <0>         0.0636
     47 H26         1.0060    1.4735    0.0004 H         1 <0>         0.0732
     48 H27         0.6453    1.2577   -2.6049 H         1 <0>         0.3758
     49 H28        -0.1320    4.2802   -1.4700 H         1 <0>         0.0609
     50 H29        -1.0756    4.8662   -0.0792 H         1 <0>         0.0612
     51 H30         0.2585    3.7150    0.1720 H         1 <0>         0.0528
@<TRIPOS>BOND
     1    1    2 1
     2    1   27 1
     3    1   28 1
     4    1   29 1
     5    2    8 1
     6    2   14 1
     7    2    3 1
     8    3    4 1
     9    3   30 1
    10    3   31 1
    11    4    5 1
    12    4   32 1
    13    4   33 1
    14    5    6 2
    15    5    7 1
    16    7    8 1
    17    7   34 1
    18    7   35 1
    19    8    9 1
    20    8   10 1
    21   10   11 1
    22   10   36 1
    23   10   37 1
    24   11   12 1
    25   11   38 1
    26   11   39 1
    27   12   13 1
    28   12   19 1
    29   12   14 1
    30   14   15 1
    31   14   16 1
    32   16   17 1
    33   16   40 1
    34   16   41 1
    35   17   18 1
    36   17   42 1
    37   17   43 1
    38   18   23 1
    39   18   19 1
    40   18   26 1
    41   19   20 1
    42   19   21 1
    43   21   22 1
    44   21   44 1
    45   21   45 1
    46   22   23 1
    47   22   46 1
    48   22   47 1
    49   23   24 1
    50   23   25 1
    51   25   48 1
    52   26   49 1
    53   26   50 1
    54   26   51 1
@<TRIPOS>MOLECULE
ZINC03814419
   48    51     0     0     0
SMALL
USER_CHARGES

@<TRIPOS>ATOM
      1 C1         -1.2488    3.3629    1.0694 C.3       1 <0>        -0.1417
      2 C2         -0.6367    1.9806    1.3053 C.3       1 <0>        -0.0455
      3 C3         -1.7011    1.1460    1.9738 C.3       1 <0>        -0.1012
      4 C4         -2.1410    1.8367    3.2791 C.3       1 <0>        -0.1148
      5 C5         -0.9406    2.1002    4.1770 C.3       1 <0>        -0.0460
      6 H1         -0.5041    1.1370    4.4410 H         1 <0>         0.0754
      7 C6          0.1339    2.9192    3.4574 C.3       1 <0>        -0.0731
      8 H2         -0.2768    3.8746    3.1307 H         1 <0>         0.0870
      9 C7          0.5836    2.1073    2.2596 C.3       1 <0>        -0.0795
     10 H3          0.9290    1.1226    2.5743 H         1 <0>         0.0773
     11 C8          1.6189    2.7733    1.3466 C.3       1 <0>        -0.1128
     12 C9          1.4279    2.0244   -0.0007 C.3       1 <0>        -0.1445
     13 C10        -0.0179    1.4678    0.0101 C.3       1 <0>         0.2530
     14 C11         0.0021   -0.0041    0.0020 C.1       1 <0>        -0.2098
     15 C12         0.0180   -1.1779   -0.0044 C.1       1 <0>        -0.1809
     16 O1         -0.7460    1.9587   -1.1172 O.3       1 <0>        -0.5403
     17 C13         1.2737    3.1294    4.4575 C.3       1 <0>        -0.1128
     18 C14         0.7532    4.0511    5.5532 C.3       1 <0>        -0.0830
     19 C15        -0.5983    3.6159    6.0822 C.2       1 <0>        -0.1135
     20 C16        -1.3716    2.7784    5.4573 C.2       1 <0>        -0.1090
     21 C17        -2.7670    2.4141    5.9150 C.3       1 <0>        -0.0811
     22 C18        -2.9518    2.6276    7.4129 C.3       1 <0>        -0.1630
     23 C19        -2.4275    4.0184    7.7188 C.2       1 <0>         0.3635
     24 O2         -3.1330    4.8774    8.1909 O.2       1 <0>        -0.4502
     25 C20        -0.9774    4.2653    7.4003 C.3       1 <0>        -0.1279
     26 H4         -2.0377    3.2880    0.3210 H         1 <0>         0.0641
     27 H5         -1.6679    3.7387    2.0028 H         1 <0>         0.0645
     28 H6         -0.4768    4.0466    0.7165 H         1 <0>         0.0550
     29 H7         -1.2629    0.1738    2.1996 H         1 <0>         0.0597
     30 H8         -2.5600    1.0200    1.3147 H         1 <0>         0.0686
     31 H9         -2.8486    1.1952    3.8043 H         1 <0>         0.0692
     32 H10        -2.6245    2.7835    3.0385 H         1 <0>         0.0704
     33 H11         2.6271    2.6220    1.7323 H         1 <0>         0.0706
     34 H12         1.4075    3.8362    1.2303 H         1 <0>         0.0754
     35 H13         2.1434    1.2059   -0.0785 H         1 <0>         0.0725
     36 H14         1.5570    2.7143   -0.8347 H         1 <0>         0.0810
     37 H15         0.0322   -2.2278   -0.0102 H         1 <0>         0.2182
     38 H16        -0.3845    1.6812   -1.9701 H         1 <0>         0.3785
     39 H17         1.5703    2.1728    4.8877 H         1 <0>         0.0660
     40 H18         2.1248    3.5917    3.9576 H         1 <0>         0.0711
     41 H19         0.6667    5.0612    5.1530 H         1 <0>         0.0741
     42 H20         1.4684    4.0579    6.3757 H         1 <0>         0.0710
     43 H21        -3.4882    3.0301    5.3778 H         1 <0>         0.0800
     44 H22        -2.9545    1.3663    5.6807 H         1 <0>         0.0857
     45 H23        -2.4406    1.9298    7.9146 H         1 <0>         0.0906
     46 H24        -4.0080    2.5609    7.6737 H         1 <0>         0.0914
     47 H25        -0.4179    3.8806    8.1345 H         1 <0>         0.0994
     48 H26        -0.8022    5.3392    7.3347 H         1 <0>         0.0976
@<TRIPOS>BOND
     1    1    2 1
     2    1   26 1
     3    1   27 1
     4    1   28 1
     5    2    9 1
     6    2   13 1
     7    2    3 1
     8    3    4 1
     9    3   29 1
    10    3   30 1
    11    4    5 1
    12    4   31 1
    13    4   32 1
    14    5    6 1
    15    5   20 1
    16    5    7 1
    17    7    8 1
    18    7    9 1
    19    7   17 1
    20    9   10 1
    21    9   11 1
    22   11   12 1
    23   11   33 1
    24   11   34 1
    25   12   13 1
    26   12   35 1
    27   12   36 1
    28   13   14 1
    29   13   16 1
    30   14   15 3
    31   15   37 1
    32   16   38 1
    33   17   18 1
    34   17   39 1
    35   17   40 1
    36   18   19 1
    37   18   41 1
    38   18   42 1
    39   19   25 1
    40   19   20 2
    41   20   21 1
    42   21   22 1
    43   21   43 1
    44   21   44 1
    45   22   23 1
    46   22   45 1
    47   22   46 1
    48   23   24 2
    49   23   25 1
    50   25   47 1
    51   25   48 1
@<TRIPOS>MOLECULE
ZINC03814420
   45    48     0     0     0
SMALL
USER_CHARGES

@<TRIPOS>ATOM
      1 C1         -1.8342    0.1714    1.6972 C.3       1 <0>        -0.1766
      2 C2         -1.2152   -0.6970    0.6001 C.3       1 <0>         0.1409
      3 C3         -0.6923   -2.0195    1.1931 C.3       1 <0>        -0.1509
      4 C4          0.8510   -1.9941    1.0170 C.3       1 <0>        -0.1138
      5 C5          1.1599   -0.4965    0.9168 C.3       1 <0>        -0.0807
      6 H1          1.1124   -0.0185    1.8953 H         1 <0>         0.0845
      7 C6          0.0021   -0.0041    0.0020 C.3       1 <0>        -0.0329
      8 C7          0.0207    1.4861    0.0164 C.2       1 <0>        -0.0865
      9 C8          1.2172    2.0991    0.0221 C.2       1 <0>        -0.1547
     10 C9          2.4404    1.3780    0.0406 C.2       1 <0>        -0.0186
     11 C10         3.6116    2.0651   -0.0549 C.2       1 <0>        -0.1275
     12 C11         3.5470    3.5418   -0.3618 C.3       1 <0>        -0.0806
     13 C12         4.7051    4.2788    0.3040 C.3       1 <0>        -0.1598
     14 C13         5.9924    3.5377    0.0534 C.2       1 <0>         0.3853
     15 O1          7.0154    4.1548   -0.1697 O.2       1 <0>        -0.4711
     16 C14         6.0103    2.1397    0.0778 C.2       1 <0>        -0.2593
     17 C15         4.8496    1.4232    0.0954 C.2       1 <0>         0.0333
     18 C16         4.9232   -0.0750    0.2638 C.3       1 <0>        -0.0993
     19 C17         3.6701   -0.5515    1.0081 C.3       1 <0>        -0.1105
     20 C18         2.4452   -0.1274    0.2019 C.3       1 <0>        -0.0528
     21 H2          2.4689   -0.6057   -0.7773 H         1 <0>         0.1006
     22 C19         0.2282   -0.5062   -1.4254 C.3       1 <0>        -0.1291
     23 O2         -2.1791   -0.9719   -0.4184 O.3       1 <0>        -0.5546
     24 H3         -2.1412    1.1277    1.2738 H         1 <0>         0.0659
     25 H4         -2.7032   -0.3365    2.1156 H         1 <0>         0.0600
     26 H5         -1.0992    0.3416    2.4839 H         1 <0>         0.0676
     27 H6         -1.1156   -2.8720    0.6619 H         1 <0>         0.0769
     28 H7         -0.9472   -2.0743    2.2515 H         1 <0>         0.0712
     29 H8          1.1434   -2.5102    0.1025 H         1 <0>         0.0742
     30 H9          1.3480   -2.4334    1.8819 H         1 <0>         0.0715
     31 H10        -0.8973    2.0551    0.0176 H         1 <0>         0.1253
     32 H11         1.2492    3.1786    0.0122 H         1 <0>         0.1259
     33 H12         2.6042    3.9449    0.0079 H         1 <0>         0.0898
     34 H13         3.6015    3.6868   -1.4408 H         1 <0>         0.0815
     35 H14         4.5424    4.3345    1.2891 H         1 <0>         0.0889
     36 H15         4.7793    5.2844   -0.1099 H         1 <0>         0.0941
     37 H16         6.9568    1.6197    0.0824 H         1 <0>         0.1345
     38 H17         5.8112   -0.3346    0.8401 H         1 <0>         0.0868
     39 H18         4.9691   -0.5508   -0.7158 H         1 <0>         0.0894
     40 H19         3.6348   -0.0957    1.9976 H         1 <0>         0.0711
     41 H20         3.6893   -1.6371    1.1040 H         1 <0>         0.0794
     42 H21         1.1364   -0.0581   -1.8286 H         1 <0>         0.0555
     43 H22         0.3313   -1.5912   -1.4169 H         1 <0>         0.0622
     44 H23        -0.6219   -0.2269   -2.0478 H         1 <0>         0.0671
     45 H24        -2.9769   -1.4133   -0.0961 H         1 <0>         0.3758
@<TRIPOS>BOND
     1    1    2 1
     2    1   24 1
     3    1   25 1
     4    1   26 1
     5    2    7 1
     6    2    3 1
     7    2   23 1
     8    3    4 1
     9    3   27 1
    10    3   28 1
    11    4    5 1
    12    4   29 1
    13    4   30 1
    14    5    6 1
    15    5   20 1
    16    5    7 1
    17    7    8 1
    18    7   22 1
    19    8    9 2
    20    8   31 1
    21    9   10 1
    22    9   32 1
    23   10   20 1
    24   10   11 2
    25   11   17 1
    26   11   12 1
    27   12   13 1
    28   12   33 1
    29   12   34 1
    30   13   14 1
    31   13   35 1
    32   13   36 1
    33   14   15 2
    34   14   16 1
    35   16   17 2
    36   16   37 1
    37   17   18 1
    38   18   19 1
    39   18   38 1
    40   18   39 1
    41   19   20 1
    42   19   40 1
    43   19   41 1
    44   20   21 1
    45   22   42 1
    46   22   43 1
    47   22   44 1
    48   23   45 1
@<TRIPOS>MOLECULE
ZINC03814421
   48    51     0     0     0
SMALL
USER_CHARGES

@<TRIPOS>ATOM
      1 C1          5.6107    2.5576   -0.7627 C.3       1 <0>        -0.1604
      2 C2          5.5941    2.4493    0.7634 C.3       1 <0>        -0.0182
      3 C3          6.1772    3.7328    1.2970 C.3       1 <0>        -0.1246
      4 C4          6.8933    3.5392    2.6330 C.3       1 <0>        -0.1601
      5 C5          7.9283    2.4460    2.4433 C.2       1 <0>         0.3872
      6 O1          9.0935    2.6048    2.7421 O.2       1 <0>        -0.4547
      7 C6          7.4350    1.1835    1.8753 C.2       1 <0>        -0.2321
      8 C7          6.3441    1.1998    1.1139 C.2       1 <0>        -0.0291
      9 C8          5.8141   -0.1151    0.5677 C.3       1 <0>        -0.0974
     10 C9          4.3278   -0.2182    0.9372 C.3       1 <0>        -0.1093
     11 C10         3.5907    1.0199    0.4344 C.3       1 <0>        -0.0796
     12 H1          3.7495    1.1258   -0.6388 H         1 <0>         0.0978
     13 C11         4.1301    2.2695    1.1556 C.3       1 <0>        -0.1127
     14 H2          4.0631    2.1454    2.1456 H         1 <0>         0.0979
     15 C12         3.3210    3.4805    0.7689 C.2       1 <0>         0.3678
     16 O2          3.8727    4.5062    0.4499 O.2       1 <0>        -0.4371
     17 C13         1.8011    3.3976    0.7849 C.3       1 <0>        -0.1452
     18 C14         1.4284    2.1434    0.0108 C.3       1 <0>        -0.0524
     19 C15         2.1050    0.9376    0.7184 C.3       1 <0>        -0.0895
     20 H3          1.9228    0.9588    1.7928 H         1 <0>         0.0849
     21 C16         1.3783   -0.2511    0.0765 C.3       1 <0>        -0.1117
     22 C17        -0.0964    0.2287    0.0175 C.3       1 <0>        -0.1573
     23 C18        -0.0536    1.7760    0.0266 C.3       1 <0>         0.1126
     24 H4         -0.5280    2.1611    0.9293 H         1 <0>         0.0616
     25 O3         -0.7042    2.2955   -1.1348 O.3       1 <0>        -0.5592
     26 C19         1.9241    2.2453   -1.4331 C.3       1 <0>        -0.1382
     27 H5          5.2477    1.6261   -1.1970 H         1 <0>         0.0658
     28 H6          4.9669    3.3796   -1.0756 H         1 <0>         0.0718
     29 H7          6.6294    2.7442   -1.1026 H         1 <0>         0.0607
     30 H8          5.3734    4.4570    1.4295 H         1 <0>         0.1126
     31 H9          6.8880    4.1247    0.5695 H         1 <0>         0.0726
     32 H10         6.2285    3.2773    3.3326 H         1 <0>         0.0871
     33 H11         7.3845    4.4667    2.9273 H         1 <0>         0.0915
     34 H12         7.9506    0.2554    2.0736 H         1 <0>         0.1379
     35 H13         6.3625   -0.9460    1.0114 H         1 <0>         0.0816
     36 H14         5.9266   -0.1366   -0.5163 H         1 <0>         0.0853
     37 H15         4.2267   -0.2863    2.0203 H         1 <0>         0.0700
     38 H16         3.8999   -1.1082    0.4758 H         1 <0>         0.0784
     39 H17         1.4800    3.3476    1.7306 H         1 <0>         0.0906
     40 H18         1.3740    4.2768    0.3025 H         1 <0>         0.0953
     41 H19         1.4692   -1.1405    0.7001 H         1 <0>         0.0717
     42 H20         1.7619   -0.4414   -0.9258 H         1 <0>         0.0734
     43 H21        -0.6434   -0.1355    0.8871 H         1 <0>         0.0708
     44 H22        -0.5691   -0.1269   -0.8981 H         1 <0>         0.0759
     45 H23        -1.6403    2.0617   -1.1990 H         1 <0>         0.3786
     46 H24         1.3752    3.0318   -1.9510 H         1 <0>         0.0695
     47 H25         2.9880    2.4822   -1.4361 H         1 <0>         0.0537
     48 H26         1.7622    1.2944   -1.9408 H         1 <0>         0.0640
@<TRIPOS>BOND
     1    1    2 1
     2    1   27 1
     3    1   28 1
     4    1   29 1
     5    2    8 1
     6    2   13 1
     7    2    3 1
     8    3    4 1
     9    3   30 1
    10    3   31 1
    11    4    5 1
    12    4   32 1
    13    4   33 1
    14    5    6 2
    15    5    7 1
    16    7    8 2
    17    7   34 1
    18    8    9 1
    19    9   10 1
    20    9   35 1
    21    9   36 1
    22   10   11 1
    23   10   37 1
    24   10   38 1
    25   11   12 1
    26   11   19 1
    27   11   13 1
    28   13   14 1
    29   13   15 1
    30   15   16 2
    31   15   17 1
    32   17   18 1
    33   17   39 1
    34   17   40 1
    35   18   23 1
    36   18   19 1
    37   18   26 1
    38   19   20 1
    39   19   21 1
    40   21   22 1
    41   21   41 1
    42   21   42 1
    43   22   23 1
    44   22   43 1
    45   22   44 1
    46   23   24 1
    47   23   25 1
    48   25   45 1
    49   26   46 1
    50   26   47 1
    51   26   48 1
@<TRIPOS>MOLECULE
ZINC03814422
   52    55     0     0     0
SMALL
USER_CHARGES

@<TRIPOS>ATOM
      1 C1          0.0509    1.6020    2.4865 C.3       1 <0>        -0.1502
      2 C2         -0.7593    2.0249    1.2595 C.3       1 <0>        -0.0296
      3 C3         -0.8035    3.5426    1.2440 C.3       1 <0>        -0.1068
      4 C4         -1.8646    4.0883    2.1985 C.3       1 <0>        -0.1600
      5 C5         -3.1972    3.4976    1.7806 C.2       1 <0>         0.3887
      6 O1         -4.1805    4.1896    1.6184 O.2       1 <0>        -0.4571
      7 C6         -3.2336    2.0443    1.5828 C.2       1 <0>        -0.2439
      8 C7         -2.1059    1.3750    1.3457 C.2       1 <0>        -0.0164
      9 C8         -2.2016   -0.1291    1.1660 C.3       1 <0>        -0.0971
     10 C9         -1.4351   -0.5233   -0.0983 C.3       1 <0>        -0.1132
     11 C10         0.0021   -0.0041    0.0020 C.3       1 <0>        -0.0773
     12 H1          0.4801   -0.3755    0.9084 H         1 <0>         0.0894
     13 C11        -0.0187    1.5313    0.0105 C.3       1 <0>        -0.0653
     14 H2         -0.5553    1.8834   -0.8706 H         1 <0>         0.0701
     15 C12         1.3903    2.1165    0.0002 C.3       1 <0>        -0.1226
     16 C13         2.2262    1.5654   -1.1659 C.3       1 <0>        -0.1017
     17 C14         2.2484    0.0552   -1.0262 C.3       1 <0>        -0.0476
     18 C15         0.7909   -0.4431   -1.2183 C.3       1 <0>        -0.0833
     19 H3          0.3585   -0.0148   -2.1226 H         1 <0>         0.0753
     20 C16         0.9799   -1.9550   -1.3825 C.3       1 <0>        -0.1130
     21 C17         2.2388   -2.0519   -2.2870 C.3       1 <0>        -0.1505
     22 C18         3.0251   -0.7329   -2.0836 C.3       1 <0>         0.1366
     23 C19         3.0666    0.0660   -3.3879 C.3       1 <0>        -0.1758
     24 O2          4.3520   -1.0121   -1.6326 O.3       1 <0>        -0.5541
     25 C20         2.7510   -0.3344    0.3654 C.3       1 <0>        -0.1351
     26 H4          1.0445    2.0475    2.4370 H         1 <0>         0.0700
     27 H5         -0.4548    1.9415    3.3905 H         1 <0>         0.0580
     28 H6          0.1403    0.5159    2.5063 H         1 <0>         0.0634
     29 H7          0.1720    3.9295    1.5386 H         1 <0>         0.0839
     30 H8         -1.0277    3.8812    0.2325 H         1 <0>         0.0688
     31 H9         -1.6382    3.8227    3.1356 H         1 <0>         0.0907
     32 H10        -1.9026    5.1753    2.1278 H         1 <0>         0.0913
     33 H11        -4.1748    1.5166    1.6294 H         1 <0>         0.1339
     34 H12        -3.2474   -0.4193    1.0647 H         1 <0>         0.0774
     35 H13        -1.7634   -0.6290    2.0298 H         1 <0>         0.0843
     36 H14        -1.9207   -0.0850   -0.9701 H         1 <0>         0.0654
     37 H15        -1.4242   -1.6090   -0.1949 H         1 <0>         0.0718
     38 H16         1.3243    3.2007   -0.0910 H         1 <0>         0.0650
     39 H17         1.8847    1.8696    0.9397 H         1 <0>         0.0752
     40 H18         3.2416    1.9582   -1.1130 H         1 <0>         0.0668
     41 H19         1.7697    1.8438   -2.1157 H         1 <0>         0.0646
     42 H20         1.1610   -2.4281   -0.4174 H         1 <0>         0.0701
     43 H21         0.1143   -2.4009   -1.8726 H         1 <0>         0.0666
     44 H22         2.8508   -2.9025   -1.9866 H         1 <0>         0.0716
     45 H23         1.9425   -2.1548   -3.3309 H         1 <0>         0.0685
     46 H24         2.0492    0.2800   -3.7153 H         1 <0>         0.0658
     47 H25         3.6000    1.0022   -3.2237 H         1 <0>         0.0652
     48 H26         3.5801   -0.5153   -4.1538 H         1 <0>         0.0551
     49 H27         4.8771   -1.5343   -2.2544 H         1 <0>         0.3735
     50 H28         2.7244   -1.4189    0.4709 H         1 <0>         0.0539
     51 H29         3.7744    0.0182    0.4939 H         1 <0>         0.0595
     52 H30         2.1124    0.1202    1.1227 H         1 <0>         0.0603
@<TRIPOS>BOND
     1    1    2 1
     2    1   26 1
     3    1   27 1
     4    1   28 1
     5    2    8 1
     6    2   13 1
     7    2    3 1
     8    3    4 1
     9    3   29 1
    10    3   30 1
    11    4    5 1
    12    4   31 1
    13    4   32 1
    14    5    6 2
    15    5    7 1
    16    7    8 2
    17    7   33 1
    18    8    9 1
    19    9   10 1
    20    9   34 1
    21    9   35 1
    22   10   11 1
    23   10   36 1
    24   10   37 1
    25   11   12 1
    26   11   18 1
    27   11   13 1
    28   13   14 1
    29   13   15 1
    30   15   16 1
    31   15   38 1
    32   15   39 1
    33   16   17 1
    34   16   40 1
    35   16   41 1
    36   17   22 1
    37   17   18 1
    38   17   25 1
    39   18   19 1
    40   18   20 1
    41   20   21 1
    42   20   42 1
    43   20   43 1
    44   21   22 1
    45   21   44 1
    46   21   45 1
    47   22   23 1
    48   22   24 1
    49   23   46 1
    50   23   47 1
    51   23   48 1
    52   24   49 1
    53   25   50 1
    54   25   51 1
    55   25   52 1
@<TRIPOS>MOLECULE
ZINC03814423
   58    62     0     0     0
SMALL
USER_CHARGES

@<TRIPOS>ATOM
      1 C1         -6.6887   -0.9408   -2.2160 C.3       1 <0>        -0.2001
      2 C2         -5.8346   -1.9238   -1.4576 C.2       1 <0>         0.3556
      3 O1         -5.5073   -2.9645   -1.9753 O.2       1 <0>        -0.4303
      4 C3         -5.3890   -1.6082   -0.0530 C.3       1 <0>         0.0902
      5 C4         -4.9899   -2.9084    0.6887 C.3       1 <0>        -0.1304
      6 C5         -3.5151   -2.7189    1.1702 C.3       1 <0>        -0.1187
      7 C6         -3.3715   -1.1935    1.2081 C.3       1 <0>        -0.0743
      8 H1         -3.8574   -0.7864    2.0948 H         1 <0>         0.0901
      9 C7         -4.1259   -0.7557   -0.0785 C.3       1 <0>        -0.0427
     10 C8         -4.3123    0.7460   -0.0227 C.3       1 <0>        -0.0995
     11 C9         -2.9138    1.3908   -0.0522 C.3       1 <0>        -0.1166
     12 C10        -2.0586    0.8774    1.0982 C.3       1 <0>        -0.0682
     13 H2         -2.5279    1.1889    2.0313 H         1 <0>         0.0796
     14 C11        -1.9620   -0.6549    1.0829 C.3       1 <0>        -0.0573
     15 H3         -1.5500   -0.9630    0.1219 H         1 <0>         0.1115
     16 C12        -1.0633   -1.1408    2.1742 C.2       1 <0>        -0.0853
     17 C13        -0.1107   -0.3858    2.7177 C.2       1 <0>        -0.0686
     18 C14         0.0930    1.0029    2.2699 C.2       1 <0>         0.0265
     19 C15         0.9014    1.7982    2.9964 C.2       1 <0>        -0.2280
     20 C16         1.0678    3.1665    2.7498 C.2       1 <0>         0.4096
     21 O2          1.8845    3.8052    3.3828 O.2       1 <0>        -0.4514
     22 C17         0.2288    3.8443    1.6956 C.3       1 <0>        -0.2015
     23 H4          0.7288    4.6263    1.3236 H         1 <0>         0.1224
     24 C18        -1.2882    3.8424    1.9051 C.3       1 <0>        -0.1366
     25 C19        -0.6784    2.9501    0.8486 C.3       1 <0>        -0.1126
     26 H5         -0.8463    3.2737   -0.1786 H         1 <0>         0.1238
     27 C20        -0.6466    1.4531    1.0449 C.3       1 <0>         0.0068
     28 C21         0.0546    0.8407   -0.1693 C.3       1 <0>        -0.1514
     29 Cl1         0.9011   -1.0441    3.9653 Cl        1 <0>        -0.0602
     30 C22        -3.2903   -1.1128   -1.3095 C.3       1 <0>        -0.1648
     31 O3         -6.4459   -0.9202    0.6668 O.3       1 <0>        -0.3326
     32 C23        -7.6128   -1.5694    0.8032 C.2       1 <0>         0.4519
     33 O4         -7.7233   -2.7040    0.4027 O.2       1 <0>        -0.5010
     34 C24        -8.7851   -0.8832    1.4558 C.3       1 <0>        -0.1487
     35 H6         -6.9292   -0.1768   -1.6172 H         1 <0>         0.0755
     36 H7         -6.1348   -0.5671   -3.0772 H         1 <0>         0.0992
     37 H8         -7.5981   -1.4362   -2.5559 H         1 <0>         0.0941
     38 H9         -5.6342   -3.0577    1.5551 H         1 <0>         0.0773
     39 H10        -5.0649   -3.7617    0.0146 H         1 <0>         0.0951
     40 H11        -2.8213   -3.1538    0.4507 H         1 <0>         0.0768
     41 H12        -3.3618   -3.1454    2.1615 H         1 <0>         0.0781
     42 H13        -4.8912    1.0790   -0.8842 H         1 <0>         0.0718
     43 H14        -4.8278    1.0207    0.8975 H         1 <0>         0.0796
     44 H15        -2.4270    1.1491   -0.9970 H         1 <0>         0.0737
     45 H16        -3.0156    2.4728    0.0324 H         1 <0>         0.0783
     46 H17        -1.1928   -2.1492    2.5384 H         1 <0>         0.1321
     47 H18         1.4513    1.3565    3.8142 H         1 <0>         0.1400
     48 H19        -1.6718    3.3591    2.8037 H         1 <0>         0.1017
     49 H20        -1.8443    4.7167    1.5670 H         1 <0>         0.1130
     50 H21         0.0340   -0.2463   -0.0909 H         1 <0>         0.0676
     51 H22         1.0889    1.1831   -0.2025 H         1 <0>         0.0640
     52 H23        -0.4595    1.1491   -1.0796 H         1 <0>         0.0735
     53 H24        -3.0615   -2.1784   -1.2967 H         1 <0>         0.0700
     54 H25        -3.8522   -0.8726   -2.2121 H         1 <0>         0.0599
     55 H26        -2.3620   -0.5417   -1.2966 H         1 <0>         0.0837
     56 H27        -9.3712   -0.3648    0.6969 H         1 <0>         0.1068
     57 H28        -9.4097   -1.6252    1.9531 H         1 <0>         0.1045
     58 H29        -8.4223   -0.1632    2.1893 H         1 <0>         0.0960
@<TRIPOS>BOND
     1    1    2 1
     2    1   35 1
     3    1   36 1
     4    1   37 1
     5    2    3 2
     6    2    4 1
     7    4    9 1
     8    4    5 1
     9    4   31 1
    10    5    6 1
    11    5   38 1
    12    5   39 1
    13    6    7 1
    14    6   40 1
    15    6   41 1
    16    7    8 1
    17    7   14 1
    18    7    9 1
    19    9   10 1
    20    9   30 1
    21   10   11 1
    22   10   42 1
    23   10   43 1
    24   11   12 1
    25   11   44 1
    26   11   45 1
    27   12   13 1
    28   12   27 1
    29   12   14 1
    30   14   15 1
    31   14   16 1
    32   16   17 2
    33   16   46 1
    34   17   18 1
    35   17   29 1
    36   18   27 1
    37   18   19 2
    38   19   20 1
    39   19   47 1
    40   20   21 2
    41   20   22 1
    42   22   23 1
    43   22   25 1
    44   22   24 1
    45   24   25 1
    46   24   48 1
    47   24   49 1
    48   25   26 1
    49   25   27 1
    50   27   28 1
    51   28   50 1
    52   28   51 1
    53   28   52 1
    54   30   53 1
    55   30   54 1
    56   30   55 1
    57   31   32 1
    58   32   33 2
    59   32   34 1
    60   34   56 1
    61   34   57 1
    62   34   58 1
@<TRIPOS>MOLECULE
ZINC03814424
   57    60     0     0     0
SMALL
USER_CHARGES

@<TRIPOS>ATOM
      1 C1          3.6566    3.3347   -0.0191 C.3       1 <0>        -0.1534
      2 C2          2.4417    4.2076   -0.3400 C.3       1 <0>        -0.0666
      3 H1          2.2972    4.9425    0.4519 H         1 <0>         0.0913
      4 C3          2.6636    4.9262   -1.6729 C.3       1 <0>        -0.1073
      5 C4          1.3955    5.6989   -2.0465 C.3       1 <0>        -0.0793
      6 H2          1.1186    6.3859   -1.2468 H         1 <0>         0.0877
      7 C5          0.2559    4.7012   -2.2991 C.3       1 <0>        -0.0656
      8 H3          0.5709    3.9882   -3.0611 H         1 <0>         0.0724
      9 C6         -1.0117    5.3991   -2.7827 C.3       1 <0>        -0.1251
     10 C7         -0.7420    6.2804   -4.0126 C.3       1 <0>        -0.0933
     11 C8          0.3315    7.2778   -3.6211 C.3       1 <0>        -0.0409
     12 C9          1.6248    6.4683   -3.3348 C.3       1 <0>        -0.0765
     13 H4          1.8486    5.7820   -4.1514 H         1 <0>         0.0838
     14 C10         2.6782    7.5798   -3.2677 C.3       1 <0>        -0.1134
     15 C11         2.2750    8.5127   -4.4420 C.3       1 <0>        -0.1484
     16 C12         0.7673    8.2661   -4.6980 C.3       1 <0>         0.0978
     17 C13        -0.0024    9.5550   -4.5661 C.2       1 <0>         0.3387
     18 O1          0.4378   10.4547   -3.8915 O.2       1 <0>        -0.4439
     19 C14        -1.3212    9.7211   -5.2760 C.3       1 <0>        -0.1990
     20 O2          0.5712    7.7039   -5.9970 O.3       1 <0>        -0.5367
     21 C15        -0.0948    8.0367   -2.3628 C.3       1 <0>        -0.1598
     22 C16        -0.0516    3.9421   -1.0024 C.3       1 <0>        -0.0281
     23 C17         1.2049    3.3356   -0.4573 C.2       1 <0>        -0.0138
     24 C18         1.2952    2.0708   -0.0477 C.2       1 <0>        -0.2485
     25 C19         0.1198    1.1950   -0.1046 C.2       1 <0>         0.3869
     26 O3          0.2239   -0.0138   -0.1064 O.2       1 <0>        -0.4578
     27 C20        -1.2316    1.8794   -0.1674 C.3       1 <0>        -0.1595
     28 C21        -1.1618    2.9391   -1.2603 C.3       1 <0>        -0.1052
     29 C22        -0.5741    4.9510    0.0222 C.3       1 <0>        -0.1509
     30 H5          3.8014    2.6061   -0.8168 H         1 <0>         0.0608
     31 H6          4.5434    3.9629    0.0647 H         1 <0>         0.0621
     32 H7          3.4904    2.8132    0.9235 H         1 <0>         0.0618
     33 H8          2.8855    4.1936   -2.4489 H         1 <0>         0.0671
     34 H9          3.4985    5.6205   -1.5784 H         1 <0>         0.0720
     35 H10        -1.7556    4.6456   -3.0416 H         1 <0>         0.0673
     36 H11        -1.4035    6.0217   -1.9784 H         1 <0>         0.0726
     37 H12        -1.6522    6.8075   -4.2986 H         1 <0>         0.0640
     38 H13        -0.3929    5.6656   -4.8422 H         1 <0>         0.0755
     39 H14         2.6199    8.1095   -2.3168 H         1 <0>         0.0717
     40 H15         3.6777    7.1737   -3.4234 H         1 <0>         0.0710
     41 H16         2.4424    9.5541   -4.1670 H         1 <0>         0.0830
     42 H17         2.8515    8.2633   -5.3329 H         1 <0>         0.0781
     43 H18        -2.0621    9.4125   -4.6794 H         1 <0>         0.0868
     44 H19        -1.4696   10.7716   -5.5259 H         1 <0>         0.0847
     45 H20        -1.3193    9.1270   -6.1899 H         1 <0>         0.0930
     46 H21         0.8678    8.2726   -6.7206 H         1 <0>         0.3788
     47 H22         0.7049    8.7112   -2.0568 H         1 <0>         0.0662
     48 H23        -0.9955    8.6131   -2.5738 H         1 <0>         0.0527
     49 H24        -0.2976    7.3263   -1.5613 H         1 <0>         0.0793
     50 H25         2.2344    1.6903    0.3260 H         1 <0>         0.1414
     51 H26        -1.9382    1.2034   -0.3767 H         1 <0>         0.0825
     52 H27        -1.4522    2.3523    0.7896 H         1 <0>         0.0982
     53 H28        -2.1143    3.4670   -1.3066 H         1 <0>         0.0839
     54 H29        -0.9815    2.4469   -2.2161 H         1 <0>         0.0689
     55 H30         0.1763    5.7243    0.1860 H         1 <0>         0.0632
     56 H31        -1.4905    5.4074   -0.3520 H         1 <0>         0.0692
     57 H32        -0.7805    4.4400    0.9626 H         1 <0>         0.0589
@<TRIPOS>BOND
     1    1    2 1
     2    1   30 1
     3    1   31 1
     4    1   32 1
     5    2    3 1
     6    2   23 1
     7    2    4 1
     8    4    5 1
     9    4   33 1
    10    4   34 1
    11    5    6 1
    12    5   12 1
    13    5    7 1
    14    7    8 1
    15    7    9 1
    16    7   22 1
    17    9   10 1
    18    9   35 1
    19    9   36 1
    20   10   11 1
    21   10   37 1
    22   10   38 1
    23   11   16 1
    24   11   12 1
    25   11   21 1
    26   12   13 1
    27   12   14 1
    28   14   15 1
    29   14   39 1
    30   14   40 1
    31   15   16 1
    32   15   41 1
    33   15   42 1
    34   16   17 1
    35   16   20 1
    36   17   18 2
    37   17   19 1
    38   19   43 1
    39   19   44 1
    40   19   45 1
    41   20   46 1
    42   21   47 1
    43   21   48 1
    44   21   49 1
    45   22   28 1
    46   22   23 1
    47   22   29 1
    48   23   24 2
    49   24   25 1
    50   24   50 1
    51   25   26 2
    52   25   27 1
    53   27   28 1
    54   27   51 1
    55   27   52 1
    56   28   53 1
    57   28   54 1
    58   29   55 1
    59   29   56 1
    60   29   57 1
@<TRIPOS>MOLECULE
ZINC03814425
   52    55     0     0     0
SMALL
USER_CHARGES

@<TRIPOS>ATOM
      1 C1          2.1710    1.7657    1.2633 C.3       1 <0>        -0.1412
      2 C2          1.3943    2.1194    0.0001 C.3       1 <0>        -0.0403
      3 C3          1.2669    3.6432   -0.1172 C.3       1 <0>        -0.1086
      4 C4          0.4445    4.2072    1.0382 C.3       1 <0>        -0.1184
      5 C5         -0.9436    3.5698    1.0731 C.3       1 <0>        -0.1187
      6 C6         -0.8155    2.0494    1.1977 C.3       1 <0>        -0.1141
      7 C7         -0.0186    1.5188    0.0104 C.3       1 <0>        -0.0736
      8 H1         -0.5269    1.8517   -0.9110 H         1 <0>         0.0615
      9 C8          0.0021   -0.0041    0.0020 C.3       1 <0>        -0.1140
     10 C9          0.7590   -0.5229   -1.2345 C.3       1 <0>        -0.1087
     11 C10         2.1662    0.0464   -1.1695 C.3       1 <0>        -0.0698
     12 H2          2.5682   -0.2345   -0.1783 H         1 <0>         0.0644
     13 C11         2.0885    1.5769   -1.2442 C.3       1 <0>        -0.0754
     14 H3          1.4428    1.8540   -2.0888 H         1 <0>         0.0701
     15 C12         3.4764    2.1309   -1.5181 C.3       1 <0>        -0.1092
     16 C13         3.8241    1.8421   -2.9931 C.3       1 <0>        -0.1032
     17 C14         3.3190    0.4747   -3.3868 C.3       1 <0>        -0.0478
     18 C15         3.1597   -0.4533   -2.1677 C.3       1 <0>        -0.0725
     19 H4          4.1443   -0.5316   -1.6631 H         1 <0>         0.0659
     20 C16         2.8738   -1.8092   -2.8293 C.3       1 <0>        -0.1133
     21 C17         3.8237   -1.8093   -4.0584 C.3       1 <0>        -0.1586
     22 C18         4.3008   -0.3476   -4.2477 C.3       1 <0>         0.1017
     23 H5          5.3127   -0.2211   -3.8809 H         1 <0>         0.0582
     24 O1          4.1892    0.0418   -5.6144 O.3       1 <0>        -0.5573
     25 C19         2.0188    0.5957   -4.1849 C.3       1 <0>        -0.1313
     26 H6          2.2611    0.6823    1.3430 H         1 <0>         0.0566
     27 H7          3.1650    2.2103    1.2151 H         1 <0>         0.0535
     28 H8          1.6423    2.1514    2.1349 H         1 <0>         0.0566
     29 H9          2.2636    4.0877   -0.1026 H         1 <0>         0.0621
     30 H10         0.7812    3.8873   -1.0637 H         1 <0>         0.0589
     31 H11         0.9512    4.0412    1.9866 H         1 <0>         0.0624
     32 H12         0.3309    5.2886    0.8966 H         1 <0>         0.0556
     33 H13        -1.5016    3.9563    1.9268 H         1 <0>         0.0592
     34 H14        -1.4789    3.8123    0.1539 H         1 <0>         0.0590
     35 H15        -1.8179    1.6092    1.1810 H         1 <0>         0.0568
     36 H16        -0.3373    1.7919    2.1369 H         1 <0>         0.0642
     37 H17         0.4802   -0.3826    0.9014 H         1 <0>         0.0618
     38 H18        -1.0240   -0.3772   -0.0376 H         1 <0>         0.0583
     39 H19         0.7945   -1.6110   -1.2070 H         1 <0>         0.0632
     40 H20         0.2523   -0.1860   -2.1353 H         1 <0>         0.0634
     41 H21         3.4928    3.2075   -1.3445 H         1 <0>         0.0648
     42 H22         4.2089    1.6475   -0.8700 H         1 <0>         0.0605
     43 H23         3.3604    2.6032   -3.6278 H         1 <0>         0.0642
     44 H24         4.9082    1.8892   -3.1255 H         1 <0>         0.0591
     45 H25         1.8357   -1.8951   -3.1369 H         1 <0>         0.0727
     46 H26         3.1352   -2.6252   -2.1514 H         1 <0>         0.0625
     47 H27         3.2862   -2.1448   -4.9446 H         1 <0>         0.0727
     48 H28         4.6777   -2.4583   -3.8684 H         1 <0>         0.0637
     49 H29         4.7810   -0.4383   -6.2097 H         1 <0>         0.3739
     50 H30         2.1962    1.1912   -5.0804 H         1 <0>         0.0606
     51 H31         1.6746   -0.3980   -4.4716 H         1 <0>         0.0536
     52 H32         1.2594    1.0801   -3.5710 H         1 <0>         0.0542
@<TRIPOS>BOND
     1    1    2 1
     2    1   26 1
     3    1   27 1
     4    1   28 1
     5    2    7 1
     6    2   13 1
     7    2    3 1
     8    3    4 1
     9    3   29 1
    10    3   30 1
    11    4    5 1
    12    4   31 1
    13    4   32 1
    14    5    6 1
    15    5   33 1
    16    5   34 1
    17    6    7 1
    18    6   35 1
    19    6   36 1
    20    7    8 1
    21    7    9 1
    22    9   10 1
    23    9   37 1
    24    9   38 1
    25   10   11 1
    26   10   39 1
    27   10   40 1
    28   11   12 1
    29   11   18 1
    30   11   13 1
    31   13   14 1
    32   13   15 1
    33   15   16 1
    34   15   41 1
    35   15   42 1
    36   16   17 1
    37   16   43 1
    38   16   44 1
    39   17   22 1
    40   17   18 1
    41   17   25 1
    42   18   19 1
    43   18   20 1
    44   20   21 1
    45   20   45 1
    46   20   46 1
    47   21   22 1
    48   21   47 1
    49   21   48 1
    50   22   23 1
    51   22   24 1
    52   24   49 1
    53   25   50 1
    54   25   51 1
    55   25   52 1
@<TRIPOS>MOLECULE
ZINC03814426
   57    60     0     0     0
SMALL
USER_CHARGES

@<TRIPOS>ATOM
      1 C1         -3.5286    6.9211    1.9749 C.3       1 <0>        -0.1440
      2 C2         -3.2876    5.5133    2.5235 C.3       1 <0>        -0.1177
      3 C3         -2.1270    4.8831    1.7975 C.2       1 <0>         0.4565
      4 O1         -1.5516    5.4971    0.9304 O.2       1 <0>        -0.5081
      5 O2         -1.7325    3.6399    2.1143 O.3       1 <0>        -0.3462
      6 C4         -0.6078    3.0965    1.3740 C.3       1 <0>         0.0964
      7 H1         -0.5577    3.5424    0.3806 H         1 <0>         0.0888
      8 C5          0.7133    3.3489    2.1429 C.3       1 <0>        -0.1371
      9 C6          1.2674    1.9513    2.5317 C.3       1 <0>        -0.1150
     10 C7          0.0121    1.0718    2.5317 C.3       1 <0>        -0.0800
     11 H2         -0.5893    1.2538    3.4224 H         1 <0>         0.0824
     12 C8         -0.7288    1.5792    1.2668 C.3       1 <0>        -0.0615
     13 C9         -2.1301    0.9975    1.3272 C.3       1 <0>        -0.0966
     14 C10        -2.0011   -0.5194    1.1886 C.3       1 <0>        -0.1269
     15 C11        -1.0997   -1.1201    2.2658 C.3       1 <0>        -0.0640
     16 H3         -1.6022   -1.0488    3.2304 H         1 <0>         0.0764
     17 C12         0.2560   -0.4185    2.3563 C.3       1 <0>        -0.0745
     18 H4          0.8124   -0.5873    1.4343 H         1 <0>         0.0790
     19 C13         1.0833   -0.9215    3.5349 C.3       1 <0>        -0.1093
     20 C14         0.8539   -2.4027    3.8083 C.3       1 <0>        -0.0950
     21 C15         0.3918   -3.0745    2.5381 C.2       1 <0>        -0.0121
     22 C16         1.1105   -4.0472    1.9871 C.2       1 <0>        -0.2427
     23 C17         0.6827   -4.6885    0.7453 C.2       1 <0>         0.3864
     24 O3          1.3420   -5.5886    0.2687 O.2       1 <0>        -0.4638
     25 C18        -0.5784   -4.2307    0.0564 C.3       1 <0>        -0.1627
     26 C19        -0.8208   -2.7564    0.3954 C.3       1 <0>        -0.1113
     27 C20        -0.8961   -2.6013    1.9159 C.3       1 <0>        -0.0366
     28 C21        -2.0684   -3.4219    2.4575 C.3       1 <0>        -0.1405
     29 C22        -0.0127    1.0858    0.0080 C.3       1 <0>        -0.1500
     30 H5         -4.3680    7.3769    2.5000 H         1 <0>         0.0705
     31 H6         -2.6348    7.5269    2.1237 H         1 <0>         0.0637
     32 H7         -3.7546    6.8624    0.9102 H         1 <0>         0.0638
     33 H8         -4.1814    4.9074    2.3746 H         1 <0>         0.1048
     34 H9         -3.0616    5.5720    3.5882 H         1 <0>         0.1046
     35 H10         0.5177    3.9366    3.0398 H         1 <0>         0.0740
     36 H11         1.4256    3.8688    1.5023 H         1 <0>         0.0751
     37 H12         1.7195    1.9780    3.5232 H         1 <0>         0.0703
     38 H13         1.9854    1.5986    1.7914 H         1 <0>         0.0717
     39 H14        -2.5921    1.2374    2.2849 H         1 <0>         0.0717
     40 H15        -2.7338    1.3947    0.5112 H         1 <0>         0.0620
     41 H16        -1.5878   -0.7592    0.2089 H         1 <0>         0.0773
     42 H17        -2.9930   -0.9638    1.2707 H         1 <0>         0.0655
     43 H18         2.1397   -0.7610    3.3198 H         1 <0>         0.0664
     44 H19         0.8146   -0.3518    4.4245 H         1 <0>         0.0684
     45 H20         0.0917   -2.5172    4.5790 H         1 <0>         0.0829
     46 H21         1.7841   -2.8604    4.1449 H         1 <0>         0.0766
     47 H22         2.0246   -4.3686    2.4641 H         1 <0>         0.1305
     48 H23        -1.3499   -4.7830    0.3720 H         1 <0>         0.0936
     49 H24        -0.4670   -4.3438   -1.0220 H         1 <0>         0.0946
     50 H25        -1.7594   -2.4289   -0.0516 H         1 <0>         0.0884
     51 H26        -0.0001   -2.1531    0.0073 H         1 <0>         0.0729
     52 H27        -2.9971   -3.0681    2.0098 H         1 <0>         0.0674
     53 H28        -1.9221   -4.4728    2.2081 H         1 <0>         0.0593
     54 H29        -2.1211   -3.3093    3.5403 H         1 <0>         0.0614
     55 H30         0.0021   -0.0041    0.0020 H         1 <0>         0.0754
     56 H31         1.0099    1.4631    0.0003 H         1 <0>         0.0597
     57 H32        -0.5399    1.4469   -0.8751 H         1 <0>         0.0573
@<TRIPOS>BOND
     1    1    2 1
     2    1   30 1
     3    1   31 1
     4    1   32 1
     5    2    3 1
     6    2   33 1
     7    2   34 1
     8    3    4 2
     9    3    5 1
    10    5    6 1
    11    6    7 1
    12    6   12 1
    13    6    8 1
    14    8    9 1
    15    8   35 1
    16    8   36 1
    17    9   10 1
    18    9   37 1
    19    9   38 1
    20   10   11 1
    21   10   17 1
    22   10   12 1
    23   12   13 1
    24   12   29 1
    25   13   14 1
    26   13   39 1
    27   13   40 1
    28   14   15 1
    29   14   41 1
    30   14   42 1
    31   15   16 1
    32   15   27 1
    33   15   17 1
    34   17   18 1
    35   17   19 1
    36   19   20 1
    37   19   43 1
    38   19   44 1
    39   20   21 1
    40   20   45 1
    41   20   46 1
    42   21   27 1
    43   21   22 2
    44   22   23 1
    45   22   47 1
    46   23   24 2
    47   23   25 1
    48   25   26 1
    49   25   48 1
    50   25   49 1
    51   26   27 1
    52   26   50 1
    53   26   51 1
    54   27   28 1
    55   28   52 1
    56   28   53 1
    57   28   54 1
    58   29   55 1
    59   29   56 1
    60   29   57 1
@<TRIPOS>MOLECULE
ZINC03814427
   58    60     0     0     0
SMALL
USER_CHARGES

@<TRIPOS>ATOM
      1 C1         -4.6768    2.5777   -1.0642 C.3       1 <0>        -0.1485
      2 C2         -3.6326    2.7592    0.0393 C.3       1 <0>        -0.0563
      3 H1         -4.0813    2.5094    1.0008 H         1 <0>         0.0906
      4 C3         -3.1678    4.2165    0.0613 C.3       1 <0>        -0.1102
      5 C4         -1.9684    4.3156    1.0121 C.3       1 <0>        -0.0787
      6 H2         -2.2063    3.8210    1.9539 H         1 <0>         0.0767
      7 C5         -1.6508    5.7898    1.2719 C.3       1 <0>        -0.1038
      8 C6         -0.4350    5.8939    2.1951 C.3       1 <0>        -0.0473
      9 C7          0.7679    5.2192    1.5328 C.3       1 <0>        -0.1089
     10 C8          0.4490    3.7448    1.2765 C.3       1 <0>        -0.1172
     11 C9         -0.7869    3.6402    0.3689 C.3       1 <0>        -0.0653
     12 H3         -0.5481    4.1915   -0.5406 H         1 <0>         0.0730
     13 C10        -1.0422    2.2044   -0.0069 C.3       1 <0>        -0.0263
     14 C11        -2.4753    1.8458   -0.2191 C.2       1 <0>        -0.0342
     15 C12        -2.7121    0.5770   -0.6365 C.2       1 <0>        -0.2454
     16 C13        -1.4800   -0.2340   -0.7635 C.2       1 <0>         0.3997
     17 O1         -1.2414   -0.8790   -1.7630 O.2       1 <0>        -0.4622
     18 C14        -0.5336   -0.2179    0.4171 C.3       1 <0>        -0.1637
     19 C15        -0.3467    1.2171    0.9163 C.3       1 <0>        -0.1018
     20 C16        -0.3728    2.0168   -1.3698 C.3       1 <0>        -0.1708
     21 C17        -0.7421    5.1989    3.5231 C.3       1 <0>        -0.1601
     22 C18        -0.1150    7.3676    2.4529 C.3       1 <0>         0.0636
     23 H4          0.6858    7.4356    3.0480 H         1 <0>         0.0971
     24 C19        -1.2939    8.0285    3.1195 C.2       1 <0>         0.3409
     25 O2         -2.1252    8.5957    2.4520 O.2       1 <0>        -0.4314
     26 C20        -1.4355    7.9816    4.6191 C.3       1 <0>        -0.2036
     27 O3          0.1619    8.0307    1.1911 O.3       1 <0>        -0.3303
     28 C21         1.0178    9.0643    1.2208 C.2       1 <0>         0.4582
     29 O4          1.5190    9.4038    2.2665 O.2       1 <0>        -0.5142
     30 C22         1.3536    9.8013   -0.0501 C.3       1 <0>        -0.1464
     31 H5         -5.0224    1.5440   -1.0709 H         1 <0>         0.0594
     32 H6         -5.5209    3.2418   -0.8784 H         1 <0>         0.0616
     33 H7         -4.2309    2.8180   -2.0293 H         1 <0>         0.0582
     34 H8         -2.8698    4.5235   -0.9412 H         1 <0>         0.0681
     35 H9         -3.9755    4.8557    0.4176 H         1 <0>         0.0711
     36 H10        -1.4329    6.2868    0.3266 H         1 <0>         0.0767
     37 H11        -2.5083    6.2685    1.7449 H         1 <0>         0.0670
     38 H12         0.9860    5.7136    0.5862 H         1 <0>         0.0723
     39 H13         1.6342    5.2945    2.1901 H         1 <0>         0.0664
     40 H14         1.3052    3.2647    0.8028 H         1 <0>         0.0709
     41 H15         0.2324    3.2498    2.2231 H         1 <0>         0.0715
     42 H16        -3.6993    0.1969   -0.8539 H         1 <0>         0.1499
     43 H17         0.3530   -0.5872    0.1386 H         1 <0>         0.0816
     44 H18        -0.9457   -0.8295    1.2197 H         1 <0>         0.1008
     45 H19         0.7179    1.4485    0.9525 H         1 <0>         0.0857
     46 H20        -0.7671    1.3054    1.9181 H         1 <0>         0.0744
     47 H21        -0.1867    0.9564   -1.5404 H         1 <0>         0.0681
     48 H22         0.5726    2.5591   -1.3880 H         1 <0>         0.0660
     49 H23        -1.0273    2.4012   -2.1521 H         1 <0>         0.0603
     50 H24        -0.8178    4.1236    3.3615 H         1 <0>         0.0806
     51 H25         0.0582    5.4040    4.2341 H         1 <0>         0.0649
     52 H26        -1.6855    5.5741    3.9198 H         1 <0>         0.0643
     53 H27        -0.6584    8.4477    5.0420 H         1 <0>         0.0869
     54 H28        -2.3605    8.4780    4.9124 H         1 <0>         0.0887
     55 H29        -1.4600    6.9431    4.9494 H         1 <0>         0.1031
     56 H30         0.8101    9.3554   -0.8831 H         1 <0>         0.0932
     57 H31         1.0683   10.8484    0.0510 H         1 <0>         0.1071
     58 H32         2.4252    9.7331   -0.2373 H         1 <0>         0.1075
@<TRIPOS>BOND
     1    1    2 1
     2    1   31 1
     3    1   32 1
     4    1   33 1
     5    2    3 1
     6    2   14 1
     7    2    4 1
     8    4    5 1
     9    4   34 1
    10    4   35 1
    11    5    6 1
    12    5   11 1
    13    5    7 1
    14    7    8 1
    15    7   36 1
    16    7   37 1
    17    8    9 1
    18    8   21 1
    19    8   22 1
    20    9   10 1
    21    9   38 1
    22    9   39 1
    23   10   11 1
    24   10   40 1
    25   10   41 1
    26   11   12 1
    27   11   13 1
    28   13   19 1
    29   13   14 1
    30   13   20 1
    31   14   15 2
    32   15   16 1
    33   15   42 1
    34   16   17 2
    35   16   18 1
    36   18   19 1
    37   18   43 1
    38   18   44 1
    39   19   45 1
    40   19   46 1
    41   20   47 1
    42   20   48 1
    43   20   49 1
    44   21   50 1
    45   21   51 1
    46   21   52 1
    47   22   23 1
    48   22   24 1
    49   22   27 1
    50   24   25 2
    51   24   26 1
    52   26   53 1
    53   26   54 1
    54   26   55 1
    55   27   28 1
    56   28   29 2
    57   28   30 1
    58   30   56 1
    59   30   57 1
    60   30   58 1
@<TRIPOS>MOLECULE
ZINC03814428
   63    67     0     0     0
SMALL
USER_CHARGES

@<TRIPOS>ATOM
      1 C1         -0.7173    2.1044   -1.2263 C.3       1 <0>        -0.1537
      2 C2          0.0322    1.6007    0.0088 C.3       1 <0>        -0.0503
      3 C3          1.4549    2.1676    0.0102 C.3       1 <0>        -0.1091
      4 C4          2.1674    1.7745   -1.2869 C.3       1 <0>        -0.1636
      5 C5          2.1053    0.2691   -1.4265 C.2       1 <0>         0.3596
      6 O1          3.1049   -0.3778   -1.6280 O.2       1 <0>        -0.4573
      7 C6          0.7560   -0.4018   -1.3059 C.3       1 <0>        -0.1598
      8 C7          0.0821    0.0720   -0.0123 C.3       1 <0>        -0.0681
      9 H1          0.6492   -0.2863    0.8468 H         1 <0>         0.0756
     10 C8         -1.3399   -0.4932    0.0333 C.3       1 <0>        -0.1157
     11 C9         -2.0475   -0.0151    1.3017 C.3       1 <0>        -0.1138
     12 C10        -2.1154    1.5134    1.2942 C.3       1 <0>        -0.0737
     13 H2         -2.6623    1.8570    0.4161 H         1 <0>         0.0876
     14 C11        -0.6861    2.0747    1.2743 C.3       1 <0>        -0.0688
     15 H3         -0.1487    1.6984    2.1448 H         1 <0>         0.0678
     16 C12        -0.6805    3.5985    1.3349 C.3       1 <0>        -0.1195
     17 C13        -1.4695    4.1144    2.5501 C.3       1 <0>        -0.1052
     18 C14        -2.8770    3.5614    2.4419 C.3       1 <0>        -0.0612
     19 C15        -2.7796    2.0164    2.5622 C.3       1 <0>        -0.0807
     20 H4         -2.1891    1.7385    3.4353 H         1 <0>         0.0786
     21 C16        -4.2502    1.6268    2.7468 C.3       1 <0>        -0.1121
     22 C17        -4.7775    2.7130    3.7238 C.3       1 <0>        -0.1381
     23 C18        -3.8457    3.9394    3.5576 C.3       1 <0>         0.0975
     24 H5         -3.3010    4.1298    4.4823 H         1 <0>         0.0894
     25 O2         -4.6172    5.1097    3.1789 O.3       1 <0>        -0.3385
     26 C19        -5.0234    5.9225    4.1735 C.2       1 <0>         0.5066
     27 O3         -4.7409    5.6606    5.3255 O.2       1 <0>        -0.5054
     28 C20        -5.8125    7.1322    3.8632 C.ar      1 <0>        -0.1277
     29 C21        -6.1341    7.4392    2.5396 C.ar      1 <0>        -0.0620
     30 C22        -6.8750    8.5681    2.2572 C.ar      1 <0>        -0.1337
     31 C23        -7.2906    9.4007    3.2812 C.ar      1 <0>        -0.0835
     32 C24        -6.9713    9.1049    4.5947 C.ar      1 <0>        -0.1313
     33 C25        -6.2352    7.9767    4.8916 C.ar      1 <0>        -0.0560
     34 C26        -3.4776    3.9376    1.0859 C.3       1 <0>        -0.1398
     35 H6         -1.7326    1.7080   -1.2220 H         1 <0>         0.0645
     36 H7         -0.7525    3.1938   -1.2107 H         1 <0>         0.0611
     37 H8         -0.2007    1.7705   -2.1261 H         1 <0>         0.0579
     38 H9          1.4124    3.2541    0.0858 H         1 <0>         0.0812
     39 H10         2.0044    1.7664    0.8618 H         1 <0>         0.0672
     40 H11         3.1195    2.0781   -1.2494 H         1 <0>         0.0782
     41 H12         1.6702    2.2429   -2.1363 H         1 <0>         0.1003
     42 H13         0.8781   -1.3940   -1.2821 H         1 <0>         0.0787
     43 H14         0.1361   -0.1319   -2.1609 H         1 <0>         0.1008
     44 H15        -1.8937   -0.1516   -0.8412 H         1 <0>         0.0686
     45 H16        -1.2970   -1.5823    0.0309 H         1 <0>         0.0641
     46 H17        -3.0573   -0.4243    1.3316 H         1 <0>         0.0658
     47 H18        -1.4922   -0.3514    2.1772 H         1 <0>         0.0622
     48 H19         0.3494    3.9488    1.4035 H         1 <0>         0.0658
     49 H20        -1.1313    3.9932    0.4244 H         1 <0>         0.0726
     50 H21        -1.0032    3.7640    3.4709 H         1 <0>         0.0642
     51 H22        -1.4961    5.2040    2.5395 H         1 <0>         0.0646
     52 H23        -4.3336    0.6350    3.1913 H         1 <0>         0.0701
     53 H24        -4.7852    1.6689    1.7981 H         1 <0>         0.0733
     54 H25        -4.7341    2.3465    4.7494 H         1 <0>         0.0750
     55 H26        -5.8013    2.9833    3.4655 H         1 <0>         0.0744
     56 H27        -5.8065    6.7926    1.7390 H         1 <0>         0.1378
     57 H28        -7.1276    8.8048    1.2342 H         1 <0>         0.1323
     58 H29        -7.8672   10.2852    3.0543 H         1 <0>         0.1305
     59 H30        -7.2988    9.7590    5.3892 H         1 <0>         0.1337
     60 H31        -5.9860    7.7474    5.9171 H         1 <0>         0.1372
     61 H32        -2.8279    3.5773    0.2882 H         1 <0>         0.0672
     62 H33        -4.4627    3.4819    0.9858 H         1 <0>         0.0576
     63 H34        -3.5700    5.0215    1.0175 H         1 <0>         0.0592
@<TRIPOS>BOND
     1    1    2 1
     2    1   35 1
     3    1   36 1
     4    1   37 1
     5    2    8 1
     6    2   14 1
     7    2    3 1
     8    3    4 1
     9    3   38 1
    10    3   39 1
    11    4    5 1
    12    4   40 1
    13    4   41 1
    14    5    6 2
    15    5    7 1
    16    7    8 1
    17    7   42 1
    18    7   43 1
    19    8    9 1
    20    8   10 1
    21   10   11 1
    22   10   44 1
    23   10   45 1
    24   11   12 1
    25   11   46 1
    26   11   47 1
    27   12   13 1
    28   12   19 1
    29   12   14 1
    30   14   15 1
    31   14   16 1
    32   16   17 1
    33   16   48 1
    34   16   49 1
    35   17   18 1
    36   17   50 1
    37   17   51 1
    38   18   23 1
    39   18   19 1
    40   18   34 1
    41   19   20 1
    42   19   21 1
    43   21   22 1
    44   21   52 1
    45   21   53 1
    46   22   23 1
    47   22   54 1
    48   22   55 1
    49   23   24 1
    50   23   25 1
    51   25   26 1
    52   26   27 2
    53   26   28 1
    54   28   33 ar
    55   28   29 ar
    56   29   30 ar
    57   29   56 1
    58   30   31 ar
    59   30   57 1
    60   31   32 ar
    61   31   58 1
    62   32   33 ar
    63   32   59 1
    64   33   60 1
    65   34   61 1
    66   34   62 1
    67   34   63 1
@<TRIPOS>MOLECULE
ZINC03814429
   42    45     0     0     0
SMALL
USER_CHARGES

@<TRIPOS>ATOM
      1 C1         -0.8222    8.0025   -2.3181 C.3       1 <0>        -0.1277
      2 C2         -0.1158    8.0952   -0.9641 C.3       1 <0>        -0.0421
      3 C3          1.1580    7.3216   -1.0092 C.2       1 <0>        -0.0903
      4 C4          1.0895    5.9889   -0.8461 C.2       1 <0>        -0.1527
      5 C5         -0.1382    5.3126   -0.6161 C.2       1 <0>        -0.0198
      6 C6         -0.1399    3.9531   -0.5555 C.2       1 <0>        -0.1264
      7 C7          1.1395    3.2199   -0.8789 C.3       1 <0>        -0.0817
      8 C8          1.2804    1.9808    0.0005 C.3       1 <0>        -0.1594
      9 C9         -0.0144    1.2112    0.0087 C.2       1 <0>         0.3850
     10 O1          0.0021   -0.0041    0.0020 O.2       1 <0>        -0.4710
     11 C10        -1.2355    1.8928    0.0182 C.2       1 <0>        -0.2587
     12 C11        -1.2887    3.2400   -0.1830 C.2       1 <0>         0.0329
     13 C12        -2.5976    3.9572    0.0448 C.3       1 <0>        -0.0994
     14 C13        -2.3025    5.3532    0.6065 C.3       1 <0>        -0.1097
     15 C14        -1.4157    6.0933   -0.3910 C.3       1 <0>        -0.0533
     16 H1         -1.9431    6.2110   -1.3377 H         1 <0>         0.1011
     17 C15        -1.0100    7.4554    0.1367 C.3       1 <0>        -0.0805
     18 H2         -0.4577    7.3543    1.0710 H         1 <0>         0.0844
     19 C16        -2.1302    8.4933    0.2598 C.3       1 <0>        -0.1127
     20 C17        -1.3610    9.8419    0.2042 C.3       1 <0>        -0.1565
     21 C18        -0.0317    9.5558   -0.5390 C.3       1 <0>         0.1139
     22 H3          0.8163    9.7068    0.1289 H         1 <0>         0.0611
     23 O2          0.0859   10.3996   -1.6863 O.3       1 <0>        -0.5595
     24 H4         -1.7724    8.5343   -2.2693 H         1 <0>         0.0624
     25 H5         -0.1936    8.4513   -3.0872 H         1 <0>         0.0653
     26 H6         -1.0037    6.9558   -2.5623 H         1 <0>         0.0560
     27 H7          2.1050    7.8158   -1.1681 H         1 <0>         0.1249
     28 H8          2.0011    5.4115   -0.8913 H         1 <0>         0.1264
     29 H9          1.9878    3.8823   -0.7069 H         1 <0>         0.0904
     30 H10         1.1240    2.9187   -1.9264 H         1 <0>         0.0816
     31 H11         1.5051    2.2587    0.9345 H         1 <0>         0.0888
     32 H12         2.0761    1.3471   -0.3911 H         1 <0>         0.0947
     33 H13        -2.1499    1.3447    0.1912 H         1 <0>         0.1347
     34 H14        -3.2024    3.3967    0.7576 H         1 <0>         0.0867
     35 H15        -3.1357    4.0491   -0.8987 H         1 <0>         0.0890
     36 H16        -1.7852    5.2631    1.5617 H         1 <0>         0.0712
     37 H17        -3.2357    5.8993    0.7443 H         1 <0>         0.0799
     38 H18        -2.8257    8.4112   -0.5754 H         1 <0>         0.0744
     39 H19        -2.6528    8.3861    1.2103 H         1 <0>         0.0715
     40 H20        -1.1561   10.1977    1.2139 H         1 <0>         0.0705
     41 H21        -1.9433   10.5836   -0.3425 H         1 <0>         0.0764
     42 H22         0.1434   11.3420   -1.4772 H         1 <0>         0.3782
@<TRIPOS>BOND
     1    1    2 1
     2    1   24 1
     3    1   25 1
     4    1   26 1
     5    2   17 1
     6    2   21 1
     7    2    3 1
     8    3    4 2
     9    3   27 1
    10    4    5 1
    11    4   28 1
    12    5   15 1
    13    5    6 2
    14    6   12 1
    15    6    7 1
    16    7    8 1
    17    7   29 1
    18    7   30 1
    19    8    9 1
    20    8   31 1
    21    8   32 1
    22    9   10 2
    23    9   11 1
    24   11   12 2
    25   11   33 1
    26   12   13 1
    27   13   14 1
    28   13   34 1
    29   13   35 1
    30   14   15 1
    31   14   36 1
    32   14   37 1
    33   15   16 1
    34   15   17 1
    35   17   18 1
    36   17   19 1
    37   19   20 1
    38   19   38 1
    39   19   39 1
    40   20   21 1
    41   20   40 1
    42   20   41 1
    43   21   22 1
    44   21   23 1
    45   23   42 1
@<TRIPOS>MOLECULE
ZINC03814430
   61    65     0     0     0
SMALL
USER_CHARGES

@<TRIPOS>ATOM
      1 C1         -1.5734   -2.7446    5.0299 C.3       1 <0>        -0.1727
      2 C2         -0.6823   -1.6191    4.5714 C.2       1 <0>         0.3204
      3 O1          0.5224   -1.7183    4.6753 O.2       1 <0>        -0.4542
      4 S1         -1.3700   -0.2005    3.9039 S.3       1 <0>        -0.1170
      5 C3          0.1341    0.7445    3.5563 C.3       1 <0>        -0.0596
      6 H1          0.8029    0.1499    2.9340 H         1 <0>         0.1086
      7 C4          0.8345    1.0926    4.8717 C.3       1 <0>        -0.0969
      8 C5         -0.0658    2.0158    5.6725 C.2       1 <0>        -0.0180
      9 C6         -0.2772    1.7187    6.9542 C.2       1 <0>        -0.2321
     10 C7         -1.1088    2.5973    7.7838 C.2       1 <0>         0.3882
     11 O2         -1.6286    2.2043    8.8073 O.2       1 <0>        -0.4544
     12 C8         -1.2857    4.0218    7.2957 C.3       1 <0>        -0.1587
     13 C9         -1.6857    3.9535    5.8222 C.3       1 <0>        -0.1044
     14 C10        -0.6484    3.2169    4.9934 C.3       1 <0>        -0.0262
     15 C11        -1.2696    2.8091    3.6518 C.3       1 <0>        -0.0727
     16 H2         -2.1215    2.1582    3.8489 H         1 <0>         0.0851
     17 C12        -0.2323    2.0377    2.8228 C.3       1 <0>        -0.0595
     18 H3          0.6542    2.6531    2.6696 H         1 <0>         0.1062
     19 C13        -0.8703    1.7058    1.4863 C.3       1 <0>        -0.0884
     20 H4         -1.7967    1.1485    1.6258 H         1 <0>         0.0939
     21 C14         0.0340    0.9920    0.4746 C.3       1 <0>        -0.1150
     22 C15        -0.6275    1.3311   -0.8913 C.3       1 <0>        -0.1384
     23 C16        -1.4233    2.6324   -0.6684 C.3       1 <0>         0.1201
     24 C17        -1.1538    3.0535    0.7629 C.3       1 <0>        -0.0508
     25 C18        -2.2868    3.7274    1.5117 C.3       1 <0>        -0.0989
     26 C19        -1.7573    4.0594    2.9257 C.3       1 <0>        -0.1210
     27 C20         0.0956    3.9351    0.8150 C.3       1 <0>        -0.1555
     28 C21        -0.9720    3.7084   -1.6697 C.3       1 <0>        -0.1442
     29 C22        -1.9945    3.5277   -2.8159 C.3       1 <0>        -0.1899
     30 C23        -3.0990    2.6808   -2.2203 C.2       1 <0>         0.4800
     31 O3         -4.0741    2.2912   -2.8180 O.2       1 <0>        -0.4556
     32 O4         -2.8338    2.4274   -0.9283 O.3       1 <0>        -0.3271
     33 C24         0.5018    4.1840    4.7058 C.3       1 <0>        -0.1523
     34 H5         -1.7280   -3.3775    4.2713 H         1 <0>         0.0919
     35 H6         -1.0948   -3.2745    5.8535 H         1 <0>         0.0958
     36 H7         -2.5280   -2.3389    5.3649 H         1 <0>         0.0913
     37 H8          1.7788    1.5947    4.6614 H         1 <0>         0.0974
     38 H9          1.0232    0.1821    5.4404 H         1 <0>         0.0941
     39 H10         0.1640    0.8308    7.3824 H         1 <0>         0.1316
     40 H11        -0.4263    4.5211    7.4060 H         1 <0>         0.0904
     41 H12        -2.0690    4.5168    7.8697 H         1 <0>         0.0928
     42 H13        -1.7952    4.9669    5.4361 H         1 <0>         0.0853
     43 H14        -2.6413    3.4358    5.7379 H         1 <0>         0.0727
     44 H15         0.0317   -0.0842    0.6476 H         1 <0>         0.0725
     45 H16         1.0493    1.3862    0.5198 H         1 <0>         0.0745
     46 H17         0.1385    1.4853   -1.6512 H         1 <0>         0.0824
     47 H18        -1.2985    0.5269   -1.1932 H         1 <0>         0.0803
     48 H19        -2.5759    4.6452    0.9997 H         1 <0>         0.0672
     49 H20        -3.1408    3.0533    1.5778 H         1 <0>         0.0747
     50 H21        -2.5591    4.5169    3.5053 H         1 <0>         0.0710
     51 H22        -0.9319    4.7662    2.8417 H         1 <0>         0.0767
     52 H23        -0.1004    4.8739    0.2971 H         1 <0>         0.0646
     53 H24         0.3524    4.1403    1.8543 H         1 <0>         0.0767
     54 H25         0.9248    3.4193    0.3309 H         1 <0>         0.0628
     55 H26        -1.0488    4.7040   -1.2326 H         1 <0>         0.0953
     56 H27         0.0424    3.5150   -2.0185 H         1 <0>         0.0993
     57 H28        -1.5331    3.0117   -3.6580 H         1 <0>         0.1115
     58 H29        -2.3864    4.4941   -3.1328 H         1 <0>         0.1137
     59 H30         0.1173    5.0617    4.1863 H         1 <0>         0.0714
     60 H31         0.9622    4.4905    5.6451 H         1 <0>         0.0607
     61 H32         1.2453    3.6889    4.0813 H         1 <0>         0.0624
@<TRIPOS>BOND
     1    1    2 1
     2    1   34 1
     3    1   35 1
     4    1   36 1
     5    2    3 2
     6    2    4 1
     7    4    5 1
     8    5    6 1
     9    5   17 1
    10    5    7 1
    11    7    8 1
    12    7   37 1
    13    7   38 1
    14    8   14 1
    15    8    9 2
    16    9   10 1
    17    9   39 1
    18   10   11 2
    19   10   12 1
    20   12   13 1
    21   12   40 1
    22   12   41 1
    23   13   14 1
    24   13   42 1
    25   13   43 1
    26   14   15 1
    27   14   33 1
    28   15   16 1
    29   15   26 1
    30   15   17 1
    31   17   18 1
    32   17   19 1
    33   19   20 1
    34   19   24 1
    35   19   21 1
    36   21   22 1
    37   21   44 1
    38   21   45 1
    39   22   23 1
    40   22   46 1
    41   22   47 1
    42   23   32 1
    43   23   24 1
    44   23   28 1
    45   24   25 1
    46   24   27 1
    47   25   26 1
    48   25   48 1
    49   25   49 1
    50   26   50 1
    51   26   51 1
    52   27   52 1
    53   27   53 1
    54   27   54 1
    55   28   29 1
    56   28   55 1
    57   28   56 1
    58   29   30 1
    59   29   57 1
    60   29   58 1
    61   30   31 2
    62   30   32 1
    63   33   59 1
    64   33   60 1
    65   33   61 1
@<TRIPOS>MOLECULE
ZINC03814431
   52    55     0     0     0
SMALL
USER_CHARGES

@<TRIPOS>ATOM
      1 C1         -2.0104   -5.8604    3.7502 C.3       1 <0>        -0.1479
      2 C2         -1.3379   -6.5699    2.5733 C.3       1 <0>        -0.0661
      3 C3         -1.6258   -8.0660    2.6406 C.3       1 <0>        -0.1128
      4 C4         -2.9645   -8.2597    1.8854 C.3       1 <0>        -0.1237
      5 C5         -3.3591   -6.8646    1.3285 C.3       1 <0>        -0.1160
      6 C6         -2.0136   -6.1359    1.2418 C.3       1 <0>        -0.0814
      7 H1         -1.4334   -6.4834    0.3870 H         1 <0>         0.0729
      8 C7         -2.0798   -4.6203    1.2535 C.3       1 <0>        -0.0757
      9 H2         -2.5888   -4.2664    2.1500 H         1 <0>         0.0831
     10 C8         -2.8091   -4.1097    0.0099 C.3       1 <0>        -0.1133
     11 C9         -2.8213   -2.5797    0.0192 C.3       1 <0>        -0.1155
     12 C10        -1.3838   -2.0563    0.0160 C.3       1 <0>        -0.0707
     13 H3         -0.8729   -2.4069   -0.8808 H         1 <0>         0.0693
     14 C11        -1.3976   -0.5265    0.0292 C.3       1 <0>        -0.1094
     15 C12         0.0402   -0.0036    0.0235 C.3       1 <0>         0.1051
     16 H4          0.5512   -0.3551   -0.8728 H         1 <0>         0.0517
     17 C13         0.7743   -0.5173    1.2637 C.3       1 <0>        -0.1534
     18 C14         0.7885   -2.0470    1.2505 C.3       1 <0>        -0.1087
     19 C15        -0.6490   -2.5713    1.2554 C.3       1 <0>        -0.0469
     20 C16        -0.6338   -4.1005    1.2394 C.3       1 <0>        -0.0671
     21 H5         -0.1475   -4.4383    0.3243 H         1 <0>         0.0636
     22 C17         0.1638   -4.6270    2.4275 C.3       1 <0>        -0.1197
     23 C18         0.1204   -6.1629    2.4953 C.3       1 <0>        -0.1031
     24 C19        -1.3667   -2.0813    2.5147 C.3       1 <0>        -0.1519
     25 O1          0.0275    1.4253    0.0352 O.3       1 <0>        -0.5699
     26 H6         -1.8720   -4.7836    3.6525 H         1 <0>         0.0660
     27 H7         -3.0757   -6.0910    3.7529 H         1 <0>         0.0547
     28 H8         -1.5626   -6.2010    4.6838 H         1 <0>         0.0504
     29 H9         -0.8304   -8.6262    2.1490 H         1 <0>         0.0621
     30 H10        -1.7262   -8.3850    3.6780 H         1 <0>         0.0629
     31 H11        -2.8328   -8.9662    1.0658 H         1 <0>         0.0612
     32 H12        -3.7316   -8.6207    2.5704 H         1 <0>         0.0608
     33 H13        -3.8102   -6.9572    0.3405 H         1 <0>         0.0622
     34 H14        -4.0356   -6.3532    2.0134 H         1 <0>         0.0668
     35 H15        -3.8338   -4.4813    0.0114 H         1 <0>         0.0625
     36 H16        -2.2953   -4.4637   -0.8838 H         1 <0>         0.0595
     37 H17        -3.3344   -2.2260    0.9135 H         1 <0>         0.0658
     38 H18        -3.3423   -2.2153   -0.8662 H         1 <0>         0.0612
     39 H19        -1.9084   -0.1754    0.9259 H         1 <0>         0.0729
     40 H20        -1.9210   -0.1602   -0.8540 H         1 <0>         0.0671
     41 H21         1.7985   -0.1443    1.2602 H         1 <0>         0.0616
     42 H22         0.2628   -0.1663    2.1600 H         1 <0>         0.0739
     43 H23         1.3000   -2.3978    0.3542 H         1 <0>         0.0615
     44 H24         1.3116   -2.4131    2.1340 H         1 <0>         0.0692
     45 H25         1.2003   -4.3034    2.3328 H         1 <0>         0.0610
     46 H26        -0.2547   -4.2184    3.3472 H         1 <0>         0.0690
     47 H27         0.5763   -6.5867    1.6005 H         1 <0>         0.0611
     48 H28         0.6513   -6.5101    3.3817 H         1 <0>         0.0609
     49 H29        -1.3775   -0.9914    2.5258 H         1 <0>         0.0594
     50 H30        -2.3906   -2.4549    2.5179 H         1 <0>         0.0609
     51 H31        -0.8431   -2.4484    3.3974 H         1 <0>         0.0555
     52 H32         0.9074    1.8265    0.0325 H         1 <0>         0.3772
@<TRIPOS>BOND
     1    1    2 1
     2    1   26 1
     3    1   27 1
     4    1   28 1
     5    2    6 1
     6    2   23 1
     7    2    3 1
     8    3    4 1
     9    3   29 1
    10    3   30 1
    11    4    5 1
    12    4   31 1
    13    4   32 1
    14    5    6 1
    15    5   33 1
    16    5   34 1
    17    6    7 1
    18    6    8 1
    19    8    9 1
    20    8   20 1
    21    8   10 1
    22   10   11 1
    23   10   35 1
    24   10   36 1
    25   11   12 1
    26   11   37 1
    27   11   38 1
    28   12   13 1
    29   12   19 1
    30   12   14 1
    31   14   15 1
    32   14   39 1
    33   14   40 1
    34   15   16 1
    35   15   17 1
    36   15   25 1
    37   17   18 1
    38   17   41 1
    39   17   42 1
    40   18   19 1
    41   18   43 1
    42   18   44 1
    43   19   20 1
    44   19   24 1
    45   20   21 1
    46   20   22 1
    47   22   23 1
    48   22   45 1
    49   22   46 1
    50   23   47 1
    51   23   48 1
    52   24   49 1
    53   24   50 1
    54   24   51 1
    55   25   52 1
