@<TRIPOS>MOLECULE
ZINC00001995
   39    41     0     0     0
SMALL
USER_CHARGES

@<TRIPOS>ATOM
      1 C1         -1.3127    2.0374   -0.8264 C.3       1 <0>        -0.1251
      2 C2          0.0004    1.3277   -0.6184 C.ar      1 <0>        -0.0060
      3 C3          1.1844    2.0522   -0.6457 C.ar      1 <0>        -0.1565
      4 C4          2.3876    1.4285   -0.4651 C.ar      1 <0>        -0.0348
      5 C5          2.4236    0.0500   -0.2513 C.ar      1 <0>        -0.1932
      6 C6          1.2243   -0.6884   -0.2229 C.ar      1 <0>         0.2154
      7 C7          0.0135   -0.0356   -0.4085 C.ar      1 <0>        -0.1766
      8 N1          1.2941   -2.0508   -0.0087 N.am      1 <0>        -0.5357
      9 C8          2.4863   -2.6483    0.1671 C.2       1 <0>         0.6482
     10 O1          2.5126   -3.8524    0.3535 O.2       1 <0>        -0.5123
     11 N2          3.6412   -1.9810    0.1469 N.2       1 <0>        -0.5348
     12 C9          3.6871   -0.6724   -0.0504 C.2       1 <0>         0.3420
     13 C10         4.9795    0.0447   -0.0689 C.ar      1 <0>        -0.0752
     14 C11         5.2031    1.0634   -0.9976 C.ar      1 <0>        -0.0896
     15 C12         6.4095    1.7321   -1.0058 C.ar      1 <0>        -0.1234
     16 C13         7.4011    1.3880   -0.1039 C.ar      1 <0>        -0.0924
     17 C14         7.1881    0.3759    0.8155 C.ar      1 <0>        -0.1231
     18 C15         5.9845   -0.2974    0.8383 C.ar      1 <0>        -0.0619
     19 C16         0.0656   -2.8482    0.0266 C.3       1 <0>         0.1283
     20 C17         0.1164   -3.9121   -1.0717 C.3       1 <0>        -0.1705
     21 C18        -0.0613   -3.5291    1.3909 C.3       1 <0>        -0.1702
     22 H1         -1.7058    2.3637    0.1364 H         1 <0>         0.0819
     23 H2         -1.1593    2.9044   -1.4689 H         1 <0>         0.0765
     24 H3         -2.0226    1.3573   -1.2972 H         1 <0>         0.0733
     25 H4          1.1547    3.1190   -0.8113 H         1 <0>         0.1362
     26 H5          3.3043    1.9991   -0.4875 H         1 <0>         0.1474
     27 H6         -0.9124   -0.5913   -0.3885 H         1 <0>         0.1407
     28 H7          4.4317    1.3299   -1.7049 H         1 <0>         0.1338
     29 H8          6.5823    2.5229   -1.7207 H         1 <0>         0.1326
     30 H9          8.3454    1.9120   -0.1175 H         1 <0>         0.1296
     31 H10         7.9662    0.1124    1.5165 H         1 <0>         0.1320
     32 H11         5.8196   -1.0870    1.5564 H         1 <0>         0.1336
     33 H12        -0.7941   -2.1983   -0.1365 H         1 <0>         0.0990
     34 H13         0.9762   -4.5620   -0.9085 H         1 <0>         0.0847
     35 H14        -0.7976   -4.5054   -1.0454 H         1 <0>         0.0751
     36 H15         0.2068   -3.4270   -2.0436 H         1 <0>         0.0556
     37 H16        -0.0975   -2.7711    2.1733 H         1 <0>         0.0557
     38 H17        -0.9753   -4.1224    1.4172 H         1 <0>         0.0752
     39 H18         0.7985   -4.1789    1.5540 H         1 <0>         0.0843
@<TRIPOS>BOND
     1    1    2 1
     2    1   22 1
     3    1   23 1
     4    1   24 1
     5    2    7 ar
     6    2    3 ar
     7    3    4 ar
     8    3   25 1
     9    4    5 ar
    10    4   26 1
    11    5   12 1
    12    5    6 ar
    13    6    7 ar
    14    6    8 1
    15    7   27 1
    16    8    9 am
    17    8   19 1
    18    9   10 2
    19    9   11 1
    20   11   12 2
    21   12   13 1
    22   13   18 ar
    23   13   14 ar
    24   14   15 ar
    25   14   28 1
    26   15   16 ar
    27   15   29 1
    28   16   17 ar
    29   16   30 1
    30   17   18 ar
    31   17   31 1
    32   18   32 1
    33   19   20 1
    34   19   21 1
    35   19   33 1
    36   20   34 1
    37   20   35 1
    38   20   36 1
    39   21   37 1
    40   21   38 1
    41   21   39 1
@<TRIPOS>MOLECULE
ZINC00012342
   44    45     0     0     0
SMALL
USER_CHARGES

@<TRIPOS>ATOM
      1 C1          3.2008    2.1454   -2.1434 C.3       1 <0>        -0.1559
      2 C2          2.9205    0.8037   -1.4635 C.3       1 <0>        -0.0796
      3 H1          2.1246    0.2849   -1.9977 H         1 <0>         0.0735
      4 C3          2.4893    1.0459   -0.0156 C.3       1 <0>        -0.0805
      5 C4          1.1751    1.7833    0.0004 C.ar      1 <0>        -0.0685
      6 C5          1.1599    3.1657    0.0080 C.ar      1 <0>        -0.1084
      7 C6         -0.0431    3.8467    0.0237 C.ar      1 <0>        -0.1287
      8 C7         -1.2371    3.1437    0.0313 C.ar      1 <0>         0.0746
      9 C8         -1.2218    1.7523    0.0174 C.ar      1 <0>         0.0835
     10 C9         -0.0126    1.0758    0.0080 C.ar      1 <0>        -0.1293
     11 O1         -2.3911    1.0578    0.0191 O.3       1 <0>        -0.4938
     12 O2         -2.4214    3.8121    0.0463 O.3       1 <0>        -0.4939
     13 C10         4.1888   -0.0520   -1.4816 C.3       1 <0>        -0.0802
     14 H2          4.9847    0.4668   -0.9473 H         1 <0>         0.0737
     15 C11         3.9085   -1.3936   -0.8017 C.3       1 <0>        -0.1563
     16 C12         4.6200   -0.2942   -2.9294 C.3       1 <0>        -0.0799
     17 C13         5.9342   -1.0315   -2.9455 C.ar      1 <0>        -0.0686
     18 C14         5.9494   -2.4139   -2.9526 C.ar      1 <0>        -0.1081
     19 C15         7.1524   -3.0949   -2.9673 C.ar      1 <0>        -0.1281
     20 C16         8.3464   -2.3919   -2.9754 C.ar      1 <0>         0.0740
     21 C17         8.3311   -1.0005   -2.9687 C.ar      1 <0>         0.0828
     22 C18         7.1218   -0.3240   -2.9588 C.ar      1 <0>        -0.1290
     23 O3          9.5003   -0.3060   -2.9766 O.3       1 <0>        -0.4886
     24 O4          9.5307   -3.0603   -2.9904 O.3       1 <0>        -0.4889
     25 H3          2.2973    2.7550   -2.1305 H         1 <0>         0.0592
     26 H4          3.9968    2.6642   -1.6092 H         1 <0>         0.0556
     27 H5          3.5081    1.9728   -3.1749 H         1 <0>         0.0583
     28 H6          3.2464    1.6417    0.4941 H         1 <0>         0.0757
     29 H7          2.3755    0.0894    0.4944 H         1 <0>         0.0792
     30 H8          2.0898    3.7148    0.0021 H         1 <0>         0.1295
     31 H9         -0.0522    4.9266    0.0296 H         1 <0>         0.1328
     32 H10         0.0021   -0.0041    0.0020 H         1 <0>         0.1319
     33 H11        -2.7251    0.8522    0.9030 H         1 <0>         0.3929
     34 H12        -2.7723    4.0102   -0.8328 H         1 <0>         0.3921
     35 H13         3.1125   -1.9124   -1.3359 H         1 <0>         0.0554
     36 H14         4.8120   -2.0032   -0.8145 H         1 <0>         0.0595
     37 H15         3.6012   -1.2211    0.2298 H         1 <0>         0.0586
     38 H16         3.8629   -0.8900   -3.4392 H         1 <0>         0.0755
     39 H17         4.7338    0.6624   -3.4395 H         1 <0>         0.0789
     40 H18         5.0195   -2.9630   -2.9463 H         1 <0>         0.1297
     41 H19         7.1615   -4.1749   -2.9729 H         1 <0>         0.1329
     42 H20         7.1071    0.7559   -2.9573 H         1 <0>         0.1319
     43 H21         9.8301   -0.1010   -3.8622 H         1 <0>         0.3874
     44 H22         9.8646   -3.2492   -3.8780 H         1 <0>         0.3869
@<TRIPOS>BOND
     1    1    2 1
     2    1   25 1
     3    1   26 1
     4    1   27 1
     5    2    3 1
     6    2    4 1
     7    2   13 1
     8    4    5 1
     9    4   28 1
    10    4   29 1
    11    5   10 ar
    12    5    6 ar
    13    6    7 ar
    14    6   30 1
    15    7    8 ar
    16    7   31 1
    17    8    9 ar
    18    8   12 1
    19    9   10 ar
    20    9   11 1
    21   10   32 1
    22   11   33 1
    23   12   34 1
    24   13   14 1
    25   13   15 1
    26   13   16 1
    27   15   35 1
    28   15   36 1
    29   15   37 1
    30   16   17 1
    31   16   38 1
    32   16   39 1
    33   17   22 ar
    34   17   18 ar
    35   18   19 ar
    36   18   40 1
    37   19   20 ar
    38   19   41 1
    39   20   21 ar
    40   20   24 1
    41   21   22 ar
    42   21   23 1
    43   22   42 1
    44   23   43 1
    45   24   44 1
@<TRIPOS>MOLECULE
ZINC00901016
   41    43     0     0     0
SMALL
USER_CHARGES

@<TRIPOS>ATOM
      1 C1          1.2937    3.9354    0.0381 C.3       1 <0>        -0.0985
      2 C2         -0.1453    4.3699    0.1446 C.2       1 <0>        -0.1236
      3 C3         -0.5698    5.6275    0.3669 C.2       1 <0>        -0.0182
      4 C4         -2.0346    5.6594    0.4056 C.ar      1 <0>        -0.0059
      5 C5         -2.9536    6.6941    0.6013 C.ar      1 <0>        -0.1262
      6 C6         -4.3073    6.4229    0.5861 C.ar      1 <0>         0.1036
      7 C7         -4.7662    5.1292    0.3772 C.ar      1 <0>        -0.1637
      8 C8         -3.8742    4.0942    0.1820 C.ar      1 <0>        -0.0622
      9 C9         -2.5074    4.3483    0.1880 C.ar      1 <0>        -0.0956
     10 C10        -1.3150    3.4907    0.0225 C.2       1 <0>        -0.0125
     11 C11        -1.3036    2.1450   -0.2054 C.2       1 <0>        -0.0897
     12 C12        -0.0551    1.4767   -0.5909 C.ar      1 <0>        -0.0155
     13 C13         0.7617    2.0295   -1.5851 C.ar      1 <0>        -0.1035
     14 C14         1.9294    1.3919   -1.9453 C.ar      1 <0>        -0.0493
     15 C15         2.2960    0.2088   -1.3267 C.ar      1 <0>        -0.4602
     16 C16         1.4945   -0.3446   -0.3429 C.ar      1 <0>        -0.0605
     17 C17         0.3233    0.2794    0.0293 C.ar      1 <0>        -0.1235
     18 S1          3.7912   -0.5974   -1.7947 S.o       1 <0>         1.3291
     19 O1          4.1412   -1.3638   -0.6504 O.2       1 <0>        -0.8592
     20 C18         3.2887   -1.7096   -3.1367 C.3       1 <0>        -0.4984
     21 F1         -5.1931    7.4252    0.7757 F         1 <0>        -0.1410
     22 C19         0.3274    6.8244    0.5495 C.3       1 <0>        -0.1231
     23 C20         0.4959    7.5319   -0.7704 C.2       1 <0>         0.4694
     24 O2         -0.0560    7.1077   -1.7580 O.co2     1 <0>        -0.6282
     25 H1          1.6164    3.9987   -1.0012 H         1 <0>         0.0778
     26 H2          1.9162    4.5864    0.6520 H         1 <0>         0.0646
     27 H3          1.3896    2.9070    0.3863 H         1 <0>         0.0660
     28 H4         -2.6057    7.7034    0.7645 H         1 <0>         0.1376
     29 H5         -5.8279    4.9314    0.3678 H         1 <0>         0.1354
     30 H6         -4.2373    3.0900    0.0200 H         1 <0>         0.1302
     31 H7         -2.2132    1.5721   -0.1019 H         1 <0>         0.1336
     32 H8          0.4771    2.9523   -2.0687 H         1 <0>         0.1396
     33 H9          2.5603    1.8165   -2.7121 H         1 <0>         0.1397
     34 H10         1.7877   -1.2682    0.1341 H         1 <0>         0.1236
     35 H11        -0.3010   -0.1539    0.7967 H         1 <0>         0.1248
     36 H12         2.8643   -1.1252   -3.9532 H         1 <0>         0.1113
     37 H13         4.1578   -2.2599   -3.4972 H         1 <0>         0.1041
     38 H14         2.5420   -2.4119   -2.7662 H         1 <0>         0.0786
     39 H15        -0.1194    7.5065    1.2729 H         1 <0>         0.0764
     40 H16         1.3013    6.4965    0.9128 H         1 <0>         0.0822
     41 O3          1.2590    8.6334   -0.8489 O.co2     1 <0>        -0.7689
@<TRIPOS>BOND
     1    1    2 1
     2    1   25 1
     3    1   26 1
     4    1   27 1
     5    2   10 1
     6    2    3 2
     7    3    4 1
     8    3   22 1
     9    4    9 ar
    10    4    5 ar
    11    5    6 ar
    12    5   28 1
    13    6    7 ar
    14    6   21 1
    15    7    8 ar
    16    7   29 1
    17    8    9 ar
    18    8   30 1
    19    9   10 1
    20   10   11 2
    21   11   12 1
    22   11   31 1
    23   12   17 ar
    24   12   13 ar
    25   13   14 ar
    26   13   32 1
    27   14   15 ar
    28   14   33 1
    29   15   16 ar
    30   15   18 1
    31   16   17 ar
    32   16   34 1
    33   17   35 1
    34   18   19 2
    35   18   20 1
    36   20   36 1
    37   20   37 1
    38   20   38 1
    39   22   23 1
    40   22   39 1
    41   22   40 1
    42   23   24 2
    43   23   41 1
@<TRIPOS>MOLECULE
ZINC01845036
   26    27     0     0     0
SMALL
USER_CHARGES

@<TRIPOS>ATOM
      1 C1          1.1769    1.7819    0.0004 C.ar      1 <0>        -0.0722
      2 C2         -0.0126    1.0758    0.0080 C.ar      1 <0>        -0.1293
      3 C3         -1.2205    1.7491    0.0173 C.ar      1 <0>        -0.1395
      4 C4         -1.2433    3.1298    0.0298 C.ar      1 <0>        -0.1202
      5 C5         -0.0501    3.8429    0.0218 C.ar      1 <0>         0.2468
      6 C6          1.1623    3.1623    0.0070 C.ar      1 <0>        -0.1621
      7 N1         -0.0690    5.2369    0.0281 N.pl3     1 <0>        -0.4689
      8 C7          1.1160    6.1097    0.0204 C.3       1 <0>         0.0893
      9 C8          0.5165    7.5300    0.0318 C.3       1 <0>        -0.1304
     10 C9         -0.9769    7.2939    0.0451 C.2       1 <0>         0.3283
     11 N2         -1.2130    6.0324    0.0366 N.2       1 <0>        -0.3279
     12 N3         -1.9433    8.2881    0.0583 N.pl3     1 <0>        -0.8296
     13 C10        -2.5135    0.9751    0.0192 C.3       1 <0>         0.5086
     14 F1         -2.2361   -0.3961    0.0105 F         1 <0>        -0.1765
     15 F2         -3.2469    1.2952    1.1668 F         1 <0>        -0.1763
     16 F3         -3.2577    1.3076   -1.1177 F         1 <0>        -0.1762
     17 H1          2.1183    1.2526   -0.0111 H         1 <0>         0.1373
     18 H2          0.0021   -0.0041    0.0020 H         1 <0>         0.1367
     19 H3         -2.1870    3.6549    0.0409 H         1 <0>         0.1395
     20 H4          2.0914    3.7129    0.0004 H         1 <0>         0.1299
     21 H5          1.7223    5.9417    0.9105 H         1 <0>         0.0817
     22 H6          1.7067    5.9470   -0.8812 H         1 <0>         0.0816
     23 H7          0.8265    8.0687    0.9272 H         1 <0>         0.1030
     24 H8          0.8095    8.0760   -0.8649 H         1 <0>         0.1031
     25 H9         -1.6790    9.2214    0.0596 H         1 <0>         0.4138
     26 H10        -2.8836    8.0502    0.0663 H         1 <0>         0.4097
@<TRIPOS>BOND
     1    1    6 ar
     2    1    2 ar
     3    1   17 1
     4    2    3 ar
     5    2   18 1
     6    3    4 ar
     7    3   13 1
     8    4    5 ar
     9    4   19 1
    10    5    6 ar
    11    5    7 1
    12    6   20 1
    13    7   11 1
    14    7    8 1
    15    8    9 1
    16    8   21 1
    17    8   22 1
    18    9   10 1
    19    9   23 1
    20    9   24 1
    21   10   11 2
    22   10   12 1
    23   12   25 1
    24   12   26 1
    25   13   14 1
    26   13   15 1
    27   13   16 1
@<TRIPOS>MOLECULE
ZINC03783275
   38    40     0     0     0
SMALL
USER_CHARGES

@<TRIPOS>ATOM
      1 C1          4.5762    0.5759    1.2763 C.3       1 <0>        -0.1621
      2 C2          3.2992    1.4173    1.2280 C.3       1 <0>        -0.0891
      3 C3          2.4897    1.0446   -0.0156 C.3       1 <0>        -0.1007
      4 H1          2.3030   -0.0293   -0.0193 H         1 <0>         0.0757
      5 C4          1.1759    1.7827    0.0004 C.ar      1 <0>        -0.0517
      6 C5         -0.0126    1.0758    0.0080 C.ar      1 <0>        -0.1001
      7 C6         -1.2183    1.7493    0.0173 C.ar      1 <0>        -0.1572
      8 C7         -1.2362    3.1380    0.0307 C.ar      1 <0>         0.1438
      9 C8         -0.0407    3.8450    0.0231 C.ar      1 <0>        -0.1503
     10 C9          1.1615    3.1655    0.0080 C.ar      1 <0>        -0.0539
     11 N1         -2.4553    3.8230    0.0456 N.am      1 <0>        -0.5468
     12 C10        -3.7847    3.2018    0.0490 C.3       1 <0>         0.1359
     13 C11        -4.7799    4.3350    0.0693 C.ar      1 <0>        -0.0807
     14 C12        -6.1547    4.3818    0.0826 C.ar      1 <0>        -0.1020
     15 C13        -6.8049    5.6044    0.0939 C.ar      1 <0>        -0.0890
     16 C14        -6.0756    6.7805    0.0927 C.ar      1 <0>        -0.1277
     17 C15        -4.6968    6.7449    0.0799 C.ar      1 <0>        -0.0446
     18 C16        -4.0339    5.5160    0.0680 C.ar      1 <0>        -0.1520
     19 C17        -2.6026    5.1591    0.0532 C.2       1 <0>         0.5523
     20 O1         -1.6872    5.9590    0.0486 O.2       1 <0>        -0.5044
     21 C18         3.2641    1.4241   -1.2515 C.2       1 <0>         0.4701
     22 O2          2.7971    2.2130   -2.0385 O.co2     1 <0>        -0.6295
     23 H2          4.3136   -0.4812    1.3171 H         1 <0>         0.0403
     24 H3          5.1719    0.7681    0.3839 H         1 <0>         0.1025
     25 H4          5.1530    0.8414    2.1623 H         1 <0>         0.0316
     26 H5          3.5619    2.4743    1.1872 H         1 <0>         0.0531
     27 H6          2.7036    1.2251    2.1204 H         1 <0>         0.0453
     28 H7          0.0021   -0.0041    0.0020 H         1 <0>         0.1215
     29 H8         -2.1462    1.1966    0.0183 H         1 <0>         0.1179
     30 H9         -0.0512    4.9249    0.0294 H         1 <0>         0.1473
     31 H10         2.0915    3.7146    0.0017 H         1 <0>         0.1241
     32 H11        -3.9187    2.5990   -0.8492 H         1 <0>         0.1035
     33 H12        -3.9066    2.5829    0.9379 H         1 <0>         0.1027
     34 H13        -6.7266    3.4657    0.0836 H         1 <0>         0.1327
     35 H14        -7.8843    5.6402    0.1040 H         1 <0>         0.1332
     36 H15        -6.5885    7.7309    0.1016 H         1 <0>         0.1332
     37 H16        -4.1314    7.6651    0.0787 H         1 <0>         0.1339
     38 O3          4.4726    0.8856   -1.4779 O.co2     1 <0>        -0.7587
@<TRIPOS>BOND
     1    1    2 1
     2    1   23 1
     3    1   24 1
     4    1   25 1
     5    2    3 1
     6    2   26 1
     7    2   27 1
     8    3    4 1
     9    3    5 1
    10    3   21 1
    11    5   10 ar
    12    5    6 ar
    13    6    7 ar
    14    6   28 1
    15    7    8 ar
    16    7   29 1
    17    8    9 ar
    18    8   11 1
    19    9   10 ar
    20    9   30 1
    21   10   31 1
    22   11   19 am
    23   11   12 1
    24   12   13 1
    25   12   32 1
    26   12   33 1
    27   13   18 ar
    28   13   14 ar
    29   14   15 ar
    30   14   34 1
    31   15   16 ar
    32   15   35 1
    33   16   17 ar
    34   16   36 1
    35   17   18 ar
    36   17   37 1
    37   18   19 1
    38   19   20 2
    39   21   22 2
    40   21   38 1
@<TRIPOS>MOLECULE
ZINC03783571
   29    30     0     0     0
SMALL
USER_CHARGES

@<TRIPOS>ATOM
      1 C1          4.6488   -4.0985   -1.2986 C.ar      1 <0>        -0.1697
      2 C2          4.6623   -2.7194   -1.1938 C.ar      1 <0>        -0.0961
      3 C3          3.5320   -2.0462   -0.7745 C.ar      1 <0>        -0.1832
      4 C4          2.3830   -2.7566   -0.4488 C.ar      1 <0>         0.2281
      5 C5          2.3729   -4.1415   -0.5555 C.ar      1 <0>        -0.0882
      6 C6          3.5057   -4.8081   -0.9798 C.ar      1 <0>        -0.0784
      7 C7          1.1275   -4.9158   -0.2083 C.3       1 <0>        -0.1255
      8 C8          0.2142   -4.9615   -1.4061 C.2       1 <0>         0.4638
      9 O1          0.5410   -4.4208   -2.4361 O.co2     1 <0>        -0.6173
     10 N1          1.2389   -2.0790   -0.0204 N.pl3     1 <0>        -0.6956
     11 C9          1.2171   -0.6807   -0.0099 C.ar      1 <0>         0.1745
     12 C10         0.7180    0.0165   -1.1036 C.ar      1 <0>        -0.0336
     13 C11         0.6977    1.3985   -1.0893 C.ar      1 <0>        -0.1082
     14 C12         1.1732    2.0873    0.0115 C.ar      1 <0>        -0.0998
     15 C13         1.6706    1.3970    1.1016 C.ar      1 <0>        -0.1105
     16 C14         1.6942    0.0151    1.0946 C.ar      1 <0>        -0.0298
     17 Cl1         2.3183   -0.8505    2.4639 Cl        1 <0>        -0.0484
     18 Cl2         0.1213   -0.8472   -2.4862 Cl        1 <0>        -0.0166
     19 H1          5.5331   -4.6222   -1.6304 H         1 <0>         0.1106
     20 H2          5.5567   -2.1682   -1.4440 H         1 <0>         0.1109
     21 H3          3.5419   -0.9691   -0.6969 H         1 <0>         0.1068
     22 H4          3.4986   -5.8849   -1.0630 H         1 <0>         0.1147
     23 H5          1.3996   -5.9312    0.0801 H         1 <0>         0.0737
     24 H6          0.6154   -4.4275    0.6207 H         1 <0>         0.0645
     25 H7          0.4596   -2.5784    0.2696 H         1 <0>         0.4143
     26 H8          0.3141    1.9410   -1.9406 H         1 <0>         0.1395
     27 H9          1.1561    3.1671    0.0198 H         1 <0>         0.1397
     28 H10         2.0411    1.9384    1.9595 H         1 <0>         0.1385
     29 O2         -0.9624   -5.6029   -1.3289 O.co2     1 <0>        -0.7785
@<TRIPOS>BOND
     1    1    6 ar
     2    1    2 ar
     3    1   19 1
     4    2    3 ar
     5    2   20 1
     6    3    4 ar
     7    3   21 1
     8    4    5 ar
     9    4   10 1
    10    5    6 ar
    11    5    7 1
    12    6   22 1
    13    7    8 1
    14    7   23 1
    15    7   24 1
    16    8    9 2
    17    8   29 1
    18   10   11 1
    19   10   25 1
    20   11   16 ar
    21   11   12 ar
    22   12   13 ar
    23   12   18 1
    24   13   14 ar
    25   13   26 1
    26   14   15 ar
    27   14   27 1
    28   15   16 ar
    29   15   28 1
    30   16   17 1
@<TRIPOS>MOLECULE
ZINC03786190
   30    31     0     0     0
SMALL
USER_CHARGES

@<TRIPOS>ATOM
      1 C1         -0.6126   -4.7971   -1.2696 C.3       1 <0>        -0.1197
      2 C2          0.1125   -4.2835   -0.0241 C.3       1 <0>        -0.1083
      3 H1          1.1456   -4.6310   -0.0359 H         1 <0>         0.0776
      4 C3          0.0895   -2.7767   -0.0149 C.ar      1 <0>        -0.0326
      5 C4         -1.1339   -2.1091    0.0006 C.ar      1 <0>        -0.0531
      6 C5         -1.1898   -0.7494    0.0088 C.ar      1 <0>        -0.1318
      7 C6          0.0021   -0.0041    0.0020 C.ar      1 <0>        -0.0197
      8 C7         -0.0170    1.4003    0.0097 C.ar      1 <0>        -0.1469
      9 C8          1.1609    2.0915    0.0022 C.ar      1 <0>         0.1101
     10 C9          2.3872    1.4192   -0.0131 C.ar      1 <0>        -0.2000
     11 C10         2.4393    0.0604   -0.0208 C.ar      1 <0>        -0.0647
     12 C11         1.2461   -0.6832   -0.0134 C.ar      1 <0>        -0.0758
     13 C12         1.2635   -2.0883   -0.0215 C.ar      1 <0>        -0.1153
     14 O1          1.1412    3.4502    0.0092 O.3       1 <0>        -0.3225
     15 C13         2.4048    4.1174    0.0008 C.3       1 <0>         0.0293
     16 C14        -0.5784   -4.8040    1.2099 C.2       1 <0>         0.4689
     17 O2         -1.0420   -4.0307    2.0143 O.co2     1 <0>        -0.6297
     18 H2         -1.6456   -4.4496   -1.2577 H         1 <0>         0.0486
     19 H3         -0.1128   -4.4206   -2.1621 H         1 <0>         0.0432
     20 H4         -0.5959   -5.8870   -1.2762 H         1 <0>         0.0645
     21 H5         -2.0511   -2.6793    0.0059 H         1 <0>         0.1217
     22 H6         -2.1450   -0.2455    0.0202 H         1 <0>         0.1231
     23 H7         -0.9578    1.9307    0.0171 H         1 <0>         0.1291
     24 H8          3.3057    1.9872   -0.0185 H         1 <0>         0.1236
     25 H9          3.3934   -0.4455   -0.0330 H         1 <0>         0.1266
     26 H10         2.2039   -2.6193   -0.0328 H         1 <0>         0.1210
     27 H11         2.9577    3.8372   -0.8958 H         1 <0>         0.0522
     28 H12         2.2463    5.1958    0.0077 H         1 <0>         0.0952
     29 H13         2.9743    3.8282    0.8840 H         1 <0>         0.0527
     30 O3         -0.6788   -6.1267    1.4154 O.co2     1 <0>        -0.7673
@<TRIPOS>BOND
     1    1    2 1
     2    1   18 1
     3    1   19 1
     4    1   20 1
     5    2    3 1
     6    2    4 1
     7    2   16 1
     8    4   13 ar
     9    4    5 ar
    10    5    6 ar
    11    5   21 1
    12    6    7 ar
    13    6   22 1
    14    7   12 ar
    15    7    8 ar
    16    8    9 ar
    17    8   23 1
    18    9   10 ar
    19    9   14 1
    20   10   11 ar
    21   10   24 1
    22   11   12 ar
    23   11   25 1
    24   12   13 ar
    25   13   26 1
    26   14   15 1
    27   15   27 1
    28   15   28 1
    29   15   29 1
    30   16   17 2
    31   16   30 1
@<TRIPOS>MOLECULE
ZINC03801048
   40    42     0     0     0
SMALL
USER_CHARGES

@<TRIPOS>ATOM
      1 C1         -0.9067   -2.5770    2.5071 C.3       1 <0>        -0.0907
      2 C2         -0.8294   -3.0383    1.0745 C.2       1 <0>         0.0770
      3 C3         -0.9959   -2.2513    0.0024 C.2       1 <0>        -0.0883
      4 C4         -0.8449   -3.0995   -1.1849 C.ar      1 <0>        -0.0376
      5 C5         -0.9124   -2.8611   -2.5584 C.ar      1 <0>        -0.0950
      6 C6         -0.7182   -3.9046   -3.4427 C.ar      1 <0>         0.0973
      7 C7         -0.4572   -5.1867   -2.9678 C.ar      1 <0>        -0.1798
      8 C8         -0.3804   -5.4305   -1.6137 C.ar      1 <0>        -0.0934
      9 C9         -0.5773   -4.3945   -0.7091 C.ar      1 <0>         0.0801
     10 N1         -0.5773   -4.3278    0.6735 N.am      1 <0>        -0.5115
     11 C10        -0.3621   -5.3698    1.5007 C.2       1 <0>         0.6051
     12 O1          0.7735   -5.6900    1.7920 O.2       1 <0>        -0.4319
     13 C11        -1.5061   -6.1225    2.0531 C.ar      1 <0>        -0.1546
     14 C12        -2.8070   -5.8217    1.6431 C.ar      1 <0>        -0.0429
     15 C13        -3.8706   -6.5314    2.1590 C.ar      1 <0>        -0.1211
     16 C14        -3.6520   -7.5336    3.0900 C.ar      1 <0>        -0.0016
     17 C15        -2.3646   -7.8330    3.5045 C.ar      1 <0>        -0.1240
     18 C16        -1.2922   -7.1342    2.9921 C.ar      1 <0>        -0.0416
     19 Cl1        -4.9970   -8.4184    3.7394 Cl        1 <0>        -0.0609
     20 O2         -0.7828   -3.6785   -4.7820 O.3       1 <0>        -0.3177
     21 C17        -0.5724   -4.8014   -5.6404 C.3       1 <0>         0.0302
     22 C18        -1.2896   -0.7733    0.0145 C.3       1 <0>        -0.0976
     23 C19         0.0059   -0.0035    0.0049 C.2       1 <0>         0.4640
     24 O3          1.0597   -0.5945   -0.0102 O.co2     1 <0>        -0.6275
     25 H1         -1.9334   -2.6656    2.8624 H         1 <0>         0.0747
     26 H2         -0.2543   -3.1953    3.1236 H         1 <0>         0.0602
     27 H3         -0.5884   -1.5365    2.5714 H         1 <0>         0.0944
     28 H4         -1.1149   -1.8667   -2.9278 H         1 <0>         0.1344
     29 H5         -0.3071   -5.9962   -3.6668 H         1 <0>         0.1294
     30 H6         -0.1784   -6.4291   -1.2555 H         1 <0>         0.1166
     31 H7         -2.9790   -5.0378    0.9205 H         1 <0>         0.1452
     32 H8         -4.8766   -6.3028    1.8395 H         1 <0>         0.1436
     33 H9         -2.2005   -8.6157    4.2304 H         1 <0>         0.1433
     34 H10        -0.2889   -7.3687    3.3158 H         1 <0>         0.1467
     35 H11        -0.6508   -4.4836   -6.6801 H         1 <0>         0.0952
     36 H12         0.4198   -5.2152   -5.4608 H         1 <0>         0.0518
     37 H13        -1.3259   -5.5618   -5.4351 H         1 <0>         0.0509
     38 H14        -1.8546   -0.5225    0.9123 H         1 <0>         0.0761
     39 H15        -1.8742   -0.5117   -0.8675 H         1 <0>         0.0771
     40 O4         -0.0107    1.3386    0.0132 O.co2     1 <0>        -0.7753
@<TRIPOS>BOND
     1    1    2 1
     2    1   25 1
     3    1   26 1
     4    1   27 1
     5    2   10 1
     6    2    3 2
     7    3    4 1
     8    3   22 1
     9    4    9 ar
    10    4    5 ar
    11    5    6 ar
    12    5   28 1
    13    6    7 ar
    14    6   20 1
    15    7    8 ar
    16    7   29 1
    17    8    9 ar
    18    8   30 1
    19    9   10 1
    20   10   11 am
    21   11   12 2
    22   11   13 1
    23   13   18 ar
    24   13   14 ar
    25   14   15 ar
    26   14   31 1
    27   15   16 ar
    28   15   32 1
    29   16   17 ar
    30   16   19 1
    31   17   18 ar
    32   17   33 1
    33   18   34 1
    34   20   21 1
    35   21   35 1
    36   21   36 1
    37   21   37 1
    38   22   23 1
    39   22   38 1
    40   22   39 1
    41   23   24 2
    42   23   40 1
@<TRIPOS>MOLECULE
ZINC03812962
   33    34     0     0     0
SMALL
USER_CHARGES

@<TRIPOS>ATOM
      1 C1          5.0020   -2.8110   -0.4921 C.3       1 <0>        -0.1173
      2 C2          3.6927   -2.0761   -0.3630 C.ar      1 <0>        -0.0657
      3 C3          2.6145   -2.6919    0.2478 C.ar      1 <0>        -0.1344
      4 C4          1.4133   -2.0247    0.3697 C.ar      1 <0>        -0.0638
      5 C5          1.2868   -0.7255   -0.1252 C.ar      1 <0>        -0.1431
      6 C6          2.3767   -0.1123   -0.7459 C.ar      1 <0>        -0.0738
      7 C7          3.5742   -0.7883   -0.8553 C.ar      1 <0>        -0.1318
      8 C8          0.0021   -0.0041    0.0020 C.2       1 <0>         0.4657
      9 O1         -1.0433   -0.6260    0.0475 O.2       1 <0>        -0.4794
     10 C9         -0.0124    1.4587    0.0733 C.2       1 <0>        -0.1063
     11 C10         1.0926    2.2834    0.1616 C.2       1 <0>        -0.1213
     12 C11         0.6210    3.5977    0.2051 C.2       1 <0>        -0.2119
     13 C12        -0.7329    3.5566    0.1441 C.2       1 <0>         0.1210
     14 N1         -1.1296    2.2636    0.0586 N.pl3     1 <0>        -0.4066
     15 C13        -2.5162    1.7993   -0.0310 C.3       1 <0>         0.0695
     16 C14        -1.6474    4.7543    0.1620 C.3       1 <0>        -0.1109
     17 C15        -1.7919    5.2970   -1.2364 C.2       1 <0>         0.4654
     18 O2         -1.2118    4.7657   -2.1535 O.co2     1 <0>        -0.6246
     19 H1          5.0174   -3.3635   -1.4316 H         1 <0>         0.0723
     20 H2          5.8235   -2.0948   -0.4782 H         1 <0>         0.0685
     21 H3          5.1120   -3.5063    0.3401 H         1 <0>         0.0668
     22 H4          2.7137   -3.6971    0.6302 H         1 <0>         0.1256
     23 H5          0.5728   -2.5062    0.8473 H         1 <0>         0.1295
     24 H6          2.2840    0.8908   -1.1352 H         1 <0>         0.1447
     25 H7          4.4197   -0.3132   -1.3302 H         1 <0>         0.1283
     26 H8          2.1260    1.9710    0.1918 H         1 <0>         0.1453
     27 H9          1.2274    4.4886    0.2745 H         1 <0>         0.1384
     28 H10        -2.9097    1.6346    0.9721 H         1 <0>         0.0711
     29 H11        -3.1193    2.5520   -0.5388 H         1 <0>         0.0848
     30 H12        -2.5512    0.8659   -0.5928 H         1 <0>         0.0930
     31 H13        -2.6260    4.4585    0.5399 H         1 <0>         0.0748
     32 H14        -1.2256    5.5238    0.8086 H         1 <0>         0.0943
     33 O3         -2.5650    6.3706   -1.4631 O.co2     1 <0>        -0.7681
@<TRIPOS>BOND
     1    1    2 1
     2    1   19 1
     3    1   20 1
     4    1   21 1
     5    2    7 ar
     6    2    3 ar
     7    3    4 ar
     8    3   22 1
     9    4    5 ar
    10    4   23 1
    11    5    6 ar
    12    5    8 1
    13    6    7 ar
    14    6   24 1
    15    7   25 1
    16    8    9 2
    17    8   10 1
    18   10   14 1
    19   10   11 2
    20   11   12 1
    21   11   26 1
    22   12   13 2
    23   12   27 1
    24   13   14 1
    25   13   16 1
    26   14   15 1
    27   15   28 1
    28   15   29 1
    29   15   30 1
    30   16   17 1
    31   16   31 1
    32   16   32 1
    33   17   18 2
    34   17   33 1
@<TRIPOS>MOLECULE
ZINC03812982
   20    20     0     0     0
SMALL
USER_CHARGES

@<TRIPOS>ATOM
      1 C1         -0.1229    3.2437    1.5945 C.3       1 <0>        -0.1366
      2 C2          0.0231    1.7764    1.2834 C.2       1 <0>         0.4783
      3 O1          0.1755    0.9810    2.1801 O.2       1 <0>        -0.5164
      4 O2         -0.0163    1.3529    0.0095 O.3       1 <0>        -0.2769
      5 C3          0.0118    0.0116   -0.1950 C.ar      1 <0>         0.1116
      6 C4          1.2194   -0.6347   -0.4114 C.ar      1 <0>        -0.1404
      7 C5          1.2471   -2.0002   -0.6150 C.ar      1 <0>        -0.1123
      8 C6          0.0713   -2.7329   -0.6145 C.ar      1 <0>        -0.1372
      9 C7         -1.1382   -2.1064   -0.4062 C.ar      1 <0>        -0.0672
     10 C8         -1.1802   -0.7259   -0.1941 C.ar      1 <0>        -0.1193
     11 C9         -2.4709   -0.0488    0.0289 C.2       1 <0>         0.4911
     12 O3         -2.5034    1.1518    0.2126 O.co2     1 <0>        -0.6217
     13 H1         -1.1767    3.4813    1.7396 H         1 <0>         0.1099
     14 H2          0.4312    3.4794    2.5031 H         1 <0>         0.0946
     15 H3          0.2713    3.8318    0.7657 H         1 <0>         0.0884
     16 H4          2.1399   -0.0699   -0.4174 H         1 <0>         0.1224
     17 H5          2.1905   -2.4994   -0.7798 H         1 <0>         0.1227
     18 H6          0.1028   -3.8000   -0.7784 H         1 <0>         0.1223
     19 H7         -2.0524   -2.6814   -0.4074 H         1 <0>         0.1373
     20 O4         -3.6144   -0.7615    0.0290 O.co2     1 <0>        -0.7508
@<TRIPOS>BOND
     1    1    2 1
     2    1   13 1
     3    1   14 1
     4    1   15 1
     5    2    3 2
     6    2    4 1
     7    4    5 1
     8    5   10 ar
     9    5    6 ar
    10    6    7 ar
    11    6   16 1
    12    7    8 ar
    13    7   17 1
    14    8    9 ar
    15    8   18 1
    16    9   10 ar
    17    9   19 1
    18   10   11 1
    19   11   12 2
    20   11   20 1
@<TRIPOS>MOLECULE
ZINC03812985
   32    33     0     0     0
SMALL
USER_CHARGES

@<TRIPOS>ATOM
      1 C1         -2.1545   -4.3717    0.3034 C.3       1 <0>        -0.1091
      2 C2         -2.2168   -2.8682    0.2225 C.ar      1 <0>        -0.0509
      3 C3         -3.4413   -2.2254    0.2444 C.ar      1 <0>        -0.1873
      4 C4         -3.5030   -0.8460    0.1708 C.ar      1 <0>        -0.0786
      5 C5         -2.3412   -0.1053    0.0752 C.ar      1 <0>        -0.1880
      6 C6         -1.1098   -0.7476    0.0530 C.ar      1 <0>         0.2667
      7 C7         -1.0517   -2.1341    0.1213 C.ar      1 <0>        -0.1555
      8 C8          0.2817   -2.8357    0.0907 C.3       1 <0>        -0.0980
      9 N1          0.0676   -0.0013   -0.0437 N.pl3     1 <0>        -0.6748
     10 C9          0.0154    1.3861   -0.0067 C.ar      1 <0>         0.1672
     11 C10         0.1014    2.1201   -1.1837 C.ar      1 <0>        -0.1408
     12 C11         0.0434    3.4978   -1.1448 C.ar      1 <0>        -0.1196
     13 C12        -0.0890    4.1613    0.0652 C.ar      1 <0>        -0.1395
     14 C13        -0.1701    3.4519    1.2429 C.ar      1 <0>        -0.0752
     15 C14        -0.1188    2.0551    1.2206 C.ar      1 <0>        -0.1163
     16 C15        -0.2054    1.2900    2.4762 C.2       1 <0>         0.4868
     17 O1         -0.0976    0.0796    2.4589 O.co2     1 <0>        -0.6080
     18 H1         -2.1878   -4.7913   -0.7021 H         1 <0>         0.0630
     19 H2         -1.2270   -4.6712    0.7915 H         1 <0>         0.0645
     20 H3         -3.0035   -4.7401    0.8791 H         1 <0>         0.0606
     21 H4         -4.3513   -2.8022    0.3195 H         1 <0>         0.1091
     22 H5         -4.4608   -0.3473    0.1886 H         1 <0>         0.1118
     23 H6         -2.3901    0.9721    0.0175 H         1 <0>         0.1113
     24 H7          0.6543   -2.9522    1.1084 H         1 <0>         0.0674
     25 H8          0.1652   -3.8175   -0.3682 H         1 <0>         0.0594
     26 H9          0.9899   -2.2448   -0.4901 H         1 <0>         0.0513
     27 H10         0.9214   -0.4522   -0.1365 H         1 <0>         0.4009
     28 H11         0.2096    1.6111   -2.1301 H         1 <0>         0.1177
     29 H12         0.1066    4.0634   -2.0627 H         1 <0>         0.1165
     30 H13        -0.1284    5.2404    0.0844 H         1 <0>         0.1171
     31 H14        -0.2728    3.9742    2.1827 H         1 <0>         0.1314
     32 O2         -0.4043    1.9322    3.6443 O.co2     1 <0>        -0.7613
@<TRIPOS>BOND
     1    1    2 1
     2    1   18 1
     3    1   19 1
     4    1   20 1
     5    2    7 ar
     6    2    3 ar
     7    3    4 ar
     8    3   21 1
     9    4    5 ar
    10    4   22 1
    11    5    6 ar
    12    5   23 1
    13    6    7 ar
    14    6    9 1
    15    7    8 1
    16    8   24 1
    17    8   25 1
    18    8   26 1
    19    9   10 1
    20    9   27 1
    21   10   15 ar
    22   10   11 ar
    23   11   12 ar
    24   11   28 1
    25   12   13 ar
    26   12   29 1
    27   13   14 ar
    28   13   30 1
    29   14   15 ar
    30   14   31 1
    31   15   16 1
    32   16   17 2
    33   16   32 1
@<TRIPOS>MOLECULE
ZINC03812986
   25    26     0     0     0
SMALL
USER_CHARGES

@<TRIPOS>ATOM
      1 C1          0.0545   -2.7852   -0.0140 C.ar      1 <0>        -0.0822
      2 C2          1.2387   -2.0792   -0.0210 C.ar      1 <0>        -0.1663
      3 C3          1.2247   -0.6918   -0.0134 C.ar      1 <0>         0.1495
      4 C4          0.0021   -0.0041    0.0020 C.ar      1 <0>        -0.1437
      5 C5         -1.1949   -0.7210    0.0154 C.ar      1 <0>        -0.0385
      6 C6         -1.1674   -2.1103    0.0018 C.ar      1 <0>        -0.0982
      7 C7         -2.4376   -2.8769    0.0102 C.ar      1 <0>        -0.0657
      8 C8         -3.4248   -2.5836    0.9488 C.ar      1 <0>        -0.0510
      9 C9         -4.6064   -3.2960    0.9505 C.ar      1 <0>        -0.1590
     10 C10        -4.8094   -4.3093    0.0273 C.ar      1 <0>         0.1191
     11 C11        -3.8304   -4.6092   -0.9051 C.ar      1 <0>        -0.1913
     12 C12        -2.6451   -3.8980   -0.9180 C.ar      1 <0>         0.1349
     13 F1         -1.6900   -4.1904   -1.8276 F         1 <0>        -0.1250
     14 F2         -5.9664   -5.0068    0.0366 F         1 <0>        -0.1352
     15 C13        -0.0179    1.4700    0.0101 C.2       1 <0>         0.4891
     16 O1          1.0260    2.0918    0.0035 O.co2     1 <0>        -0.6135
     17 O2          2.3920   -0.0012   -0.0203 O.3       1 <0>        -0.4761
     18 H1          0.0723   -3.8651   -0.0203 H         1 <0>         0.1198
     19 H2          2.1804   -2.6079   -0.0328 H         1 <0>         0.1264
     20 H3         -2.1396   -0.1980    0.0321 H         1 <0>         0.1374
     21 H4         -3.2667   -1.7971    1.6719 H         1 <0>         0.1488
     22 H5         -5.3732   -3.0658    1.6753 H         1 <0>         0.1436
     23 H6         -3.9929   -5.3998   -1.6227 H         1 <0>         0.1470
     24 H7          2.7387    0.1940    0.8610 H         1 <0>         0.3871
     25 O3         -1.1939    2.1278    0.0193 O.co2     1 <0>        -0.7568
@<TRIPOS>BOND
     1    1    6 ar
     2    1    2 ar
     3    1   18 1
     4    2    3 ar
     5    2   19 1
     6    3    4 ar
     7    3   17 1
     8    4    5 ar
     9    4   15 1
    10    5    6 ar
    11    5   20 1
    12    6    7 1
    13    7   12 ar
    14    7    8 ar
    15    8    9 ar
    16    8   21 1
    17    9   10 ar
    18    9   22 1
    19   10   11 ar
    20   10   14 1
    21   11   12 ar
    22   11   23 1
    23   12   13 1
    24   15   16 2
    25   15   25 1
    26   17   24 1
@<TRIPOS>MOLECULE
ZINC03812990
   29    30     0     0     0
SMALL
USER_CHARGES

@<TRIPOS>ATOM
      1 C1         -0.0410    5.9557    0.7089 C.3       1 <0>        -0.1142
      2 C2         -0.0254    4.4735    0.4372 C.ar      1 <0>        -0.0403
      3 C3          1.1790    3.8152    0.2666 C.ar      1 <0>        -0.1630
      4 C4          1.1983    2.4555    0.0167 C.ar      1 <0>        -0.0675
      5 C5          0.0130    1.7487   -0.0631 C.ar      1 <0>        -0.1021
      6 C6         -1.1992    2.4076    0.1025 C.ar      1 <0>         0.2818
      7 C7         -1.2144    3.7735    0.3593 C.ar      1 <0>        -0.0672
      8 Cl1        -2.7255    4.6006    0.5747 Cl        1 <0>        -0.0647
      9 N1         -2.4008    1.6970    0.0167 N.pl3     1 <0>        -0.6683
     10 C8         -2.4113    0.3234    0.2210 C.ar      1 <0>         0.1813
     11 C9         -2.6202   -0.5403   -0.8476 C.ar      1 <0>        -0.1381
     12 C10        -2.6248   -1.9045   -0.6428 C.ar      1 <0>        -0.1194
     13 C11        -2.4324   -2.4246    0.6278 C.ar      1 <0>        -0.1448
     14 C12        -2.2295   -1.5849    1.7005 C.ar      1 <0>        -0.0708
     15 C13        -2.2165   -0.2002    1.5094 C.ar      1 <0>        -0.1146
     16 C14        -1.9995    0.7037    2.6518 C.2       1 <0>         0.4864
     17 O1         -2.0943    1.9060    2.5020 O.co2     1 <0>        -0.6079
     18 Cl2         0.0385    0.0415   -0.3768 Cl        1 <0>        -0.0553
     19 H1         -0.0869    6.4977   -0.2356 H         1 <0>         0.0711
     20 H2         -0.9129    6.2050    1.3137 H         1 <0>         0.0729
     21 H3          0.8655    6.2364    1.2452 H         1 <0>         0.0684
     22 H4          2.1067    4.3648    0.3284 H         1 <0>         0.1295
     23 H5          2.1407    1.9451   -0.1166 H         1 <0>         0.1299
     24 H6         -3.2268    2.1635   -0.1856 H         1 <0>         0.4062
     25 H7         -2.7753   -0.1432   -1.8398 H         1 <0>         0.1157
     26 H8         -2.7835   -2.5716   -1.4772 H         1 <0>         0.1136
     27 H9         -2.4421   -3.4942    0.7774 H         1 <0>         0.1137
     28 H10        -2.0809   -1.9958    2.6881 H         1 <0>         0.1285
     29 O2         -1.6959    0.1975    3.8634 O.co2     1 <0>        -0.7609
@<TRIPOS>BOND
     1    1    2 1
     2    1   19 1
     3    1   20 1
     4    1   21 1
     5    2    7 ar
     6    2    3 ar
     7    3    4 ar
     8    3   22 1
     9    4    5 ar
    10    4   23 1
    11    5    6 ar
    12    5   18 1
    13    6    7 ar
    14    6    9 1
    15    7    8 1
    16    9   10 1
    17    9   24 1
    18   10   15 ar
    19   10   11 ar
    20   11   12 ar
    21   11   25 1
    22   12   13 ar
    23   12   26 1
    24   13   14 ar
    25   13   27 1
    26   14   15 ar
    27   14   28 1
    28   15   16 1
    29   16   17 2
    30   16   29 1
@<TRIPOS>MOLECULE
ZINC03814488
   15    15     0     0     0
SMALL
USER_CHARGES

@<TRIPOS>ATOM
      1 C1          0.0398   -2.7809   -0.0152 C.ar      1 <0>        -0.1526
      2 C2          0.0184   -2.0747   -1.2072 C.ar      1 <0>        -0.1111
      3 C3         -0.0057   -0.6944   -1.2011 C.ar      1 <0>        -0.1691
      4 C4          0.0021   -0.0041    0.0020 C.ar      1 <0>         0.1349
      5 C5          0.0232   -0.7147    1.2103 C.ar      1 <0>        -0.1442
      6 C6          0.0421   -2.1122    1.1892 C.ar      1 <0>        -0.0644
      7 C7          0.0250    0.0075    2.4952 C.2       1 <0>         0.4877
      8 O1          0.0082    1.2224    2.5094 O.co2     1 <0>        -0.6160
      9 O2         -0.0163    1.3522    0.0095 O.3       1 <0>        -0.4780
     10 H1          0.0544   -3.8607   -0.0304 H         1 <0>         0.1177
     11 H2          0.0161   -2.6074   -2.1466 H         1 <0>         0.1171
     12 H3         -0.0264   -0.1513   -2.1343 H         1 <0>         0.1205
     13 H4          0.0580   -2.6668    2.1158 H         1 <0>         0.1329
     14 H5          0.8616    1.7575    0.0033 H         1 <0>         0.3843
     15 O3          0.0453   -0.6796    3.6543 O.co2     1 <0>        -0.7597
@<TRIPOS>BOND
     1    1    6 ar
     2    1    2 ar
     3    1   10 1
     4    2    3 ar
     5    2   11 1
     6    3    4 ar
     7    3   12 1
     8    4    5 ar
     9    4    9 1
    10    5    6 ar
    11    5    7 1
    12    6   13 1
    13    7    8 2
    14    7   15 1
    15    9   14 1
@<TRIPOS>MOLECULE
ZINC03814489
   32    33     0     0     0
SMALL
USER_CHARGES

@<TRIPOS>ATOM
      1 C1          0.0396   -2.7725   -0.0136 C.ar      1 <0>        -0.1196
      2 C2         -1.1692   -2.0999    0.0020 C.ar      1 <0>        -0.1188
      3 C3         -1.1942   -0.7202    0.0096 C.ar      1 <0>        -0.1077
      4 C4          0.0021   -0.0041    0.0020 C.ar      1 <0>        -0.0469
      5 C5          1.2172   -0.6874   -0.0190 C.ar      1 <0>        -0.1088
      6 C6          1.2297   -2.0673   -0.0212 C.ar      1 <0>        -0.1196
      7 C7         -0.0180    1.4781    0.0102 C.ar      1 <0>        -0.0249
      8 C8         -1.2367    2.1584    0.0196 C.ar      1 <0>        -0.1234
      9 C9         -1.2577    3.5291    0.0321 C.ar      1 <0>        -0.0659
     10 C10        -0.0556    4.2466    0.0245 C.ar      1 <0>        -0.1596
     11 C11         1.1656    3.5621    0.0096 C.ar      1 <0>        -0.0621
     12 C12         1.1817    2.1913    0.0025 C.ar      1 <0>        -0.1258
     13 C13        -0.0755    5.7164    0.0316 C.2       1 <0>         0.3893
     14 O1          0.9664    6.3371    0.0246 O.2       1 <0>        -0.4542
     15 C14        -1.3907    6.4521    0.0476 C.3       1 <0>        -0.1358
     16 C15        -1.1315    7.9600    0.0522 C.3       1 <0>        -0.1499
     17 C16        -2.4467    8.6956    0.0682 C.2       1 <0>         0.4602
     18 O2         -3.4847    8.0773    0.0752 O.co2     1 <0>        -0.6438
     19 H1          0.0543   -3.8524   -0.0202 H         1 <0>         0.1218
     20 H2         -2.0952   -2.6558    0.0078 H         1 <0>         0.1244
     21 H3         -2.1385   -0.1962    0.0210 H         1 <0>         0.1282
     22 H4          2.1469   -0.1378   -0.0298 H         1 <0>         0.1265
     23 H5          2.1704   -2.5977   -0.0329 H         1 <0>         0.1237
     24 H6         -2.1638    1.6045    0.0210 H         1 <0>         0.1312
     25 H7         -2.2009    4.0551    0.0435 H         1 <0>         0.1416
     26 H8          2.0942    4.1135    0.0033 H         1 <0>         0.1350
     27 H9          2.1235    1.6628   -0.0093 H         1 <0>         0.1287
     28 H10        -1.9195    6.2072   -0.7651 H         1 <0>         0.0900
     29 H11        -1.9501    6.1768    0.9417 H         1 <0>         0.0990
     30 H12        -0.5551    8.2269    0.9380 H         1 <0>         0.0699
     31 H13        -0.5721    8.2352   -0.8419 H         1 <0>         0.0696
     32 O3         -2.4649   10.0378    0.0747 O.co2     1 <0>        -0.7722
@<TRIPOS>BOND
     1    1    6 ar
     2    1    2 ar
     3    1   19 1
     4    2    3 ar
     5    2   20 1
     6    3    4 ar
     7    3   21 1
     8    4    5 ar
     9    4    7 1
    10    5    6 ar
    11    5   22 1
    12    6   23 1
    13    7   12 ar
    14    7    8 ar
    15    8    9 ar
    16    8   24 1
    17    9   10 ar
    18    9   25 1
    19   10   11 ar
    20   10   13 1
    21   11   12 ar
    22   11   26 1
    23   12   27 1
    24   13   14 2
    25   13   15 1
    26   15   16 1
    27   15   28 1
    28   15   29 1
    29   16   17 1
    30   16   30 1
    31   16   31 1
    32   17   18 2
    33   17   32 1
@<TRIPOS>MOLECULE
ZINC03814490
   38    40     0     0     0
SMALL
USER_CHARGES

@<TRIPOS>ATOM
      1 C1         -1.2645    2.2180    0.0250 C.3       1 <0>        -0.0890
      2 C2         -0.0182    1.3708    0.0117 C.2       1 <0>         0.0620
      3 C3          1.2346    1.8458    0.0018 C.2       1 <0>        -0.0731
      4 C4          2.1345    0.6863   -0.0156 C.ar      1 <0>        -0.0956
      5 C5          3.5178    0.5401   -0.0316 C.ar      1 <0>         0.0151
      6 C6          4.0707   -0.7409   -0.0466 C.ar      1 <0>        -0.2286
      7 C7          3.2319   -1.8667   -0.0454 C.ar      1 <0>        -0.0522
      8 C8          1.8762   -1.7222   -0.0298 C.ar      1 <0>        -0.1444
      9 C9          1.3055   -0.4520   -0.0147 C.ar      1 <0>         0.1382
     10 N1          0.0015   -0.0032    0.0021 N.am      1 <0>        -0.5037
     11 C10        -1.0900   -0.7938    0.0082 C.2       1 <0>         0.6021
     12 O1         -1.5181   -1.2305    1.0582 O.2       1 <0>        -0.4271
     13 C11        -1.7657   -1.1293   -1.2611 C.ar      1 <0>        -0.1563
     14 C12        -1.2203   -0.7122   -2.4775 C.ar      1 <0>        -0.0434
     15 C13        -1.8532   -1.0331   -3.6596 C.ar      1 <0>        -0.1204
     16 C14        -3.0337   -1.7577   -3.6420 C.ar      1 <0>        -0.0003
     17 C15        -3.5824   -2.1697   -2.4386 C.ar      1 <0>        -0.1235
     18 C16        -2.9561   -1.8601   -1.2501 C.ar      1 <0>        -0.0401
     19 Cl1        -3.8284   -2.1516   -5.1343 Cl        1 <0>        -0.0593
     20 C17         5.5303   -0.9116   -0.0631 C.2       1 <0>         0.3864
     21 O2          6.2546    0.0612   -0.0642 O.2       1 <0>        -0.4669
     22 C18         1.6427    3.2965    0.0074 C.3       1 <0>        -0.1004
     23 C19         1.7943    3.7701    1.4300 C.2       1 <0>         0.4652
     24 O3          1.5917    3.0079    2.3454 O.co2     1 <0>        -0.6281
     25 H1         -1.5586    2.4155    1.0558 H         1 <0>         0.0815
     26 H2         -1.0677    3.1617   -0.4839 H         1 <0>         0.0908
     27 H3         -2.0685    1.6897   -0.4874 H         1 <0>         0.0576
     28 H4          4.1579    1.4101   -0.0321 H         1 <0>         0.1371
     29 H5          3.6645   -2.8562   -0.0574 H         1 <0>         0.1333
     30 H6          1.2423   -2.5966   -0.0294 H         1 <0>         0.1191
     31 H7         -0.3025   -0.1430   -2.4922 H         1 <0>         0.1444
     32 H8         -1.4299   -0.7153   -4.6010 H         1 <0>         0.1443
     33 H9         -4.5027   -2.7350   -2.4315 H         1 <0>         0.1442
     34 H10        -3.3847   -2.1821   -0.3126 H         1 <0>         0.1474
     35 H11         5.9579   -1.9032   -0.0744 H         1 <0>         0.0998
     36 H12         2.5921    3.4088   -0.5161 H         1 <0>         0.0779
     37 H13         0.8788    3.8907   -0.4939 H         1 <0>         0.0782
     38 O4          2.1543    5.0388    1.6802 O.co2     1 <0>        -0.7723
@<TRIPOS>BOND
     1    1    2 1
     2    1   25 1
     3    1   26 1
     4    1   27 1
     5    2   10 1
     6    2    3 2
     7    3    4 1
     8    3   22 1
     9    4    9 ar
    10    4    5 ar
    11    5    6 ar
    12    5   28 1
    13    6    7 ar
    14    6   20 1
    15    7    8 ar
    16    7   29 1
    17    8    9 ar
    18    8   30 1
    19    9   10 1
    20   10   11 am
    21   11   12 2
    22   11   13 1
    23   13   18 ar
    24   13   14 ar
    25   14   15 ar
    26   14   31 1
    27   15   16 ar
    28   15   32 1
    29   16   17 ar
    30   16   19 1
    31   17   18 ar
    32   17   33 1
    33   18   34 1
    34   20   21 2
    35   20   35 1
    36   22   23 1
    37   22   36 1
    38   22   37 1
    39   23   24 2
    40   23   38 1
@<TRIPOS>MOLECULE
ZINC03814491
   28    29     0     0     0
SMALL
USER_CHARGES

@<TRIPOS>ATOM
      1 C1         -2.5198    7.8782    0.3859 C.ar      1 <0>        -0.0976
      2 C2         -3.6893    7.2524   -0.0061 C.ar      1 <0>        -0.1134
      3 C3         -3.6623    5.9408   -0.4427 C.ar      1 <0>        -0.1646
      4 C4         -2.4659    5.2525   -0.4929 C.ar      1 <0>        -0.0756
      5 C5         -1.2905    5.8762   -0.0950 C.ar      1 <0>         0.1835
      6 C6         -1.3210    7.1944    0.3428 C.ar      1 <0>        -0.1298
      7 N1         -0.0785    5.1811   -0.1404 N.pl3     1 <0>        -0.6427
      8 C7         -0.0435    3.8316    0.1615 C.ar      1 <0>         0.4064
      9 C8          1.1509    3.1085   -0.0048 C.ar      1 <0>        -0.2194
     10 C9          1.1613    1.7436    0.3070 C.ar      1 <0>         0.0008
     11 C10        -0.0087    1.1656    0.7666 C.ar      1 <0>        -0.2400
     12 C11        -1.1463    1.9420    0.8992 C.ar      1 <0>         0.1382
     13 N2         -1.1349    3.2274    0.6053 N.ar      1 <0>        -0.5474
     14 C12         2.3685    3.7744   -0.4985 C.2       1 <0>         0.5051
     15 O1          2.3393    4.9529   -0.7936 O.co2     1 <0>        -0.6319
     16 C13        -4.9389    5.2633   -0.8698 C.3       1 <0>         0.5102
     17 F1         -6.0078    6.1561   -0.7366 F         1 <0>        -0.1814
     18 F2         -4.8298    4.8625   -2.2057 F         1 <0>        -0.1790
     19 F3         -5.1643    4.1424   -0.0635 F         1 <0>        -0.1753
     20 H1         -2.5442    8.9031    0.7258 H         1 <0>         0.1325
     21 H2         -4.6256    7.7896    0.0287 H         1 <0>         0.1318
     22 H3         -2.4449    4.2293   -0.8379 H         1 <0>         0.1403
     23 H4         -0.4083    7.6835    0.6493 H         1 <0>         0.1323
     24 H5          0.7378    5.6451   -0.3836 H         1 <0>         0.4373
     25 H6          2.0604    1.1566    0.1920 H         1 <0>         0.1413
     26 H7         -0.0350    0.1151    1.0158 H         1 <0>         0.1279
     27 H8         -2.0596    1.4876    1.2539 H         1 <0>         0.1507
     28 O2          3.5148    3.0767   -0.6229 O.co2     1 <0>        -0.7402
@<TRIPOS>BOND
     1    1    6 ar
     2    1    2 ar
     3    1   20 1
     4    2    3 ar
     5    2   21 1
     6    3    4 ar
     7    3   16 1
     8    4    5 ar
     9    4   22 1
    10    5    6 ar
    11    5    7 1
    12    6   23 1
    13    7    8 1
    14    7   24 1
    15    8   13 ar
    16    8    9 ar
    17    9   10 ar
    18    9   14 1
    19   10   11 ar
    20   10   25 1
    21   11   12 ar
    22   11   26 1
    23   12   13 ar
    24   12   27 1
    25   14   15 2
    26   14   28 1
    27   16   17 1
    28   16   18 1
    29   16   19 1
@<TRIPOS>MOLECULE
ZINC03814494
   29    30     0     0     0
SMALL
USER_CHARGES

@<TRIPOS>ATOM
      1 C1         -0.4621   -0.5203   -1.3307 C.3       1 <0>        -0.1201
      2 C2         -0.0005   -0.0042    0.0337 C.3       1 <0>        -0.1134
      3 H1          1.0127   -0.3542    0.2307 H         1 <0>         0.0816
      4 C3         -0.0203    1.5027    0.0337 C.ar      1 <0>         0.0045
      5 C4         -1.2060    2.1759   -0.2021 C.ar      1 <0>        -0.0894
      6 C5         -1.2320    3.5551   -0.1987 C.ar      1 <0>        -0.0742
      7 C6         -0.0565    4.2717    0.0327 C.ar      1 <0>        -0.1857
      8 C7          1.1373    3.5863    0.2647 C.ar      1 <0>        -0.0572
      9 C8          1.1484    2.2069    0.2638 C.ar      1 <0>        -0.1365
     10 C9         -0.0760    5.7506    0.0327 C.2       1 <0>         0.4840
     11 O1          0.9672    6.3730    0.1117 O.2       1 <0>        -0.4547
     12 C10        -1.3495    6.4658   -0.0622 C.2       1 <0>        -0.2567
     13 C11        -1.5812    7.8313   -0.1657 C.2       1 <0>        -0.0774
     14 C12        -2.8886    8.2382   -0.2408 C.2       1 <0>        -0.1835
     15 C13        -3.8776    7.3049   -0.2111 C.2       1 <0>        -0.2107
     16 S1         -3.0087    5.8102   -0.0832 S.3       1 <0>         0.1834
     17 C14        -0.9270   -0.5187    1.1051 C.2       1 <0>         0.4699
     18 O2         -1.5405    0.2584    1.7976 O.co2     1 <0>        -0.6284
     19 H2          0.2080   -0.1481   -2.1056 H         1 <0>         0.0446
     20 H3         -0.4478   -1.6102   -1.3307 H         1 <0>         0.0668
     21 H4         -1.4754   -0.1702   -1.5278 H         1 <0>         0.0499
     22 H5         -2.1138    1.6203   -0.3855 H         1 <0>         0.1290
     23 H6         -2.1590    4.0794   -0.3785 H         1 <0>         0.1174
     24 H7          2.0501    4.1347    0.4448 H         1 <0>         0.1301
     25 H8          2.0713    1.6754    0.4427 H         1 <0>         0.1266
     26 H9         -0.7677    8.5413   -0.1857 H         1 <0>         0.1440
     27 H10        -3.1301    9.2876   -0.3229 H         1 <0>         0.1339
     28 H11        -4.9456    7.4577   -0.2600 H         1 <0>         0.1855
     29 O3         -1.0708   -1.8404    1.2900 O.co2     1 <0>        -0.7635
@<TRIPOS>BOND
     1    1    2 1
     2    1   19 1
     3    1   20 1
     4    1   21 1
     5    2    3 1
     6    2    4 1
     7    2   17 1
     8    4    9 ar
     9    4    5 ar
    10    5    6 ar
    11    5   22 1
    12    6    7 ar
    13    6   23 1
    14    7    8 ar
    15    7   10 1
    16    8    9 ar
    17    8   24 1
    18    9   25 1
    19   10   11 2
    20   10   12 1
    21   12   16 1
    22   12   13 2
    23   13   14 1
    24   13   26 1
    25   14   15 2
    26   14   27 1
    27   15   16 1
    28   15   28 1
    29   17   18 2
    30   17   29 1
@<TRIPOS>MOLECULE
ZINC03814495
   29    30     0     0     0
SMALL
USER_CHARGES

@<TRIPOS>ATOM
      1 C1         -1.2639    2.6278    1.4110 C.3       1 <0>        -0.1200
      2 C2         -1.3466    1.9591    0.0374 C.3       1 <0>        -0.1133
      3 H1         -1.5292    2.7163   -0.7250 H         1 <0>         0.0817
      4 C3         -2.4741    0.9592    0.0326 C.ar      1 <0>         0.0037
      5 C4         -2.4559   -0.1038    0.9182 C.ar      1 <0>        -0.0885
      6 C5         -3.4872   -1.0199    0.9223 C.ar      1 <0>        -0.0747
      7 C6         -4.5457   -0.8786    0.0230 C.ar      1 <0>        -0.1854
      8 C7         -4.5552    0.1932   -0.8714 C.ar      1 <0>        -0.0575
      9 C8         -3.5202    1.1051   -0.8614 C.ar      1 <0>        -0.1361
     10 C9         -5.6523   -1.8599    0.0183 C.2       1 <0>         0.4837
     11 O1         -6.5093   -1.8066   -0.8446 O.2       1 <0>        -0.4540
     12 C10        -5.7169   -2.8951    1.0511 C.2       1 <0>        -0.2552
     13 C11        -6.6093   -3.9519    1.1768 C.2       1 <0>        -0.0774
     14 C12        -6.4421   -4.7847    2.2532 C.2       1 <0>        -0.1828
     15 C13        -5.4309   -4.5424    3.1300 C.2       1 <0>        -0.2104
     16 S1         -4.6651   -3.1329    2.4724 S.3       1 <0>         0.1799
     17 C14        -0.0480    1.2532   -0.2566 C.2       1 <0>         0.4698
     18 O2         -0.0390    0.0606   -0.4503 O.co2     1 <0>        -0.6285
     19 H2         -1.0812    1.8705    2.1734 H         1 <0>         0.0500
     20 H3         -0.4483    3.3510    1.4145 H         1 <0>         0.0667
     21 H4         -2.2031    3.1384    1.6237 H         1 <0>         0.0447
     22 H5         -1.6342   -0.2144    1.6103 H         1 <0>         0.1291
     23 H6         -3.4740   -1.8467    1.6170 H         1 <0>         0.1175
     24 H7         -5.3713    0.3084   -1.5693 H         1 <0>         0.1301
     25 H8         -3.5266    1.9350   -1.5525 H         1 <0>         0.1267
     26 H9         -7.4002   -4.1105    0.4586 H         1 <0>         0.1442
     27 H10        -7.1055   -5.6237    2.4029 H         1 <0>         0.1341
     28 H11        -5.1663   -5.0965    4.0184 H         1 <0>         0.1854
     29 O3          1.0979    1.9502   -0.3089 O.co2     1 <0>        -0.7634
@<TRIPOS>BOND
     1    1    2 1
     2    1   19 1
     3    1   20 1
     4    1   21 1
     5    2    3 1
     6    2    4 1
     7    2   17 1
     8    4    9 ar
     9    4    5 ar
    10    5    6 ar
    11    5   22 1
    12    6    7 ar
    13    6   23 1
    14    7    8 ar
    15    7   10 1
    16    8    9 ar
    17    8   24 1
    18    9   25 1
    19   10   11 2
    20   10   12 1
    21   12   16 1
    22   12   13 2
    23   13   14 1
    24   13   26 1
    25   14   15 2
    26   14   27 1
    27   15   16 1
    28   15   28 1
    29   17   18 2
    30   17   29 1
@<TRIPOS>MOLECULE
ZINC03814496
   33    34     0     0     0
SMALL
USER_CHARGES

@<TRIPOS>ATOM
      1 C1          0.7968   -6.0133    0.9002 C.3       1 <0>        -0.1397
      2 C2         -0.4911   -5.2329    0.8427 C.2       1 <0>         0.4740
      3 O1         -1.0693   -4.9451    1.8639 O.2       1 <0>        -0.5070
      4 O2         -0.9963   -4.8573   -0.3437 O.3       1 <0>        -0.2799
      5 C3         -2.2102   -4.2506   -0.3322 C.ar      1 <0>         0.1436
      6 C4         -3.3632   -4.9961   -0.5262 C.ar      1 <0>        -0.1371
      7 C5         -4.5978   -4.3777   -0.5138 C.ar      1 <0>        -0.0785
      8 C6         -4.6953   -3.0112   -0.3077 C.ar      1 <0>        -0.1305
      9 C7         -3.5604   -2.2555   -0.1080 C.ar      1 <0>        -0.0413
     10 C8         -2.3043   -2.8676   -0.1238 C.ar      1 <0>        -0.1029
     11 C9         -1.0855   -2.0645    0.0835 C.2       1 <0>         0.5333
     12 O3          0.0047   -2.6011    0.0740 O.2       1 <0>        -0.4954
     13 O4         -1.1804   -0.7348    0.2836 O.3       1 <0>        -0.2719
     14 C10        -0.0182   -0.0386    0.3588 C.ar      1 <0>         0.1107
     15 C11         0.5333    0.2649    1.5945 C.ar      1 <0>        -0.1372
     16 C12         1.7165    0.9727    1.6695 C.ar      1 <0>        -0.1127
     17 C13         2.3614    1.3846    0.5146 C.ar      1 <0>        -0.1346
     18 C14         1.8274    1.0927   -0.7217 C.ar      1 <0>        -0.0679
     19 C15         0.6308    0.3767   -0.8123 C.ar      1 <0>        -0.1157
     20 C16         0.0573    0.0548   -2.1319 C.2       1 <0>         0.4908
     21 O5         -0.9807   -0.5723   -2.2066 O.co2     1 <0>        -0.6184
     22 H1          1.1680   -6.1768   -0.1115 H         1 <0>         0.0937
     23 H2          1.5360   -5.4527    1.4724 H         1 <0>         0.1075
     24 H3          0.6178   -6.9748    1.3814 H         1 <0>         0.1042
     25 H4         -3.2956   -6.0620   -0.6868 H         1 <0>         0.1374
     26 H5         -5.4928   -4.9629   -0.6654 H         1 <0>         0.1359
     27 H6         -5.6654   -2.5367   -0.2994 H         1 <0>         0.1365
     28 H7         -3.6414   -1.1912    0.0565 H         1 <0>         0.1466
     29 H8          0.0368   -0.0530    2.4994 H         1 <0>         0.1230
     30 H9          2.1421    1.2062    2.6343 H         1 <0>         0.1234
     31 H10         3.2868    1.9371    0.5835 H         1 <0>         0.1228
     32 H11         2.3335    1.4158   -1.6194 H         1 <0>         0.1376
     33 O6          0.6844    0.4560   -3.2550 O.co2     1 <0>        -0.7501
@<TRIPOS>BOND
     1    1    2 1
     2    1   22 1
     3    1   23 1
     4    1   24 1
     5    2    3 2
     6    2    4 1
     7    4    5 1
     8    5   10 ar
     9    5    6 ar
    10    6    7 ar
    11    6   25 1
    12    7    8 ar
    13    7   26 1
    14    8    9 ar
    15    8   27 1
    16    9   10 ar
    17    9   28 1
    18   10   11 1
    19   11   12 2
    20   11   13 1
    21   13   14 1
    22   14   19 ar
    23   14   15 ar
    24   15   16 ar
    25   15   29 1
    26   16   17 ar
    27   16   30 1
    28   17   18 ar
    29   17   31 1
    30   18   19 ar
    31   18   32 1
    32   19   20 1
    33   20   21 2
    34   20   33 1
@<TRIPOS>MOLECULE
ZINC03814498
   30    32     0     0     0
SMALL
USER_CHARGES

@<TRIPOS>ATOM
      1 C1          2.6762    1.7262   -2.8098 C.2       1 <0>        -0.1839
      2 C2          2.5976    2.1338   -1.5009 C.2       1 <0>        -0.0683
      3 C3          2.2852    3.4644   -1.2719 C.2       1 <0>        -0.2654
      4 S1          2.1135    4.0916   -2.9332 S.3       1 <0>         0.1780
      5 C4          2.4541    2.6295   -3.8001 C.2       1 <0>        -0.1831
      6 C5          2.1344    4.1728    0.0047 C.2       1 <0>         0.5266
      7 O1          2.1962    3.5566    1.0549 O.2       1 <0>        -0.4295
      8 C6          1.9097    5.6201    0.0170 C.2       1 <0>        -0.2264
      9 C7          2.9407    6.6753   -0.0370 C.ar      1 <0>        -0.0417
     10 C8          4.3311    6.6574   -0.1106 C.ar      1 <0>        -0.0630
     11 C9          5.0287    7.8472   -0.1474 C.ar      1 <0>        -0.0394
     12 C10         4.3494    9.0563   -0.1117 C.ar      1 <0>        -0.0819
     13 C11         2.9723    9.0854   -0.0388 C.ar      1 <0>        -0.1000
     14 C12         2.2535    7.8973   -0.0004 C.ar      1 <0>         0.1165
     15 N1          0.8950    7.6184    0.0710 N.am      1 <0>        -0.4901
     16 C13         0.6890    6.2685    0.0754 C.2       1 <0>         0.3270
     17 O2         -0.5170    5.6616    0.1316 O.3       1 <0>        -0.4475
     18 C14        -0.0805    8.5469    0.1227 C.2       1 <0>         0.7158
     19 O3         -0.5757    8.9658   -0.9050 O.2       1 <0>        -0.5006
     20 N2         -0.5069    9.0108    1.3141 N.am      1 <0>        -0.8326
     21 Cl1         6.7622    7.8313   -0.2391 Cl        1 <0>        -0.0564
     22 H1          2.9160    0.7008   -3.0494 H         1 <0>         0.1409
     23 H2          2.7720    1.4474   -0.6855 H         1 <0>         0.1472
     24 H3          2.4813    2.4739   -4.8685 H         1 <0>         0.1916
     25 H4          4.8608    5.7167   -0.1392 H         1 <0>         0.1414
     26 H5          4.9036    9.9828   -0.1409 H         1 <0>         0.1468
     27 H6          2.4530   10.0319   -0.0111 H         1 <0>         0.1361
     28 H7         -0.8610    5.5527    1.0287 H         1 <0>         0.4068
     29 H8         -0.1117    8.6764    2.1344 H         1 <0>         0.4091
     30 H9         -1.2090    9.6790    1.3513 H         1 <0>         0.4257
@<TRIPOS>BOND
     1    1    5 2
     2    1    2 1
     3    1   22 1
     4    2    3 2
     5    2   23 1
     6    3    4 1
     7    3    6 1
     8    4    5 1
     9    5   24 1
    10    6    7 2
    11    6    8 1
    12    8   16 2
    13    8    9 1
    14    9   14 ar
    15    9   10 ar
    16   10   11 ar
    17   10   25 1
    18   11   12 ar
    19   11   21 1
    20   12   13 ar
    21   12   26 1
    22   13   14 ar
    23   13   27 1
    24   14   15 1
    25   15   16 1
    26   15   18 am
    27   16   17 1
    28   17   28 1
    29   18   19 2
    30   18   20 am
    31   20   29 1
    32   20   30 1
@<TRIPOS>MOLECULE
ZINC03814499
   35    37     0     0     0
SMALL
USER_CHARGES

@<TRIPOS>ATOM
      1 C1         -0.7345    1.9962    1.2691 C.3       1 <0>        -0.1188
      2 C2         -0.0184    1.5028    0.0103 C.3       1 <0>        -0.1051
      3 H1          1.0042    1.8801    0.0026 H         1 <0>         0.0770
      4 C3          0.0021   -0.0041    0.0020 C.ar      1 <0>        -0.0504
      5 C4         -1.1868   -0.7102    0.0153 C.ar      1 <0>        -0.0566
      6 C5         -1.1716   -2.0912    0.0029 C.ar      1 <0>        -0.1541
      7 C6          0.0396   -2.7707   -0.0118 C.ar      1 <0>         0.1427
      8 C7          1.2320   -2.0585   -0.0198 C.ar      1 <0>        -0.1520
      9 C8          1.2097   -0.6776   -0.0131 C.ar      1 <0>        -0.0986
     10 N1          0.0586   -4.1690   -0.0190 N.am      1 <0>        -0.5455
     11 C9         -1.1223   -5.0399   -0.0061 C.3       1 <0>         0.1344
     12 C10        -0.6028   -6.4557   -0.0244 C.ar      1 <0>        -0.0794
     13 C11        -1.2187   -7.6858   -0.0245 C.ar      1 <0>        -0.1018
     14 C12        -0.4556   -8.8413   -0.0366 C.ar      1 <0>        -0.0884
     15 C13         0.9259   -8.7628   -0.0495 C.ar      1 <0>        -0.1283
     16 C14         1.5537   -7.5345   -0.0495 C.ar      1 <0>        -0.0447
     17 C15         0.7911   -6.3648   -0.0369 C.ar      1 <0>        -0.1532
     18 C16         1.1617   -4.9370   -0.0332 C.2       1 <0>         0.5532
     19 O1          2.3018   -4.5152   -0.0417 O.2       1 <0>        -0.5085
     20 C17        -0.7472    2.0020   -1.2106 C.2       1 <0>         0.4691
     21 O2         -1.2033    1.2149   -2.0058 O.co2     1 <0>        -0.6305
     22 H2         -0.2073    1.6351    2.1522 H         1 <0>         0.0428
     23 H3         -0.7493    3.0861    1.2751 H         1 <0>         0.0636
     24 H4         -1.7571    1.6189    1.2768 H         1 <0>         0.0476
     25 H5         -2.1282   -0.1812    0.0317 H         1 <0>         0.1244
     26 H6         -2.1005   -2.6421    0.0092 H         1 <0>         0.1188
     27 H7          2.1755   -2.5839   -0.0317 H         1 <0>         0.1470
     28 H8          2.1365   -0.1231   -0.0194 H         1 <0>         0.1220
     29 H9         -1.7070   -4.8648    0.8970 H         1 <0>         0.1041
     30 H10        -1.7332   -4.8559   -0.8899 H         1 <0>         0.1047
     31 H11        -2.2968   -7.7503   -0.0145 H         1 <0>         0.1333
     32 H12        -0.9401   -9.8065   -0.0363 H         1 <0>         0.1333
     33 H13         1.5155   -9.6676   -0.0592 H         1 <0>         0.1331
     34 H14         2.6321   -7.4777   -0.0589 H         1 <0>         0.1334
     35 O3         -0.8898    3.3210   -1.4146 O.co2     1 <0>        -0.7685
@<TRIPOS>BOND
     1    1    2 1
     2    1   22 1
     3    1   23 1
     4    1   24 1
     5    2    3 1
     6    2    4 1
     7    2   20 1
     8    4    9 ar
     9    4    5 ar
    10    5    6 ar
    11    5   25 1
    12    6    7 ar
    13    6   26 1
    14    7    8 ar
    15    7   10 1
    16    8    9 ar
    17    8   27 1
    18    9   28 1
    19   10   18 am
    20   10   11 1
    21   11   12 1
    22   11   29 1
    23   11   30 1
    24   12   17 ar
    25   12   13 ar
    26   13   14 ar
    27   13   31 1
    28   14   15 ar
    29   14   32 1
    30   15   16 ar
    31   15   33 1
    32   16   17 ar
    33   16   34 1
    34   17   18 1
    35   18   19 2
    36   20   21 2
    37   20   35 1
@<TRIPOS>MOLECULE
ZINC03814501
   30    31     0     0     0
SMALL
USER_CHARGES

@<TRIPOS>ATOM
      1 C1          2.5160    4.8188   -1.2453 C.3       1 <0>        -0.1205
      2 C2          2.4549    3.9318   -0.0002 C.3       1 <0>        -0.1087
      3 H1          3.2897    3.2310   -0.0120 H         1 <0>         0.0822
      4 C3          1.1567    3.1665    0.0081 C.ar      1 <0>        -0.0020
      5 C4          1.1724    1.7830    0.0004 C.ar      1 <0>        -0.1344
      6 C5         -0.0126    1.0758    0.0080 C.ar      1 <0>        -0.0818
      7 C6         -1.2280    1.7571    0.0174 C.ar      1 <0>        -0.1087
      8 C7         -1.2392    3.1523    0.0314 C.ar      1 <0>         0.1064
      9 C8         -0.0451    3.8497    0.0237 C.ar      1 <0>        -0.1148
     10 F1         -2.4135    3.8201    0.0466 F         1 <0>        -0.1410
     11 C9         -2.5051    1.0019    0.0189 C.ar      1 <0>        -0.0319
     12 C10        -2.7192   -0.0117   -0.9131 C.ar      1 <0>        -0.1078
     13 C11        -3.9068   -0.7148   -0.9034 C.ar      1 <0>        -0.1226
     14 C12        -4.8881   -0.4073    0.0216 C.ar      1 <0>        -0.1254
     15 C13        -4.6832    0.6018    0.9453 C.ar      1 <0>        -0.1193
     16 C14        -3.4972    1.3075    0.9485 C.ar      1 <0>        -0.1015
     17 C15         2.5387    4.7922    1.2342 C.2       1 <0>         0.4690
     18 O1          1.6368    4.7847    2.0381 O.co2     1 <0>        -0.6288
     19 H2          1.6813    5.5196   -1.2336 H         1 <0>         0.0489
     20 H3          3.4550    5.3723   -1.2513 H         1 <0>         0.0666
     21 H4          2.4554    4.1965   -2.1381 H         1 <0>         0.0446
     22 H5          2.1146    1.2552   -0.0111 H         1 <0>         0.1261
     23 H6          0.0021   -0.0041    0.0020 H         1 <0>         0.1269
     24 H7         -0.0514    4.9297    0.0296 H         1 <0>         0.1334
     25 H8         -1.9555   -0.2495   -1.6388 H         1 <0>         0.1236
     26 H9         -4.0720   -1.5036   -1.6224 H         1 <0>         0.1211
     27 H10        -5.8176   -0.9572    0.0229 H         1 <0>         0.1191
     28 H11        -5.4529    0.8380    1.6651 H         1 <0>         0.1218
     29 H12        -3.3381    2.0949    1.6703 H         1 <0>         0.1237
     30 O2          3.6153    5.5668    1.4405 O.co2     1 <0>        -0.7643
@<TRIPOS>BOND
     1    1    2 1
     2    1   19 1
     3    1   20 1
     4    1   21 1
     5    2    3 1
     6    2    4 1
     7    2   17 1
     8    4    9 ar
     9    4    5 ar
    10    5    6 ar
    11    5   22 1
    12    6    7 ar
    13    6   23 1
    14    7    8 ar
    15    7   11 1
    16    8    9 ar
    17    8   10 1
    18    9   24 1
    19   11   16 ar
    20   11   12 ar
    21   12   13 ar
    22   12   25 1
    23   13   14 ar
    24   13   26 1
    25   14   15 ar
    26   14   27 1
    27   15   16 ar
    28   15   28 1
    29   16   29 1
    30   17   18 2
    31   17   30 1
@<TRIPOS>MOLECULE
ZINC04617751
   41    43     0     0     0
SMALL
USER_CHARGES

@<TRIPOS>ATOM
      1 C1          1.2937    3.9354    0.0381 C.3       1 <0>        -0.0975
      2 C2         -0.1453    4.3699    0.1446 C.2       1 <0>        -0.1236
      3 C3         -0.5698    5.6275    0.3669 C.2       1 <0>        -0.0187
      4 C4         -2.0346    5.6594    0.4056 C.ar      1 <0>        -0.0056
      5 C5         -2.9536    6.6941    0.6013 C.ar      1 <0>        -0.1263
      6 C6         -4.3073    6.4229    0.5861 C.ar      1 <0>         0.1038
      7 C7         -4.7662    5.1292    0.3772 C.ar      1 <0>        -0.1638
      8 C8         -3.8742    4.0942    0.1820 C.ar      1 <0>        -0.0619
      9 C9         -2.5074    4.3483    0.1880 C.ar      1 <0>        -0.0956
     10 C10        -1.3150    3.4907    0.0225 C.2       1 <0>        -0.0124
     11 C11        -1.3036    2.1450   -0.2054 C.2       1 <0>        -0.0900
     12 C12        -0.0551    1.4767   -0.5909 C.ar      1 <0>        -0.0165
     13 C13         0.7617    2.0295   -1.5851 C.ar      1 <0>        -0.1005
     14 C14         1.9294    1.3919   -1.9453 C.ar      1 <0>        -0.0596
     15 C15         2.2960    0.2088   -1.3267 C.ar      1 <0>        -0.4613
     16 C16         1.4945   -0.3446   -0.3429 C.ar      1 <0>        -0.0499
     17 C17         0.3233    0.2794    0.0293 C.ar      1 <0>        -0.1258
     18 S1          3.7912   -0.5974   -1.7947 S.o       1 <0>         1.3261
     19 O1          4.5953    0.4487   -2.3224 O.2       1 <0>        -0.8529
     20 C18         3.2887   -1.7096   -3.1367 C.3       1 <0>        -0.4992
     21 F1         -5.1931    7.4252    0.7757 F         1 <0>        -0.1409
     22 C19         0.3274    6.8244    0.5495 C.3       1 <0>        -0.1230
     23 C20         0.4959    7.5319   -0.7704 C.2       1 <0>         0.4688
     24 O2         -0.0560    7.1077   -1.7580 O.co2     1 <0>        -0.6285
     25 H1          1.6164    3.9987   -1.0012 H         1 <0>         0.0746
     26 H2          1.9162    4.5864    0.6520 H         1 <0>         0.0646
     27 H3          1.3896    2.9070    0.3863 H         1 <0>         0.0666
     28 H4         -2.6057    7.7034    0.7645 H         1 <0>         0.1375
     29 H5         -5.8279    4.9314    0.3678 H         1 <0>         0.1357
     30 H6         -4.2373    3.0900    0.0200 H         1 <0>         0.1307
     31 H7         -2.2132    1.5721   -0.1019 H         1 <0>         0.1350
     32 H8          0.4771    2.9523   -2.0687 H         1 <0>         0.1344
     33 H9          2.5603    1.8165   -2.7121 H         1 <0>         0.1273
     34 H10         1.7877   -1.2682    0.1341 H         1 <0>         0.1356
     35 H11        -0.3007   -0.1536    0.7972 H         1 <0>         0.1297
     36 H12         2.8643   -1.1252   -3.9532 H         1 <0>         0.0803
     37 H13         4.1578   -2.2599   -3.4972 H         1 <0>         0.1037
     38 H14         2.5420   -2.4119   -2.7662 H         1 <0>         0.1093
     39 H15        -0.1194    7.5065    1.2729 H         1 <0>         0.0770
     40 H16         1.3013    6.4965    0.9128 H         1 <0>         0.0819
     41 O3          1.2590    8.6334   -0.8489 O.co2     1 <0>        -0.7688
@<TRIPOS>BOND
     1    1    2 1
     2    1   25 1
     3    1   26 1
     4    1   27 1
     5    2   10 1
     6    2    3 2
     7    3    4 1
     8    3   22 1
     9    4    9 ar
    10    4    5 ar
    11    5    6 ar
    12    5   28 1
    13    6    7 ar
    14    6   21 1
    15    7    8 ar
    16    7   29 1
    17    8    9 ar
    18    8   30 1
    19    9   10 1
    20   10   11 2
    21   11   12 1
    22   11   31 1
    23   12   17 ar
    24   12   13 ar
    25   13   14 ar
    26   13   32 1
    27   14   15 ar
    28   14   33 1
    29   15   16 ar
    30   15   18 1
    31   16   17 ar
    32   16   34 1
    33   17   35 1
    34   18   19 2
    35   18   20 1
    36   20   36 1
    37   20   37 1
    38   20   38 1
    39   22   23 1
    40   22   39 1
    41   22   40 1
    42   23   24 2
    43   23   41 1
@<TRIPOS>MOLECULE
ZINC04617752
   42    44     0     0     0
SMALL
USER_CHARGES

@<TRIPOS>ATOM
      1 C1          3.2174    3.2072   -2.6679 C.3       1 <0>        -0.1007
      2 C2          3.7648    3.3994   -1.2770 C.2       1 <0>        -0.1282
      3 C3          3.2591    2.8570   -0.1540 C.2       1 <0>        -0.0121
      4 C4          4.0552    3.2750    1.0035 C.ar      1 <0>        -0.0060
      5 C5          3.9607    2.9918    2.3689 C.ar      1 <0>        -0.1253
      6 C6          4.8774    3.5330    3.2479 C.ar      1 <0>         0.1055
      7 C7          5.8984    4.3538    2.7874 C.ar      1 <0>        -0.1634
      8 C8          6.0116    4.6403    1.4421 C.ar      1 <0>        -0.0601
      9 C9          5.0984    4.1044    0.5412 C.ar      1 <0>        -0.0984
     10 C10         4.9380    4.2088   -0.9244 C.2       1 <0>        -0.0017
     11 C11         5.7266    4.9191   -1.7826 C.2       1 <0>        -0.1014
     12 C12         5.3040    5.1172   -3.1740 C.ar      1 <0>         0.0093
     13 C13         6.2128    4.9189   -4.2210 C.ar      1 <0>        -0.1286
     14 C14         5.8057    5.1011   -5.5252 C.ar      1 <0>        -0.0270
     15 C15         4.5061    5.4907   -5.8009 C.ar      1 <0>        -0.6619
     16 C16         3.6030    5.6949   -4.7717 C.ar      1 <0>        -0.0313
     17 C17         3.9913    5.5112   -3.4621 C.ar      1 <0>        -0.1120
     18 S1          3.9984    5.7273   -7.4715 S.o2      1 <0>         2.5003
     19 O1          4.8594    4.8926   -8.2338 O.2       1 <0>        -0.9396
     20 O2          2.5954    5.5024   -7.4594 O.2       1 <0>        -0.9372
     21 C18         4.3484    7.4723   -7.8223 C.3       1 <0>        -0.6522
     22 F1          4.7801    3.2620    4.5679 F         1 <0>        -0.1402
     23 C19         2.0504    1.9589   -0.0946 C.3       1 <0>        -0.1243
     24 C20         2.4928    0.5186   -0.1237 C.2       1 <0>         0.4678
     25 O3          3.6690    0.2491   -0.1862 O.co2     1 <0>        -0.6278
     26 H1          2.4971    3.9953   -2.8870 H         1 <0>         0.0715
     27 H2          4.0338    3.2504   -3.3888 H         1 <0>         0.0676
     28 H3          2.7254    2.2367   -2.7338 H         1 <0>         0.0710
     29 H4          3.1694    2.3550    2.7361 H         1 <0>         0.1384
     30 H5          6.6086    4.7704    3.4864 H         1 <0>         0.1363
     31 H6          6.8076    5.2797    1.0900 H         1 <0>         0.1312
     32 H7          6.6616    5.3353   -1.4377 H         1 <0>         0.1381
     33 H8          7.2283    4.6197   -4.0074 H         1 <0>         0.1347
     34 H9          6.5038    4.9440   -6.3341 H         1 <0>         0.1410
     35 H10         2.5911    5.9987   -4.9957 H         1 <0>         0.1428
     36 H11         3.2854    5.6703   -2.6604 H         1 <0>         0.1391
     37 H12         5.4141    7.6621   -7.6940 H         1 <0>         0.1302
     38 H13         4.0594    7.7018   -8.8480 H         1 <0>         0.1301
     39 H14         3.7821    8.1017   -7.1358 H         1 <0>         0.1308
     40 H15         1.4068    2.1586   -0.9514 H         1 <0>         0.0830
     41 H16         1.4997    2.1513    0.8261 H         1 <0>         0.0786
     42 O4          1.5803   -0.4648   -0.0801 O.co2     1 <0>        -0.7681
@<TRIPOS>BOND
     1    1    2 1
     2    1   26 1
     3    1   27 1
     4    1   28 1
     5    2   10 1
     6    2    3 2
     7    3    4 1
     8    3   23 1
     9    4    9 ar
    10    4    5 ar
    11    5    6 ar
    12    5   29 1
    13    6    7 ar
    14    6   22 1
    15    7    8 ar
    16    7   30 1
    17    8    9 ar
    18    8   31 1
    19    9   10 1
    20   10   11 2
    21   11   12 1
    22   11   32 1
    23   12   17 ar
    24   12   13 ar
    25   13   14 ar
    26   13   33 1
    27   14   15 ar
    28   14   34 1
    29   15   16 ar
    30   15   18 1
    31   16   17 ar
    32   16   35 1
    33   17   36 1
    34   18   19 2
    35   18   20 2
    36   18   21 1
    37   21   37 1
    38   21   38 1
    39   21   39 1
    40   23   24 1
    41   23   40 1
    42   23   41 1
    43   24   25 2
    44   24   42 1
