@<TRIPOS>MOLECULE
ZINC00006366
   43    46     0     0     0
SMALL
USER_CHARGES

@<TRIPOS>ATOM
      1 C1         -8.2401   -0.5221   -5.4832 C.3       1 <0>        -0.6506
      2 S1         -8.1475    1.2621   -5.1694 S.o2      1 <0>         2.4982
      3 O1         -9.1307    1.6432   -4.2169 O.2       1 <0>        -0.9371
      4 O2         -8.0144    1.9684   -6.3953 O.2       1 <0>        -0.9367
      5 C2         -6.6080    1.4977   -4.3454 C.ar      1 <0>        -0.6608
      6 C3         -5.4638    1.7478   -5.0824 C.ar      1 <0>        -0.0206
      7 C4         -4.2553    1.9332   -4.4443 C.ar      1 <0>        -0.1229
      8 C5         -4.1880    1.8680   -3.0500 C.ar      1 <0>         0.0256
      9 C6         -5.3466    1.6097   -2.3128 C.ar      1 <0>        -0.1286
     10 C7         -6.5492    1.4321   -2.9644 C.ar      1 <0>        -0.0212
     11 C8         -2.9002    2.0645   -2.3608 C.2       1 <0>        -0.0972
     12 C9         -2.2013    3.2086   -2.3606 C.2       1 <0>        -0.0661
     13 C10        -0.9286    3.0549   -1.5552 C.3       1 <0>        -0.0491
     14 C11        -1.1428    1.7763   -0.7340 C.3       1 <0>        -0.1349
     15 C12        -2.1825    1.0022   -1.5555 C.3       1 <0>        -0.0450
     16 C13        -0.0127    1.0858    0.0080 C.3       1 <0>        -0.1621
     17 C14        -1.1389    1.7746    0.7862 C.3       1 <0>        -0.1627
     18 C15        -2.6145    4.4443   -3.0492 C.ar      1 <0>        -0.0526
     19 C16        -1.8537    4.9446   -4.1094 C.ar      1 <0>        -0.0766
     20 C17        -2.2489    6.0977   -4.7536 C.ar      1 <0>        -0.1515
     21 C18        -3.3912    6.7674   -4.3437 C.ar      1 <0>         0.1027
     22 C19        -4.1468    6.2793   -3.2891 C.ar      1 <0>        -0.1505
     23 C20        -3.7654    5.1238   -2.6409 C.ar      1 <0>        -0.0717
     24 F1         -3.7699    7.9002   -4.9750 F         1 <0>        -0.1375
     25 H1         -8.2034   -1.0600   -4.5359 H         1 <0>         0.1315
     26 H2         -9.1738   -0.7529   -5.9961 H         1 <0>         0.1335
     27 H3         -7.3987   -0.8256   -6.1062 H         1 <0>         0.1315
     28 H4         -5.5174    1.7983   -6.1599 H         1 <0>         0.1431
     29 H5         -3.3631    2.1287   -5.0207 H         1 <0>         0.1319
     30 H6         -5.3013    1.5535   -1.2352 H         1 <0>         0.1341
     31 H7         -7.4463    1.2368   -2.3957 H         1 <0>         0.1438
     32 H8         -0.7902    3.9116   -0.8957 H         1 <0>         0.0781
     33 H9         -0.0694    2.9425   -2.2165 H         1 <0>         0.0869
     34 H10        -1.6902    0.2906   -2.2184 H         1 <0>         0.0859
     35 H11        -2.8817    0.4879   -0.8962 H         1 <0>         0.0768
     36 H12         0.0021   -0.0041    0.0020 H         1 <0>         0.0980
     37 H13         0.9640    1.5696    0.0013 H         1 <0>         0.0982
     38 H14        -1.8647    1.1377    1.2918 H         1 <0>         0.0971
     39 H15        -0.9030    2.7119    1.2902 H         1 <0>         0.0973
     40 H16        -0.9607    4.4265   -4.4263 H         1 <0>         0.1342
     41 H17        -1.6647    6.4825   -5.5765 H         1 <0>         0.1384
     42 H18        -5.0362    6.8051   -2.9747 H         1 <0>         0.1380
     43 H19        -4.3551    4.7443   -1.8195 H         1 <0>         0.1313
@<TRIPOS>BOND
     1    1    2 1
     2    1   25 1
     3    1   26 1
     4    1   27 1
     5    2    3 2
     6    2    4 2
     7    2    5 1
     8    5   10 ar
     9    5    6 ar
    10    6    7 ar
    11    6   28 1
    12    7    8 ar
    13    7   29 1
    14    8    9 ar
    15    8   11 1
    16    9   10 ar
    17    9   30 1
    18   10   31 1
    19   11   15 1
    20   11   12 2
    21   12   13 1
    22   12   18 1
    23   13   14 1
    24   13   32 1
    25   13   33 1
    26   14   17 1
    27   14   15 1
    28   14   16 1
    29   15   34 1
    30   15   35 1
    31   16   17 1
    32   16   36 1
    33   16   37 1
    34   17   38 1
    35   17   39 1
    36   18   23 ar
    37   18   19 ar
    38   19   20 ar
    39   19   40 1
    40   20   21 ar
    41   20   41 1
    42   21   22 ar
    43   21   24 1
    44   22   23 ar
    45   22   42 1
    46   23   43 1
@<TRIPOS>MOLECULE
ZINC00006509
   41    44     0     0     0
SMALL
USER_CHARGES

@<TRIPOS>ATOM
      1 C1         -1.1345    2.0336   -1.2793 C.3       1 <0>        -0.6505
      2 S1         -0.0172    1.4168    0.0098 S.o2      1 <0>         2.4990
      3 O1          0.0021   -0.0041    0.0020 O.2       1 <0>        -0.9370
      4 O2          1.1953    2.1578    0.0022 O.2       1 <0>        -0.9372
      5 C2         -0.7978    1.8475    1.5296 C.ar      1 <0>        -0.6607
      6 C3         -0.5191    3.0637    2.1269 C.ar      1 <0>        -0.0209
      7 C4         -1.1319    3.4087    3.3144 C.ar      1 <0>        -0.1267
      8 C5         -2.0244    2.5242    3.9177 C.ar      1 <0>         0.0262
      9 C6         -2.2970    1.2978    3.3142 C.ar      1 <0>        -0.1261
     10 C7         -1.6827    0.9657    2.1238 C.ar      1 <0>        -0.0212
     11 C8         -2.6810    2.8866    5.1971 C.2       1 <0>        -0.0740
     12 C9         -2.0436    3.0599    6.3622 C.2       1 <0>        -0.1010
     13 C10        -3.0939    3.4190    7.3823 C.3       1 <0>        -0.1106
     14 C11        -2.9937    2.9361    8.8257 C.3       1 <0>        -0.1344
     15 C12        -2.8127    4.4205    8.4981 C.3       1 <0>        -0.1331
     16 C13        -4.4073    3.4159    6.6423 C.2       1 <0>        -0.1066
     17 C14        -4.1320    3.1015    5.3697 C.2       1 <0>        -0.0594
     18 C15        -5.1402    2.9859    4.2884 C.ar      1 <0>        -0.0457
     19 C16        -5.3718    1.7546    3.6772 C.ar      1 <0>        -0.0759
     20 C17        -6.3152    1.6504    2.6759 C.ar      1 <0>        -0.1519
     21 C18        -7.0231    2.7699    2.2691 C.ar      1 <0>         0.1002
     22 C19        -6.7922    3.9969    2.8698 C.ar      1 <0>        -0.1518
     23 C20        -5.8552    4.1093    3.8761 C.ar      1 <0>        -0.0755
     24 F1         -7.9417    2.6645    1.2840 F         1 <0>        -0.1383
     25 H1         -2.1080    1.5544   -1.1761 H         1 <0>         0.1315
     26 H2         -1.2479    3.1127   -1.1759 H         1 <0>         0.1315
     27 H3         -0.7188    1.8043   -2.2605 H         1 <0>         0.1337
     28 H4          0.1759    3.7463    1.6608 H         1 <0>         0.1442
     29 H5         -0.9166    4.3602    3.7777 H         1 <0>         0.1339
     30 H6         -2.9874    0.6085    3.7774 H         1 <0>         0.1327
     31 H7         -1.8935    0.0159    1.6551 H         1 <0>         0.1440
     32 H8         -0.9822    2.9629    6.5368 H         1 <0>         0.1468
     33 H9         -3.9173    2.6391    9.3226 H         1 <0>         0.1063
     34 H10        -2.1053    2.3706    9.1070 H         1 <0>         0.1062
     35 H11        -1.8053    4.8315    8.5637 H         1 <0>         0.1061
     36 H12        -3.6171    5.1004    8.7789 H         1 <0>         0.1065
     37 H13        -5.3817    3.6263    7.0579 H         1 <0>         0.1468
     38 H14        -4.8167    0.8826    3.9902 H         1 <0>         0.1329
     39 H15        -6.4986    0.6959    2.2052 H         1 <0>         0.1383
     40 H16        -7.3464    4.8669    2.5495 H         1 <0>         0.1379
     41 H17        -5.6756    5.0662    4.3435 H         1 <0>         0.1337
@<TRIPOS>BOND
     1    1    2 1
     2    1   25 1
     3    1   26 1
     4    1   27 1
     5    2    3 2
     6    2    4 2
     7    2    5 1
     8    5   10 ar
     9    5    6 ar
    10    6    7 ar
    11    6   28 1
    12    7    8 ar
    13    7   29 1
    14    8    9 ar
    15    8   11 1
    16    9   10 ar
    17    9   30 1
    18   10   31 1
    19   11   17 1
    20   11   12 2
    21   12   13 1
    22   12   32 1
    23   13   15 1
    24   13   14 1
    25   13   16 1
    26   14   15 1
    27   14   33 1
    28   14   34 1
    29   15   35 1
    30   15   36 1
    31   16   17 2
    32   16   37 1
    33   17   18 1
    34   18   23 ar
    35   18   19 ar
    36   19   20 ar
    37   19   38 1
    38   20   21 ar
    39   20   39 1
    40   21   22 ar
    41   21   24 1
    42   22   23 ar
    43   22   40 1
    44   23   41 1
@<TRIPOS>MOLECULE
ZINC00006596
   33    35     0     0     0
SMALL
USER_CHARGES

@<TRIPOS>ATOM
      1 C1         -0.2030    3.1408   -1.0478 C.3       1 <0>        -0.6496
      2 S1         -0.2364    1.5713   -0.1389 S.o2      1 <0>         2.4976
      3 O1         -1.1511    0.6715   -0.7494 O.2       1 <0>        -0.9335
      4 O2          1.0870    1.1582    0.1731 O.2       1 <0>        -0.9331
      5 C2         -0.9633    1.9645    1.4173 C.ar      1 <0>        -0.6488
      6 C3         -0.1592    2.3492    2.4755 C.ar      1 <0>        -0.0178
      7 C4         -0.7223    2.6631    3.6951 C.ar      1 <0>        -0.1045
      8 C5         -2.1058    2.5821    3.8631 C.ar      1 <0>         0.0396
      9 C6         -2.9108    2.1881    2.7928 C.ar      1 <0>        -0.1170
     10 C7         -2.3352    1.8816    1.5771 C.ar      1 <0>        -0.0177
     11 C8         -2.7153    2.9113    5.1681 C.2       1 <0>        -0.1670
     12 C9         -2.4852    3.9977    6.0182 C.2       1 <0>         0.0897
     13 N1         -3.2239    3.9638    7.1137 N.2       1 <0>        -0.2533
     14 N2         -4.0504    3.0113    7.3465 N.2       1 <0>        -0.2299
     15 S2         -3.9483    2.0320    6.1111 S.3       1 <0>         0.3678
     16 C10        -1.5155    5.0780    5.7195 C.ar      1 <0>        -0.0345
     17 C11        -0.6859    5.5710    6.7259 C.ar      1 <0>        -0.0511
     18 C12         0.2189    6.5730    6.4418 C.ar      1 <0>        -0.1523
     19 C13         0.2966    7.0967    5.1614 C.ar      1 <0>         0.1173
     20 C14        -0.5298    6.6140    4.1594 C.ar      1 <0>        -0.1524
     21 C15        -1.4340    5.6085    4.4326 C.ar      1 <0>        -0.0611
     22 F1          1.1805    8.0814    4.8891 F         1 <0>        -0.1333
     23 H1         -1.2199    3.5166   -1.1612 H         1 <0>         0.1327
     24 H2          0.3935    3.8675   -0.4962 H         1 <0>         0.1329
     25 H3          0.2373    2.9814   -2.0320 H         1 <0>         0.1353
     26 H4          0.9113    2.4079    2.3451 H         1 <0>         0.1511
     27 H5         -0.0939    2.9669    4.5192 H         1 <0>         0.1390
     28 H6         -3.9818    2.1237    2.9160 H         1 <0>         0.1394
     29 H7         -2.9567    1.5767    0.7482 H         1 <0>         0.1515
     30 H8         -0.7486    5.1663    7.7252 H         1 <0>         0.1407
     31 H9          0.8648    6.9527    7.2196 H         1 <0>         0.1442
     32 H10        -0.4661    7.0258    3.1630 H         1 <0>         0.1432
     33 H11        -2.0780    5.2331    3.6511 H         1 <0>         0.1350
@<TRIPOS>BOND
     1    1    2 1
     2    1   23 1
     3    1   24 1
     4    1   25 1
     5    2    3 2
     6    2    4 2
     7    2    5 1
     8    5   10 ar
     9    5    6 ar
    10    6    7 ar
    11    6   26 1
    12    7    8 ar
    13    7   27 1
    14    8    9 ar
    15    8   11 1
    16    9   10 ar
    17    9   28 1
    18   10   29 1
    19   11   15 1
    20   11   12 2
    21   12   13 1
    22   12   16 1
    23   13   14 2
    24   14   15 1
    25   16   21 ar
    26   16   17 ar
    27   17   18 ar
    28   17   30 1
    29   18   19 ar
    30   18   31 1
    31   19   20 ar
    32   19   22 1
    33   20   21 ar
    34   20   32 1
    35   21   33 1
@<TRIPOS>MOLECULE
ZINC00006662
   42    44     0     0     0
SMALL
USER_CHARGES

@<TRIPOS>ATOM
      1 C1          7.2742    2.5248    0.0923 C.3       1 <0>        -0.0614
      2 C2          5.7745    2.6551    0.0231 C.2       1 <0>         0.2121
      3 N1          5.1161    3.7759   -0.0753 N.2       1 <0>        -0.4739
      4 C3          3.8027    3.5063   -0.1163 C.2       1 <0>         0.0505
      5 C4          3.6593    2.1589   -0.0300 C.2       1 <0>        -0.0459
      6 O1          4.9031    1.6376    0.0535 O.3       1 <0>        -0.1904
      7 C5          2.3870    1.4063   -0.0333 C.ar      1 <0>         0.0826
      8 C6          1.4094    1.6866   -0.9897 C.ar      1 <0>        -0.1269
      9 C7          0.2238    0.9814   -0.9884 C.ar      1 <0>         0.0166
     10 C8          0.0012   -0.0026   -0.0419 C.ar      1 <0>        -0.7090
     11 C9          0.9667   -0.2870    0.9103 C.ar      1 <0>         0.2003
     12 C10         2.1585    0.4128    0.9192 C.ar      1 <0>        -0.1522
     13 F1          0.7405   -1.2458    1.8348 F         1 <0>        -0.1128
     14 S1         -1.5161   -0.8984   -0.0477 S.o2      1 <0>         2.7042
     15 O2         -2.0030   -0.8813    1.2871 O.2       1 <0>        -0.9479
     16 O3         -2.2757   -0.4036   -1.1421 O.2       1 <0>        -0.9539
     17 N2         -1.1524   -2.4754   -0.3987 N.pl3     1 <0>        -1.2462
     18 C11         2.6893    4.5151   -0.2335 C.3       1 <0>        -0.0132
     19 C12         2.7718    5.2099   -1.5941 C.3       1 <0>        -0.1088
     20 C13         1.6414    6.2340   -1.7131 C.3       1 <0>        -0.1199
     21 C14         1.7769    7.2749   -0.5999 C.3       1 <0>        -0.1216
     22 C15         1.6944    6.5800    0.7608 C.3       1 <0>        -0.1202
     23 C16         2.8248    5.5559    0.8797 C.3       1 <0>        -0.1079
     24 H1          7.5442    1.4716    0.1706 H         1 <0>         0.0908
     25 H2          7.7176    2.9474   -0.8094 H         1 <0>         0.1021
     26 H3          7.6457    3.0610    0.9655 H         1 <0>         0.1022
     27 H4          1.5810    2.4547   -1.7293 H         1 <0>         0.1499
     28 H5         -0.5327    1.1984   -1.7280 H         1 <0>         0.1662
     29 H6          2.9108    0.1913    1.6617 H         1 <0>         0.1517
     30 H7         -0.2315   -2.7378   -0.5536 H         1 <0>         0.4168
     31 H8         -1.8602   -3.1367   -0.4492 H         1 <0>         0.4247
     32 H9          1.7287    4.0082   -0.1420 H         1 <0>         0.0879
     33 H10         3.7324    5.7167   -1.6856 H         1 <0>         0.0729
     34 H11         2.6752    4.4684   -2.3872 H         1 <0>         0.0608
     35 H12         0.6807    5.7272   -1.6216 H         1 <0>         0.0638
     36 H13         1.7001    6.7291   -2.6824 H         1 <0>         0.0665
     37 H14         0.9716    8.0045   -0.6846 H         1 <0>         0.0636
     38 H15         2.7375    7.7817   -0.6914 H         1 <0>         0.0636
     39 H16         0.7338    6.0732    0.8523 H         1 <0>         0.0628
     40 H17         1.7910    7.3215    1.5538 H         1 <0>         0.0658
     41 H18         2.7661    5.0609    1.8491 H         1 <0>         0.0600
     42 H19         3.7855    6.0627    0.7882 H         1 <0>         0.0737
@<TRIPOS>BOND
     1    1    2 1
     2    1   24 1
     3    1   25 1
     4    1   26 1
     5    2    6 1
     6    2    3 2
     7    3    4 1
     8    4    5 2
     9    4   18 1
    10    5    6 1
    11    5    7 1
    12    7   12 ar
    13    7    8 ar
    14    8    9 ar
    15    8   27 1
    16    9   10 ar
    17    9   28 1
    18   10   11 ar
    19   10   14 1
    20   11   12 ar
    21   11   13 1
    22   12   29 1
    23   14   15 2
    24   14   16 2
    25   14   17 1
    26   17   30 1
    27   17   31 1
    28   18   23 1
    29   18   19 1
    30   18   32 1
    31   19   20 1
    32   19   33 1
    33   19   34 1
    34   20   21 1
    35   20   35 1
    36   20   36 1
    37   21   22 1
    38   21   37 1
    39   21   38 1
    40   22   23 1
    41   22   39 1
    42   22   40 1
    43   23   41 1
    44   23   42 1
@<TRIPOS>MOLECULE
ZINC00006694
   36    38     0     0     0
SMALL
USER_CHARGES

@<TRIPOS>ATOM
      1 C1          1.5399    3.2173    0.0042 C.3       1 <0>        -0.0784
      2 C2          1.2089    1.7471   -0.0001 C.2       1 <0>         0.0015
      3 C3          2.0983    0.7109   -0.0142 C.2       1 <0>        -0.1805
      4 C4          1.2237   -0.4770   -0.0122 C.2       1 <0>         0.0801
      5 N1          0.0021   -0.0041    0.0020 N.2       1 <0>        -0.3425
      6 O1         -0.0143    1.2027    0.0087 O.3       1 <0>         0.1034
      7 C5          1.6385   -1.9012   -0.0245 C.ar      1 <0>        -0.0277
      8 C6          2.7720   -2.2934   -0.7340 C.ar      1 <0>        -0.0892
      9 C7          3.1568   -3.6188   -0.7369 C.ar      1 <0>        -0.1179
     10 C8          2.4126   -4.5592   -0.0475 C.ar      1 <0>        -0.1036
     11 C9          1.2833   -4.1764    0.6537 C.ar      1 <0>        -0.1187
     12 C10         0.8928   -2.8528    0.6686 C.ar      1 <0>        -0.0892
     13 C11         3.5807    0.7663   -0.0276 C.ar      1 <0>         0.0551
     14 C12         4.3085    0.2830    1.0581 C.ar      1 <0>        -0.1188
     15 C13         5.6876    0.3331    1.0384 C.ar      1 <0>        -0.0126
     16 C14         6.3471    0.8709   -0.0521 C.ar      1 <0>        -0.6735
     17 C15         5.6297    1.3565   -1.1304 C.ar      1 <0>        -0.0136
     18 C16         4.2504    1.3071   -1.1235 C.ar      1 <0>        -0.1273
     19 S1          8.1078    0.9383   -0.0673 S.o2      1 <0>         2.7005
     20 O2          8.5607   -0.0753    0.8196 O.2       1 <0>        -0.9608
     21 O3          8.5005    0.9877   -1.4320 O.2       1 <0>        -0.9610
     22 N2          8.5481    2.3864    0.6046 N.pl3     1 <0>        -1.2496
     23 H1          0.6172    3.7974    0.0162 H         1 <0>         0.0900
     24 H2          2.1297    3.4544    0.8897 H         1 <0>         0.0943
     25 H3          2.1122    3.4635   -0.8902 H         1 <0>         0.0945
     26 H4          3.3511   -1.5607   -1.2765 H         1 <0>         0.1235
     27 H5          4.0380   -3.9231   -1.2821 H         1 <0>         0.1299
     28 H6          2.7146   -5.5960   -0.0564 H         1 <0>         0.1284
     29 H7          0.7060   -4.9148    1.1903 H         1 <0>         0.1297
     30 H8          0.0111   -2.5550    1.2167 H         1 <0>         0.1265
     31 H9          3.7944   -0.1334    1.9118 H         1 <0>         0.1352
     32 H10         6.2527   -0.0446    1.8776 H         1 <0>         0.1477
     33 H11         6.1498    1.7754   -1.9792 H         1 <0>         0.1484
     34 H12         3.6912    1.6871   -1.9657 H         1 <0>         0.1370
     35 H13         7.8676    3.0042    0.9145 H         1 <0>         0.4169
     36 H14         9.4867    2.6168    0.6884 H         1 <0>         0.4222
@<TRIPOS>BOND
     1    1    2 1
     2    1   23 1
     3    1   24 1
     4    1   25 1
     5    2    6 1
     6    2    3 2
     7    3    4 1
     8    3   13 1
     9    4    5 2
    10    4    7 1
    11    5    6 1
    12    7   12 ar
    13    7    8 ar
    14    8    9 ar
    15    8   26 1
    16    9   10 ar
    17    9   27 1
    18   10   11 ar
    19   10   28 1
    20   11   12 ar
    21   11   29 1
    22   12   30 1
    23   13   18 ar
    24   13   14 ar
    25   14   15 ar
    26   14   31 1
    27   15   16 ar
    28   15   32 1
    29   16   17 ar
    30   16   19 1
    31   17   18 ar
    32   17   33 1
    33   18   34 1
    34   19   20 2
    35   19   21 2
    36   19   22 1
    37   22   35 1
    38   22   36 1
@<TRIPOS>MOLECULE
ZINC00006765
   28    29     0     0     0
SMALL
USER_CHARGES

@<TRIPOS>ATOM
      1 C1          4.2480   -2.8639   -0.5442 C.3       1 <0>        -0.6717
      2 S1          2.9458   -4.0505   -0.9765 S.o2      1 <0>         2.5996
      3 O1          3.3798   -5.3753   -0.7012 O.2       1 <0>        -0.9403
      4 O2          2.3822   -3.7204   -2.2385 O.2       1 <0>        -0.9324
      5 N1          1.7330   -3.7678    0.1149 N.pl3     1 <0>        -1.0067
      6 C2          1.0575   -2.5424    0.1084 C.2       1 <0>         0.0602
      7 C3         -0.2783   -2.3011    0.1927 C.2       1 <0>        -0.1194
      8 C4         -0.7231   -0.9875    0.1714 C.2       1 <0>        -0.1750
      9 C5          0.1887    0.0121    0.0553 C.2       1 <0>         0.0573
     10 S2          1.7263   -0.8919   -0.0136 S.3       1 <0>         0.0137
     11 O3         -0.0164    1.3556    0.0095 O.3       1 <0>        -0.1956
     12 C6          1.0733    2.1658   -0.0475 C.ar      1 <0>         0.0489
     13 C7          1.4933    2.8457    1.0867 C.ar      1 <0>        -0.0794
     14 C8          2.6045    3.6643    1.0286 C.ar      1 <0>        -0.1406
     15 C9          3.2923    3.8154   -0.1636 C.ar      1 <0>         0.1132
     16 C10         2.8711    3.1420   -1.2978 C.ar      1 <0>        -0.1393
     17 C11         1.7637    2.3182   -1.2415 C.ar      1 <0>        -0.0937
     18 F1          4.3758    4.6204   -0.2202 F         1 <0>        -0.1305
     19 H1          4.5770   -3.0425    0.4795 H         1 <0>         0.1366
     20 H2          5.0915   -2.9865   -1.2236 H         1 <0>         0.1426
     21 H3          3.8579   -1.8496   -0.6287 H         1 <0>         0.1273
     22 H4          1.4908   -4.4516    0.7588 H         1 <0>         0.4322
     23 H5         -0.9798   -3.1176    0.2799 H         1 <0>         0.1501
     24 H6         -1.7773   -0.7636    0.2422 H         1 <0>         0.1515
     25 H7          0.9542    2.7318    2.0156 H         1 <0>         0.1474
     26 H8          2.9343    4.1902    1.9123 H         1 <0>         0.1490
     27 H9          3.4088    3.2606   -2.2269 H         1 <0>         0.1485
     28 H10         1.4355    1.7929   -2.1262 H         1 <0>         0.1464
@<TRIPOS>BOND
     1    1    2 1
     2    1   19 1
     3    1   20 1
     4    1   21 1
     5    2    3 2
     6    2    4 2
     7    2    5 1
     8    5    6 1
     9    5   22 1
    10    6   10 1
    11    6    7 2
    12    7    8 1
    13    7   23 1
    14    8    9 2
    15    8   24 1
    16    9   10 1
    17    9   11 1
    18   11   12 1
    19   12   17 ar
    20   12   13 ar
    21   13   14 ar
    22   13   25 1
    23   14   15 ar
    24   14   26 1
    25   15   16 ar
    26   15   18 1
    27   16   17 ar
    28   16   27 1
    29   17   28 1
@<TRIPOS>MOLECULE
ZINC00006916
   36    38     0     0     0
SMALL
USER_CHARGES

@<TRIPOS>ATOM
      1 C1         -5.7453    7.4544   -0.3485 C.3       1 <0>        -0.6494
      2 S1         -4.2804    7.7298   -1.3824 S.o2      1 <0>         2.4999
      3 O1         -3.5662    8.8702   -0.9254 O.2       1 <0>        -0.9323
      4 O2         -4.6170    7.5882   -2.7556 O.2       1 <0>        -0.9329
      5 C2         -3.2192    6.3664   -1.0366 C.ar      1 <0>        -0.6597
      6 C3         -3.3136    5.2103   -1.7893 C.ar      1 <0>        -0.0060
      7 C4         -2.4838    4.1396   -1.5201 C.ar      1 <0>        -0.1385
      8 C5         -1.5538    4.2250   -0.4926 C.ar      1 <0>         0.1754
      9 C6         -1.4647    5.3853    0.2646 C.ar      1 <0>        -0.1315
     10 C7         -2.2941    6.4545   -0.0126 C.ar      1 <0>        -0.0079
     11 N1         -0.7108    3.1401   -0.2167 N.pl3     1 <0>        -0.4102
     12 C8         -1.1164    1.8700    0.0788 C.2       1 <0>         0.0038
     13 C9         -0.0206    1.1085    0.2865 C.2       1 <0>        -0.1855
     14 C10         1.1084    1.9251    0.1070 C.2       1 <0>        -0.1606
     15 C11         0.6621    3.1746   -0.2028 C.2       1 <0>         0.0535
     16 C12         1.5059    4.3576   -0.4750 C.ar      1 <0>        -0.0313
     17 C13         2.8117    4.4142    0.0147 C.ar      1 <0>        -0.0712
     18 C14         3.5962    5.5183   -0.2462 C.ar      1 <0>        -0.1463
     19 C15         3.0865    6.5747   -0.9840 C.ar      1 <0>         0.1015
     20 C16         1.7890    6.5261   -1.4682 C.ar      1 <0>        -0.1453
     21 C17         0.9976    5.4245   -1.2176 C.ar      1 <0>        -0.0936
     22 F1          3.8573    7.6562   -1.2320 F         1 <0>        -0.1362
     23 H1         -5.4501    7.4292    0.7005 H         1 <0>         0.1326
     24 H2         -6.4584    8.2636   -0.5058 H         1 <0>         0.1358
     25 H3         -6.2075    6.5050   -0.6188 H         1 <0>         0.1326
     26 H4         -4.0372    5.1445   -2.5884 H         1 <0>         0.1538
     27 H5         -2.5584    3.2366   -2.1079 H         1 <0>         0.1433
     28 H6         -0.7452    5.4532    1.0671 H         1 <0>         0.1412
     29 H7         -2.2227    7.3587    0.5736 H         1 <0>         0.1533
     30 H8         -2.1405    1.5322    0.1385 H         1 <0>         0.1690
     31 H9         -0.0135    0.0588    0.5405 H         1 <0>         0.1468
     32 H10         2.1401    1.6188    0.1975 H         1 <0>         0.1461
     33 H11         3.2084    3.5933    0.5937 H         1 <0>         0.1398
     34 H12         4.6081    5.5613    0.1288 H         1 <0>         0.1418
     35 H13         1.3966    7.3523   -2.0424 H         1 <0>         0.1391
     36 H14        -0.0136    5.3878   -1.5951 H         1 <0>         0.1293
@<TRIPOS>BOND
     1    1    2 1
     2    1   23 1
     3    1   24 1
     4    1   25 1
     5    2    3 2
     6    2    4 2
     7    2    5 1
     8    5   10 ar
     9    5    6 ar
    10    6    7 ar
    11    6   26 1
    12    7    8 ar
    13    7   27 1
    14    8    9 ar
    15    8   11 1
    16    9   10 ar
    17    9   28 1
    18   10   29 1
    19   11   15 1
    20   11   12 1
    21   12   13 2
    22   12   30 1
    23   13   14 1
    24   13   31 1
    25   14   15 2
    26   14   32 1
    27   15   16 1
    28   16   21 ar
    29   16   17 ar
    30   17   18 ar
    31   17   33 1
    32   18   19 ar
    33   18   34 1
    34   19   20 ar
    35   19   22 1
    36   20   21 ar
    37   20   35 1
    38   21   36 1
@<TRIPOS>MOLECULE
ZINC00007001
   37    39     0     0     0
SMALL
USER_CHARGES

@<TRIPOS>ATOM
      1 C1          3.8328   -1.8972   -7.3670 C.3       1 <0>        -0.6496
      2 S1          4.0223   -0.5732   -6.1415 S.o2      1 <0>         2.4968
      3 O1          3.1585    0.5108   -6.4546 O.2       1 <0>        -0.9340
      4 O2          5.3995   -0.3480   -5.8733 O.2       1 <0>        -0.9335
      5 C2          3.3769   -1.2448   -4.6458 C.ar      1 <0>        -0.6519
      6 C3          4.2151   -1.9249   -3.7789 C.ar      1 <0>        -0.0195
      7 C4          3.7187   -2.4531   -2.6065 C.ar      1 <0>        -0.1177
      8 C5          2.3622   -2.3005   -2.2937 C.ar      1 <0>        -0.0041
      9 C6          1.5204   -1.6161   -3.1792 C.ar      1 <0>        -0.1150
     10 C7          2.0348   -1.0889   -4.3442 C.ar      1 <0>        -0.0195
     11 C8          1.8246   -2.8600   -1.0477 C.2       1 <0>         0.0081
     12 C9          1.3205   -2.1300   -0.0215 C.2       1 <0>        -0.1619
     13 C10         0.8705   -2.9797    1.0757 C.2       1 <0>         0.3955
     14 O3          0.3817   -2.6006    2.1201 O.2       1 <0>        -0.4300
     15 C11         1.1188   -4.4176    0.6776 C.3       1 <0>        -0.1659
     16 C12         1.7510   -4.3306   -0.7215 C.3       1 <0>        -0.0944
     17 C13         1.2423   -0.6501   -0.0133 C.ar      1 <0>        -0.0748
     18 C14         0.0021   -0.0041    0.0020 C.ar      1 <0>        -0.0469
     19 C15        -0.0167    1.3807    0.0096 C.ar      1 <0>        -0.0860
     20 C16         1.1818    2.0740    0.0019 C.ar      1 <0>         0.1189
     21 N1          2.3361    1.4362   -0.0121 N.ar      1 <0>        -0.4613
     22 C17         2.4040    0.1208   -0.0202 C.ar      1 <0>         0.1225
     23 Cl1        -1.5263    2.2378    0.0215 Cl        1 <0>        -0.0461
     24 H1          2.7781   -2.1553   -7.4629 H         1 <0>         0.1320
     25 H2          4.2129   -1.5576   -8.3305 H         1 <0>         0.1349
     26 H3          4.3935   -2.7743   -7.0439 H         1 <0>         0.1323
     27 H4          5.2609   -2.0416   -4.0217 H         1 <0>         0.1490
     28 H5          4.3741   -2.9827   -1.9309 H         1 <0>         0.1402
     29 H6          0.4721   -1.4978   -2.9477 H         1 <0>         0.1347
     30 H7          1.3879   -0.5570   -5.0262 H         1 <0>         0.1471
     31 H8          0.2522   -4.9166    0.6729 H         1 <0>         0.1024
     32 H9          1.8082   -4.8903    1.3772 H         1 <0>         0.1138
     33 H10         1.1253   -4.8465   -1.4497 H         1 <0>         0.1037
     34 H11         2.7512   -4.7638   -0.7100 H         1 <0>         0.1049
     35 H12        -0.9174   -0.5705    0.0074 H         1 <0>         0.1453
     36 H13         1.1712    3.1539    0.0075 H         1 <0>         0.1690
     37 H14         3.3685   -0.3651   -0.0321 H         1 <0>         0.1608
@<TRIPOS>BOND
     1    1    2 1
     2    1   24 1
     3    1   25 1
     4    1   26 1
     5    2    3 2
     6    2    4 2
     7    2    5 1
     8    5   10 ar
     9    5    6 ar
    10    6    7 ar
    11    6   27 1
    12    7    8 ar
    13    7   28 1
    14    8    9 ar
    15    8   11 1
    16    9   10 ar
    17    9   29 1
    18   10   30 1
    19   11   16 1
    20   11   12 2
    21   12   13 1
    22   12   17 1
    23   13   14 2
    24   13   15 1
    25   15   16 1
    26   15   31 1
    27   15   32 1
    28   16   33 1
    29   16   34 1
    30   17   22 ar
    31   17   18 ar
    32   18   19 ar
    33   18   35 1
    34   19   20 ar
    35   19   23 1
    36   20   21 ar
    37   20   36 1
    38   21   22 ar
    39   22   37 1
@<TRIPOS>MOLECULE
ZINC00007002
   37    39     0     0     0
SMALL
USER_CHARGES

@<TRIPOS>ATOM
      1 C1          2.1663   -7.0109   -0.7978 C.3       1 <0>        -0.6497
      2 S1          3.5072   -6.0343   -0.0638 S.o2      1 <0>         2.4974
      3 O1          4.6271   -6.0056   -0.9381 O.2       1 <0>        -0.9347
      4 O2          3.6667   -6.3743    1.3067 O.2       1 <0>        -0.9340
      5 C2          2.9057   -4.3782   -0.0492 C.ar      1 <0>        -0.6530
      6 C3          2.2035   -3.9108    1.0486 C.ar      1 <0>        -0.0198
      7 C4          1.7294   -2.6167    1.0684 C.ar      1 <0>        -0.1188
      8 C5          1.9598   -1.7741   -0.0262 C.ar      1 <0>         0.0004
      9 C6          2.6660   -2.2571   -1.1349 C.ar      1 <0>        -0.1147
     10 C7          3.1384   -3.5519   -1.1353 C.ar      1 <0>        -0.0200
     11 C8          1.4587   -0.3946   -0.0140 C.2       1 <0>        -0.0011
     12 C9          2.2380    0.7157   -0.0155 C.2       1 <0>        -0.1558
     13 C10         1.4391    1.9364   -0.0013 C.2       1 <0>         0.3950
     14 O3          1.8676    3.0720    0.0004 O.2       1 <0>        -0.4317
     15 C11        -0.0188    1.5335    0.0105 C.3       1 <0>        -0.1667
     16 C12         0.0021   -0.0041    0.0020 C.3       1 <0>        -0.0935
     17 C13         3.7197    0.6918   -0.0297 C.ar      1 <0>        -0.0905
     18 C14         4.4283    1.1951   -1.1256 C.ar      1 <0>        -0.0549
     19 C15         5.8109    1.1500   -1.0897 C.ar      1 <0>        -0.1686
     20 C16         6.4422    0.6137    0.0182 C.ar      1 <0>         0.1035
     21 N1          5.7474    0.1467    1.0375 N.ar      1 <0>        -0.4793
     22 C17         4.4304    0.1724    1.0514 C.ar      1 <0>         0.1193
     23 H1          1.9614   -6.6475   -1.8048 H         1 <0>         0.1318
     24 H2          2.4628   -8.0588   -0.8431 H         1 <0>         0.1347
     25 H3          1.2691   -6.9132   -0.1867 H         1 <0>         0.1323
     26 H4          2.0271   -4.5619    1.8920 H         1 <0>         0.1484
     27 H5          1.1821   -2.2535    1.9257 H         1 <0>         0.1394
     28 H6          2.8442   -1.6153   -1.9850 H         1 <0>         0.1343
     29 H7          3.6876   -3.9244   -1.9873 H         1 <0>         0.1464
     30 H8         -0.4756    1.9117   -0.7947 H         1 <0>         0.1014
     31 H9         -0.5074    1.9019    0.9125 H         1 <0>         0.1129
     32 H10        -0.4814   -0.3917    0.8987 H         1 <0>         0.1032
     33 H11        -0.4985   -0.3821   -0.8894 H         1 <0>         0.1020
     34 H12         3.9096    1.6081   -1.9781 H         1 <0>         0.1335
     35 H13         6.3910    1.5299   -1.9178 H         1 <0>         0.1397
     36 H14         7.5211    0.5771    0.0492 H         1 <0>         0.1591
     37 H15         3.8965   -0.2156    1.9062 H         1 <0>         0.1519
@<TRIPOS>BOND
     1    1    2 1
     2    1   23 1
     3    1   24 1
     4    1   25 1
     5    2    3 2
     6    2    4 2
     7    2    5 1
     8    5   10 ar
     9    5    6 ar
    10    6    7 ar
    11    6   26 1
    12    7    8 ar
    13    7   27 1
    14    8    9 ar
    15    8   11 1
    16    9   10 ar
    17    9   28 1
    18   10   29 1
    19   11   16 1
    20   11   12 2
    21   12   13 1
    22   12   17 1
    23   13   14 2
    24   13   15 1
    25   15   16 1
    26   15   30 1
    27   15   31 1
    28   16   32 1
    29   16   33 1
    30   17   22 ar
    31   17   18 ar
    32   18   19 ar
    33   18   34 1
    34   19   20 ar
    35   19   35 1
    36   20   21 ar
    37   20   36 1
    38   21   22 ar
    39   22   37 1
@<TRIPOS>MOLECULE
ZINC00007455
   36    38     0     0     0
SMALL
USER_CHARGES

@<TRIPOS>ATOM
      1 C1          1.5289   -0.8565   -6.9837 C.3       1 <0>        -0.6495
      2 S1          0.5746    0.6861   -6.9667 S.o2      1 <0>         2.4977
      3 O1         -0.6798    0.4927   -7.6058 O.2       1 <0>        -0.9337
      4 O2          1.4076    1.7809   -7.3225 O.2       1 <0>        -0.9340
      5 C2          0.1786    0.9549   -5.2710 C.ar      1 <0>        -0.6509
      6 C3          1.0392    1.6865   -4.4708 C.ar      1 <0>        -0.0202
      7 C4          0.7369    1.9014   -3.1431 C.ar      1 <0>        -0.1176
      8 C5         -0.4441    1.3775   -2.6047 C.ar      1 <0>         0.0101
      9 C6         -1.3060    0.6340   -3.4193 C.ar      1 <0>        -0.1085
     10 C7         -0.9917    0.4336   -4.7465 C.ar      1 <0>        -0.0190
     11 C8         -0.7743    1.6016   -1.1909 C.2       1 <0>        -0.0590
     12 C9         -1.8264    2.3157   -0.7034 C.2       1 <0>        -0.1342
     13 C10        -1.7832    2.2874    0.7622 C.2       1 <0>         0.5047
     14 O3         -2.5869    2.8329    1.4931 O.2       1 <0>        -0.4360
     15 O4         -0.7234    1.5697    1.1809 O.3       1 <0>        -0.3150
     16 C11        -0.0127    1.0858    0.0080 C.3       1 <0>         0.0751
     17 C12        -2.8485    3.0090   -1.5209 C.ar      1 <0>        -0.0404
     18 C13        -2.4861    4.0871   -2.3284 C.ar      1 <0>        -0.0947
     19 C14        -3.4419    4.7259   -3.0914 C.ar      1 <0>        -0.1174
     20 C15        -4.7594    4.3058   -3.0485 C.ar      1 <0>        -0.1070
     21 C16        -5.1261    3.2405   -2.2455 C.ar      1 <0>        -0.1167
     22 C17        -4.1785    2.5903   -1.4820 C.ar      1 <0>        -0.0918
     23 H1          0.9201   -1.6649   -6.5788 H         1 <0>         0.1323
     24 H2          1.8153   -1.0953   -8.0079 H         1 <0>         0.1351
     25 H3          2.4248   -0.7362   -6.3746 H         1 <0>         0.1324
     26 H4          1.9499    2.0903   -4.8880 H         1 <0>         0.1495
     27 H5          1.4093    2.4728   -2.5203 H         1 <0>         0.1395
     28 H6         -2.2170    0.2225   -3.0105 H         1 <0>         0.1375
     29 H7         -1.6581   -0.1354   -5.3778 H         1 <0>         0.1489
     30 H8          0.0021   -0.0041    0.0020 H         1 <0>         0.1277
     31 H9          1.0058    1.4741    0.0004 H         1 <0>         0.1268
     32 H10        -1.4586    4.4186   -2.3595 H         1 <0>         0.1217
     33 H11        -3.1618    5.5581   -3.7201 H         1 <0>         0.1278
     34 H12        -5.5047    4.8114   -3.6446 H         1 <0>         0.1267
     35 H13        -6.1561    2.9170   -2.2166 H         1 <0>         0.1284
     36 H14        -4.4658    1.7585   -0.8559 H         1 <0>         0.1236
@<TRIPOS>BOND
     1    1    2 1
     2    1   23 1
     3    1   24 1
     4    1   25 1
     5    2    3 2
     6    2    4 2
     7    2    5 1
     8    5   10 ar
     9    5    6 ar
    10    6    7 ar
    11    6   26 1
    12    7    8 ar
    13    7   27 1
    14    8    9 ar
    15    8   11 1
    16    9   10 ar
    17    9   28 1
    18   10   29 1
    19   11   16 1
    20   11   12 2
    21   12   13 1
    22   12   17 1
    23   13   14 2
    24   13   15 1
    25   15   16 1
    26   16   30 1
    27   16   31 1
    28   17   22 ar
    29   17   18 ar
    30   18   19 ar
    31   18   32 1
    32   19   20 ar
    33   19   33 1
    34   20   21 ar
    35   20   34 1
    36   21   22 ar
    37   21   35 1
    38   22   36 1
@<TRIPOS>MOLECULE
ZINC00007588
   36    38     0     0     0
SMALL
USER_CHARGES

@<TRIPOS>ATOM
      1 C1         -5.3496    3.1080    8.3591 C.3       1 <0>        -0.0686
      2 C2         -4.5332    3.2727    7.1032 C.2       1 <0>         0.0996
      3 N1         -3.6547    4.2017    6.8154 N.2       1 <0>        -0.5006
      4 C3         -3.0107    4.2160    5.6613 C.2       1 <0>         0.1319
      5 C4         -3.3025    3.1993    4.7553 C.2       1 <0>        -0.1718
      6 S1         -4.5288    2.2831    5.6771 S.3       1 <0>         0.0829
      7 C5         -2.7557    2.9513    3.4063 C.ar      1 <0>         0.0626
      8 C6         -2.6759    3.9928    2.4794 C.ar      1 <0>        -0.1098
      9 C7         -2.1635    3.7541    1.2211 C.ar      1 <0>        -0.0123
     10 C8         -1.7293    2.4863    0.8764 C.ar      1 <0>        -0.6720
     11 C9         -1.8107    1.4485    1.7880 C.ar      1 <0>        -0.0125
     12 C10        -2.3156    1.6743    3.0517 C.ar      1 <0>        -0.1255
     13 S2         -1.0762    2.1905   -0.7331 S.o2      1 <0>         2.7011
     14 O1         -1.6165    3.1944   -1.5814 O.2       1 <0>        -0.9604
     15 O2         -1.2449    0.8034   -0.9912 O.2       1 <0>        -0.9610
     16 N2          0.5554    2.4628   -0.6571 N.pl3     1 <0>        -1.2493
     17 C11        -2.0197    5.2703    5.3443 C.ar      1 <0>        -0.0291
     18 C12        -0.8122    4.9350    4.7320 C.ar      1 <0>        -0.0954
     19 C13         0.1047    5.9222    4.4344 C.ar      1 <0>        -0.1200
     20 C14        -0.1668    7.2410    4.7526 C.ar      1 <0>        -0.1079
     21 C15        -1.3605    7.5792    5.3647 C.ar      1 <0>        -0.1208
     22 C16        -2.2878    6.6016    5.6621 C.ar      1 <0>        -0.0839
     23 H1         -6.2917    3.6459    8.2532 H         1 <0>         0.0955
     24 H2         -5.5520    2.0498    8.5247 H         1 <0>         0.0905
     25 H3         -4.7957    3.5091    9.2078 H         1 <0>         0.0981
     26 H4         -3.0141    4.9829    2.7472 H         1 <0>         0.1373
     27 H5         -2.1009    4.5587    0.5034 H         1 <0>         0.1494
     28 H6         -1.4741    0.4604    1.5109 H         1 <0>         0.1496
     29 H7         -2.3749    0.8642    3.7635 H         1 <0>         0.1376
     30 H8          0.9636    2.7329    0.1803 H         1 <0>         0.4170
     31 H9          1.1031    2.3522   -1.4501 H         1 <0>         0.4222
     32 H10        -0.5972    3.9052    4.4875 H         1 <0>         0.1208
     33 H11         1.0381    5.6644    3.9562 H         1 <0>         0.1266
     34 H12         0.5559    8.0096    4.5218 H         1 <0>         0.1256
     35 H13        -1.5668    8.6103    5.6107 H         1 <0>         0.1269
     36 H14        -3.2194    6.8669    6.1397 H         1 <0>         0.1256
@<TRIPOS>BOND
     1    1    2 1
     2    1   23 1
     3    1   24 1
     4    1   25 1
     5    2    6 1
     6    2    3 2
     7    3    4 1
     8    4    5 2
     9    4   17 1
    10    5    6 1
    11    5    7 1
    12    7   12 ar
    13    7    8 ar
    14    8    9 ar
    15    8   26 1
    16    9   10 ar
    17    9   27 1
    18   10   11 ar
    19   10   13 1
    20   11   12 ar
    21   11   28 1
    22   12   29 1
    23   13   14 2
    24   13   15 2
    25   13   16 1
    26   16   30 1
    27   16   31 1
    28   17   22 ar
    29   17   18 ar
    30   18   19 ar
    31   18   32 1
    32   19   20 ar
    33   19   33 1
    34   20   21 ar
    35   20   34 1
    36   21   22 ar
    37   21   35 1
    38   22   36 1
@<TRIPOS>MOLECULE
ZINC00008604
   34    36     0     0     0
SMALL
USER_CHARGES

@<TRIPOS>ATOM
      1 C1          0.7971    4.1255   -0.8278 C.ar      1 <0>        -0.1370
      2 C2          1.2011    5.3745   -1.2530 C.ar      1 <0>        -0.0081
      3 C3          2.4997    5.5744   -1.6860 C.ar      1 <0>        -0.6725
      4 C4          3.4024    4.5260   -1.6916 C.ar      1 <0>        -0.0084
      5 C5          3.0119    3.2733   -1.2648 C.ar      1 <0>        -0.1228
      6 C6          1.7039    3.0653   -0.8265 C.ar      1 <0>         0.0396
      7 C7          1.2784    1.7243   -0.3679 C.2       1 <0>         0.0333
      8 C8          1.9888    0.5904   -0.4577 C.2       1 <0>         0.0007
      9 O1          1.2543   -0.4141    0.0714 O.3       1 <0>        -0.2256
     10 C9          0.0810    0.0800    0.4958 C.2       1 <0>         0.6205
     11 O2         -0.8122   -0.5570    1.0220 O.2       1 <0>        -0.4766
     12 N1          0.0621    1.4036    0.2390 N.am      1 <0>        -0.4994
     13 C10        -0.9854    2.2910    0.5227 C.ar      1 <0>         0.1160
     14 C11        -0.9638    3.0409    1.6910 C.ar      1 <0>        -0.0707
     15 C12        -1.9939    3.9189    1.9659 C.ar      1 <0>        -0.1415
     16 C13        -3.0533    4.0431    1.0829 C.ar      1 <0>         0.1222
     17 C14        -3.0794    3.2918   -0.0801 C.ar      1 <0>        -0.1424
     18 C15        -2.0484    2.4169   -0.3614 C.ar      1 <0>        -0.0722
     19 F1         -4.0630    4.8980    1.3565 F         1 <0>        -0.1275
     20 S1          3.0061    7.1709   -2.2332 S.o2      1 <0>         2.7005
     21 O3          2.1322    8.1073   -1.6176 O.2       1 <0>        -0.9594
     22 O4          4.4170    7.2265   -2.0733 O.2       1 <0>        -0.9592
     23 N2          2.7108    7.2471   -3.8608 N.pl3     1 <0>        -1.2491
     24 H1         -0.2180    3.9698   -0.4936 H         1 <0>         0.1402
     25 H2          0.5011    6.1969   -1.2509 H         1 <0>         0.1488
     26 H3          4.4147    4.6883   -2.0311 H         1 <0>         0.1526
     27 H4          3.7173    2.4555   -1.2703 H         1 <0>         0.1433
     28 H5          2.9784    0.4958   -0.8798 H         1 <0>         0.2279
     29 H6         -0.1401    2.9408    2.3823 H         1 <0>         0.1424
     30 H7         -1.9753    4.5057    2.8724 H         1 <0>         0.1510
     31 H8         -3.9067    3.3898   -0.7674 H         1 <0>         0.1509
     32 H9         -2.0693    1.8309   -1.2683 H         1 <0>         0.1424
     33 H10         2.3252    6.4846   -4.3200 H         1 <0>         0.4171
     34 H11         2.9233    8.0542   -4.3551 H         1 <0>         0.4229
@<TRIPOS>BOND
     1    1    6 ar
     2    1    2 ar
     3    1   24 1
     4    2    3 ar
     5    2   25 1
     6    3    4 ar
     7    3   20 1
     8    4    5 ar
     9    4   26 1
    10    5    6 ar
    11    5   27 1
    12    6    7 1
    13    7   12 1
    14    7    8 2
    15    8    9 1
    16    8   28 1
    17    9   10 1
    18   10   11 2
    19   10   12 am
    20   12   13 1
    21   13   18 ar
    22   13   14 ar
    23   14   15 ar
    24   14   29 1
    25   15   16 ar
    26   15   30 1
    27   16   17 ar
    28   16   19 1
    29   17   18 ar
    30   17   31 1
    31   18   32 1
    32   20   21 2
    33   20   22 2
    34   20   23 1
    35   23   33 1
    36   23   34 1
@<TRIPOS>MOLECULE
ZINC00009201
   39    40     0     0     0
SMALL
USER_CHARGES

@<TRIPOS>ATOM
      1 C1          2.3034    0.3200   -0.9463 C.3       1 <0>        -0.1500
      2 C2          2.0408    0.8262    0.4735 C.3       1 <0>        -0.0876
      3 C3          0.8149    1.7027    0.4754 C.ar      1 <0>        -0.0903
      4 C4         -0.4297    1.1436    0.6916 C.ar      1 <0>        -0.0565
      5 C5         -1.5707    1.9485    0.6886 C.ar      1 <0>        -0.1048
      6 C6         -1.4513    3.3201    0.4786 C.ar      1 <0>        -0.0597
      7 C7         -0.1924    3.8786    0.2611 C.ar      1 <0>        -0.1550
      8 C8          0.9407    3.0602    0.2609 C.ar      1 <0>        -0.0416
      9 C9         -0.0564    5.3320    0.0317 C.2       1 <0>         0.4398
     10 O1          0.9270    5.9216    0.4353 O.2       1 <0>        -0.4403
     11 C10        -1.1156    6.0686   -0.6881 C.ar      1 <0>        -0.1664
     12 C11        -2.1650    5.3742   -1.2945 C.ar      1 <0>        -0.0863
     13 C12        -3.1534    6.0686   -1.9603 C.ar      1 <0>        -0.1303
     14 C13        -3.1012    7.4494   -2.0377 C.ar      1 <0>        -0.0842
     15 C14        -2.0616    8.1434   -1.4438 C.ar      1 <0>        -0.1297
     16 C15        -1.0693    7.4623   -0.7703 C.ar      1 <0>        -0.0595
     17 C16        -2.9022    1.3468    0.9136 C.2       1 <0>         0.0719
     18 C17        -3.9845    2.1122    0.9106 C.2       1 <0>        -0.7557
     19 S1         -5.5714    1.3951    1.1787 S.o2      1 <0>         2.6935
     20 O2         -6.4189    1.8880    0.1501 O.2       1 <0>        -0.9629
     21 O3         -5.3589    0.0061    1.3904 O.2       1 <0>        -0.9695
     22 N1         -6.1512    2.0077    2.6038 N.pl3     1 <0>        -1.2499
     23 H1          1.4446   -0.2557   -1.2914 H         1 <0>         0.0577
     24 H2          2.4627    1.1689   -1.6111 H         1 <0>         0.0568
     25 H3          3.1901   -0.3140   -0.9477 H         1 <0>         0.0631
     26 H4          2.8996    1.4019    0.8186 H         1 <0>         0.0780
     27 H5          1.8815   -0.0227    1.1383 H         1 <0>         0.0788
     28 H6         -0.5210    0.0805    0.8588 H         1 <0>         0.1389
     29 H7         -2.3302    3.9477    0.4801 H         1 <0>         0.1424
     30 H8          1.9167    3.4910    0.0929 H         1 <0>         0.1370
     31 H9         -2.2046    4.2964   -1.2386 H         1 <0>         0.1365
     32 H10        -3.9675    5.5333   -2.4261 H         1 <0>         0.1334
     33 H11        -3.8751    7.9878   -2.5645 H         1 <0>         0.1307
     34 H12        -2.0271    9.2210   -1.5081 H         1 <0>         0.1322
     35 H13        -0.2582    8.0051   -0.3078 H         1 <0>         0.1352
     36 H14        -2.9931    0.2837    1.0804 H         1 <0>         0.1521
     37 H15        -3.8935    3.1754    0.7437 H         1 <0>         0.1640
     38 H16        -5.6200    2.6413    3.1111 H         1 <0>         0.4167
     39 H17        -7.0219    1.7331    2.9312 H         1 <0>         0.4218
@<TRIPOS>BOND
     1    1    2 1
     2    1   23 1
     3    1   24 1
     4    1   25 1
     5    2    3 1
     6    2   26 1
     7    2   27 1
     8    3    8 ar
     9    3    4 ar
    10    4    5 ar
    11    4   28 1
    12    5    6 ar
    13    5   17 1
    14    6    7 ar
    15    6   29 1
    16    7    8 ar
    17    7    9 1
    18    8   30 1
    19    9   10 2
    20    9   11 1
    21   11   16 ar
    22   11   12 ar
    23   12   13 ar
    24   12   31 1
    25   13   14 ar
    26   13   32 1
    27   14   15 ar
    28   14   33 1
    29   15   16 ar
    30   15   34 1
    31   16   35 1
    32   17   18 2
    33   17   36 1
    34   18   19 1
    35   18   37 1
    36   19   20 2
    37   19   21 2
    38   19   22 1
    39   22   38 1
    40   22   39 1
@<TRIPOS>MOLECULE
ZINC00009969
   38    40     0     0     0
SMALL
USER_CHARGES

@<TRIPOS>ATOM
      1 C1          0.9717    6.4401   -7.2947 C.3       1 <0>        -0.6496
      2 S1         -0.2755    5.9687   -6.0647 S.o2      1 <0>         2.4969
      3 O1         -0.8331    4.7036   -6.3931 O.2       1 <0>        -0.9340
      4 O2         -1.1157    7.0762   -5.7704 O.2       1 <0>        -0.9341
      5 C2          0.6342    5.6879   -4.5821 C.ar      1 <0>        -0.6526
      6 C3          0.8521    6.7326   -3.7001 C.ar      1 <0>        -0.0203
      7 C4          1.5627    6.5218   -2.5380 C.ar      1 <0>        -0.1179
      8 C5          2.0648    5.2465   -2.2507 C.ar      1 <0>        -0.0037
      9 C6          1.8447    4.1968   -3.1513 C.ar      1 <0>        -0.1140
     10 C7          1.1267    4.4239   -4.3058 C.ar      1 <0>        -0.0197
     11 C8          2.8226    5.0126   -1.0157 C.2       1 <0>         0.0095
     12 C9          2.4228    4.2090    0.0016 C.2       1 <0>        -0.1669
     13 C10         3.3942    4.1916    1.0899 C.2       1 <0>         0.3964
     14 O3          3.2972    3.5660    2.1255 O.2       1 <0>        -0.4284
     15 C11         4.5457    5.0893    0.6950 C.3       1 <0>        -0.1658
     16 C12         4.1600    5.6300   -0.6920 C.3       1 <0>        -0.0949
     17 C13         1.1517    3.4471    0.0091 C.ar      1 <0>         0.0232
     18 C14        -0.0682    4.1220    0.0239 C.ar      1 <0>        -0.1484
     19 C15        -1.2511    3.4069    0.0314 C.ar      1 <0>         0.1371
     20 C16        -1.2258    2.0219    0.0188 C.ar      1 <0>        -0.1878
     21 C17        -0.0162    1.3468    0.0094 C.ar      1 <0>         0.1374
     22 C18         1.1720    2.0530    0.0019 C.ar      1 <0>        -0.1451
     23 F1          0.0021   -0.0041    0.0020 F         1 <0>        -0.1264
     24 F2         -2.4338    4.0597    0.0453 F         1 <0>        -0.1261
     25 H1          1.6918    5.6301   -7.4108 H         1 <0>         0.1322
     26 H2          0.4845    6.6329   -8.2506 H         1 <0>         0.1348
     27 H3          1.4881    7.3404   -6.9619 H         1 <0>         0.1323
     28 H4          0.4638    7.7154   -3.9231 H         1 <0>         0.1486
     29 H5          1.7314    7.3377   -1.8508 H         1 <0>         0.1394
     30 H6          2.2323    3.2113   -2.9396 H         1 <0>         0.1367
     31 H7          0.9519    3.6145   -4.9991 H         1 <0>         0.1477
     32 H8          5.3916    4.5564    0.6737 H         1 <0>         0.1028
     33 H9          4.6478    5.9083    1.4070 H         1 <0>         0.1137
     34 H10         4.9017    5.3301   -1.4322 H         1 <0>         0.1042
     35 H11         4.0754    6.7163   -0.6620 H         1 <0>         0.1048
     36 H12        -0.0889    5.2018    0.0292 H         1 <0>         0.1422
     37 H13        -2.1521    1.4666    0.0202 H         1 <0>         0.1524
     38 H14         2.1145    1.5258   -0.0099 H         1 <0>         0.1435
@<TRIPOS>BOND
     1    1    2 1
     2    1   25 1
     3    1   26 1
     4    1   27 1
     5    2    3 2
     6    2    4 2
     7    2    5 1
     8    5   10 ar
     9    5    6 ar
    10    6    7 ar
    11    6   28 1
    12    7    8 ar
    13    7   29 1
    14    8    9 ar
    15    8   11 1
    16    9   10 ar
    17    9   30 1
    18   10   31 1
    19   11   16 1
    20   11   12 2
    21   12   13 1
    22   12   17 1
    23   13   14 2
    24   13   15 1
    25   15   16 1
    26   15   32 1
    27   15   33 1
    28   16   34 1
    29   16   35 1
    30   17   22 ar
    31   17   18 ar
    32   18   19 ar
    33   18   36 1
    34   19   20 ar
    35   19   24 1
    36   20   21 ar
    37   20   37 1
    38   21   22 ar
    39   21   23 1
    40   22   38 1
@<TRIPOS>MOLECULE
ZINC00017499
   49    51     0     0     0
SMALL
USER_CHARGES

@<TRIPOS>ATOM
      1 C1          8.0319    0.3955    1.3689 C.3       1 <0>        -0.1540
      2 C2          6.5062    0.5092    1.3828 C.3       1 <0>        -0.1190
      3 C3          5.9758    0.4287   -0.0500 C.3       1 <0>        -0.0617
      4 C4          4.4730    0.5407   -0.0364 C.2       1 <0>         0.0939
      5 C5          3.7862    1.6939   -0.0244 C.2       1 <0>        -0.1805
      6 C6          2.3653    1.3419   -0.0133 C.ar      1 <0>        -0.1745
      7 C7          1.1778    2.0774    0.0020 C.ar      1 <0>         0.0793
      8 C8         -0.0167    1.3824    0.0096 C.ar      1 <0>        -0.7473
      9 C9          0.0021   -0.0041    0.0020 C.ar      1 <0>         0.2229
     10 N1          1.1322   -0.6779   -0.0120 N.ar      1 <0>        -0.4976
     11 C10         2.3086   -0.0649   -0.0199 C.ar      1 <0>         0.3308
     12 N2          3.6057   -0.5187   -0.0339 N.pl3     1 <0>        -0.4572
     13 C11         4.0022   -1.9290   -0.0446 C.3       1 <0>         0.1084
     14 C12         4.1278   -2.4125   -1.4908 C.3       1 <0>        -0.1017
     15 C13         2.7539   -2.3732   -2.1628 C.3       1 <0>        -0.1093
     16 C14         2.8795   -2.8567   -3.6090 C.3       1 <0>        -0.1190
     17 C15         3.4132   -4.2905   -3.6228 C.3       1 <0>        -0.1205
     18 C16         4.7871   -4.3298   -2.9508 C.3       1 <0>        -0.1176
     19 C17         4.6615   -3.8463   -1.5046 C.3       1 <0>        -0.1113
     20 S1         -1.5500    2.2505    0.0216 S.o2      1 <0>         2.5125
     21 O1         -1.2601    3.5068   -0.5758 O.2       1 <0>        -0.9381
     22 O2         -2.4767    1.3581   -0.5817 O.2       1 <0>        -0.9357
     23 C18        -1.9474    2.4707    1.7778 C.3       1 <0>        -0.6510
     24 H1          8.4099    0.4529    2.3897 H         1 <0>         0.0587
     25 H2          8.3212   -0.5582    0.9275 H         1 <0>         0.0552
     26 H3          8.4517    1.2108    0.7797 H         1 <0>         0.0582
     27 H4          6.2170    1.4629    1.8243 H         1 <0>         0.0700
     28 H5          6.0865   -0.3061    1.9720 H         1 <0>         0.0609
     29 H6          6.2650   -0.5250   -0.4915 H         1 <0>         0.0775
     30 H7          6.3956    1.2440   -0.6392 H         1 <0>         0.0946
     31 H8          4.2022    2.6906   -0.0231 H         1 <0>         0.1558
     32 H9          1.1928    3.1573    0.0073 H         1 <0>         0.1532
     33 H10        -0.9333   -0.5439    0.0081 H         1 <0>         0.1765
     34 H11         4.9617   -2.0405    0.4604 H         1 <0>         0.0917
     35 H12         3.2482   -2.5223    0.4727 H         1 <0>         0.0958
     36 H13         4.8159   -1.7634   -2.0324 H         1 <0>         0.0746
     37 H14         2.0658   -3.0222   -1.6212 H         1 <0>         0.0687
     38 H15         2.3736   -1.3517   -2.1529 H         1 <0>         0.0586
     39 H16         3.5676   -2.2076   -4.1506 H         1 <0>         0.0583
     40 H17         1.9007   -2.8287   -4.0877 H         1 <0>         0.0625
     41 H18         3.5027   -4.6349   -4.6531 H         1 <0>         0.0619
     42 H19         2.7251   -4.9396   -3.0812 H         1 <0>         0.0627
     43 H20         5.4752   -3.6807   -3.4924 H         1 <0>         0.0614
     44 H21         5.1674   -5.3513   -2.9606 H         1 <0>         0.0647
     45 H22         5.6403   -3.8743   -1.0258 H         1 <0>         0.0641
     46 H23         3.9734   -4.4953   -0.9630 H         1 <0>         0.0668
     47 H24        -1.1557    3.0439    2.2604 H         1 <0>         0.1305
     48 H25        -2.8924    3.0055    1.8723 H         1 <0>         0.1335
     49 H26        -2.0327    1.4949    2.2561 H         1 <0>         0.1317
@<TRIPOS>BOND
     1    1    2 1
     2    1   24 1
     3    1   25 1
     4    1   26 1
     5    2    3 1
     6    2   27 1
     7    2   28 1
     8    3    4 1
     9    3   29 1
    10    3   30 1
    11    4   12 1
    12    4    5 2
    13    5    6 1
    14    5   31 1
    15    6   11 ar
    16    6    7 ar
    17    7    8 ar
    18    7   32 1
    19    8    9 ar
    20    8   20 1
    21    9   10 ar
    22    9   33 1
    23   10   11 ar
    24   11   12 1
    25   12   13 1
    26   13   14 1
    27   13   34 1
    28   13   35 1
    29   14   19 1
    30   14   15 1
    31   14   36 1
    32   15   16 1
    33   15   37 1
    34   15   38 1
    35   16   17 1
    36   16   39 1
    37   16   40 1
    38   17   18 1
    39   17   41 1
    40   17   42 1
    41   18   19 1
    42   18   43 1
    43   18   44 1
    44   19   45 1
    45   19   46 1
    46   20   21 2
    47   20   22 2
    48   20   23 1
    49   23   47 1
    50   23   48 1
    51   23   49 1
@<TRIPOS>MOLECULE
ZINC00018527
   39    41     0     0     0
SMALL
USER_CHARGES

@<TRIPOS>ATOM
      1 C1          8.1355    2.3267    3.1688 C.3       1 <0>        -0.6505
      2 S1          7.7821    0.6029    2.7281 S.o2      1 <0>         2.4986
      3 O1          7.7178   -0.1985    3.8998 O.2       1 <0>        -0.9368
      4 O2          8.5819    0.2066    1.6224 O.2       1 <0>        -0.9372
      5 C2          6.1337    0.6233    2.1062 C.ar      1 <0>        -0.6614
      6 C3          5.9096    0.8283    0.7562 C.ar      1 <0>        -0.0212
      7 C4          4.6220    0.8455    0.2622 C.ar      1 <0>        -0.1298
      8 C5          3.5424    0.6554    1.1287 C.ar      1 <0>         0.0254
      9 C6          3.7761    0.4544    2.4916 C.ar      1 <0>        -0.1233
     10 C7          5.0695    0.4339    2.9702 C.ar      1 <0>        -0.0205
     11 C8          2.1634    0.6730    0.6086 C.2       1 <0>        -0.1011
     12 C9          1.3336   -0.3782    0.6109 C.2       1 <0>        -0.0703
     13 C10         0.0021   -0.0041    0.0020 C.3       1 <0>        -0.0877
     14 C11        -0.0189    1.5412    0.0105 C.3       1 <0>        -0.1221
     15 C12         1.4889    1.8796   -0.0021 C.3       1 <0>        -0.0836
     16 C13         1.6722   -1.7140    1.1335 C.ar      1 <0>        -0.0531
     17 C14         2.6650   -2.4785    0.5148 C.ar      1 <0>        -0.0729
     18 C15         2.9815   -3.7248    1.0122 C.ar      1 <0>        -0.1505
     19 C16         2.3087   -4.2249    2.1160 C.ar      1 <0>         0.1025
     20 C17         1.3190   -3.4738    2.7306 C.ar      1 <0>        -0.1515
     21 C18         0.9977   -2.2235    2.2464 C.ar      1 <0>        -0.0764
     22 F1          2.6191   -5.4494    2.5952 F         1 <0>        -0.1375
     23 H1          7.4240    2.6619    3.9235 H         1 <0>         0.1314
     24 H2          9.1479    2.4000    3.5660 H         1 <0>         0.1335
     25 H3          8.0469    2.9540    2.2819 H         1 <0>         0.1315
     26 H4          6.7451    0.9747    0.0876 H         1 <0>         0.1437
     27 H5          4.4487    1.0052   -0.7918 H         1 <0>         0.1339
     28 H6          2.9463    0.3112    3.1678 H         1 <0>         0.1317
     29 H7          5.2519    0.2742    4.0227 H         1 <0>         0.1430
     30 H8         -0.8151   -0.3976    0.6065 H         1 <0>         0.0772
     31 H9         -0.0683   -0.3785   -1.0192 H         1 <0>         0.0829
     32 H10        -0.5128    1.9291   -0.8803 H         1 <0>         0.0790
     33 H11        -0.4957    1.9195    0.9147 H         1 <0>         0.0746
     34 H12         1.8351    2.0304   -1.0246 H         1 <0>         0.0813
     35 H13         1.6832    2.7675    0.5996 H         1 <0>         0.0755
     36 H14         3.1863   -2.0920   -0.3485 H         1 <0>         0.1310
     37 H15         3.7521   -4.3145    0.5380 H         1 <0>         0.1379
     38 H16         0.7988   -3.8686    3.5908 H         1 <0>         0.1384
     39 H17         0.2267   -1.6391    2.7263 H         1 <0>         0.1343
@<TRIPOS>BOND
     1    1    2 1
     2    1   23 1
     3    1   24 1
     4    1   25 1
     5    2    3 2
     6    2    4 2
     7    2    5 1
     8    5   10 ar
     9    5    6 ar
    10    6    7 ar
    11    6   26 1
    12    7    8 ar
    13    7   27 1
    14    8    9 ar
    15    8   11 1
    16    9   10 ar
    17    9   28 1
    18   10   29 1
    19   11   15 1
    20   11   12 2
    21   12   13 1
    22   12   16 1
    23   13   14 1
    24   13   30 1
    25   13   31 1
    26   14   15 1
    27   14   32 1
    28   14   33 1
    29   15   34 1
    30   15   35 1
    31   16   21 ar
    32   16   17 ar
    33   17   18 ar
    34   17   36 1
    35   18   19 ar
    36   18   37 1
    37   19   20 ar
    38   19   22 1
    39   20   21 ar
    40   20   38 1
    41   21   39 1
@<TRIPOS>MOLECULE
ZINC00020206
   35    37     0     0     0
SMALL
USER_CHARGES

@<TRIPOS>ATOM
      1 C1          2.4901    3.1605   -2.2427 C.ar      1 <0>        -0.0747
      2 C2          2.6063    4.2479   -3.0834 C.ar      1 <0>        -0.1498
      3 C3          3.8522    4.7963   -3.3426 C.ar      1 <0>         0.1208
      4 C4          4.9866    4.2595   -2.7551 C.ar      1 <0>        -0.1497
      5 C5          4.8807    3.1752   -1.9092 C.ar      1 <0>        -0.0520
      6 C6          3.6286    2.6192   -1.6449 C.ar      1 <0>        -0.0608
      7 C7          3.5093    1.4558   -0.7387 C.2       1 <0>         0.1422
      8 C8          4.4733    0.5240   -0.4939 C.2       1 <0>        -0.1948
      9 C9          3.9471   -0.4096    0.4200 C.2       1 <0>         0.1595
     10 N1          2.7130   -0.0470    0.7173 N.2       1 <0>        -0.2207
     11 N2          2.4131    1.1224    0.0073 N.pl3     1 <0>        -0.3177
     12 C10         1.2018    1.8233    0.0495 C.ar      1 <0>         0.1993
     13 C11        -0.0028    1.1362   -0.0254 C.ar      1 <0>        -0.1236
     14 C12        -1.1958    1.8310    0.0108 C.ar      1 <0>         0.0017
     15 C13        -1.1920    3.2086    0.1320 C.ar      1 <0>        -0.6728
     16 C14         0.0057    3.8957    0.2067 C.ar      1 <0>        -0.0001
     17 C15         1.2023    3.2073    0.1658 C.ar      1 <0>        -0.1347
     18 S1         -2.7164    4.0907    0.1839 S.o2      1 <0>         2.7023
     19 O1         -3.6999    3.1751    0.6459 O.2       1 <0>        -0.9565
     20 O2         -2.4513    5.3211    0.8435 O.2       1 <0>        -0.9565
     21 N3         -3.1173    4.4679   -1.3780 N.pl3     1 <0>        -1.2485
     22 C16         4.6329   -1.5551    0.9377 C.1       1 <0>         0.2875
     23 N4          5.1769   -2.4639    1.3484 N.1       1 <0>        -0.3673
     24 F1          3.9613    5.8578   -4.1711 F         1 <0>        -0.1312
     25 H1          1.5192    2.7310   -2.0450 H         1 <0>         0.1351
     26 H2          1.7252    4.6700   -3.5437 H         1 <0>         0.1443
     27 H3          5.9553    4.6906   -2.9603 H         1 <0>         0.1468
     28 H4          5.7655    2.7571   -1.4524 H         1 <0>         0.1455
     29 H5          5.4625    0.5026   -0.9269 H         1 <0>         0.1743
     30 H6         -0.0066    0.0600   -0.1162 H         1 <0>         0.1490
     31 H7         -2.1328    1.2976   -0.0518 H         1 <0>         0.1577
     32 H8          0.0054    4.9720    0.2968 H         1 <0>         0.1581
     33 H9          2.1374    3.7446    0.2239 H         1 <0>         0.1467
     34 H10        -2.5369    4.1972   -2.1065 H         1 <0>         0.4169
     35 H11        -3.9325    4.9594   -1.5642 H         1 <0>         0.4237
@<TRIPOS>BOND
     1    1    6 ar
     2    1    2 ar
     3    1   25 1
     4    2    3 ar
     5    2   26 1
     6    3    4 ar
     7    3   24 1
     8    4    5 ar
     9    4   27 1
    10    5    6 ar
    11    5   28 1
    12    6    7 1
    13    7   11 1
    14    7    8 2
    15    8    9 1
    16    8   29 1
    17    9   10 2
    18    9   22 1
    19   10   11 1
    20   11   12 1
    21   12   17 ar
    22   12   13 ar
    23   13   14 ar
    24   13   30 1
    25   14   15 ar
    26   14   31 1
    27   15   16 ar
    28   15   18 1
    29   16   17 ar
    30   16   32 1
    31   17   33 1
    32   18   19 2
    33   18   20 2
    34   18   21 1
    35   21   34 1
    36   21   35 1
    37   22   23 3
@<TRIPOS>MOLECULE
ZINC00020207
   37    39     0     0     0
SMALL
USER_CHARGES

@<TRIPOS>ATOM
      1 C1          3.8742    4.7896   -3.3409 C.ar      1 <0>        -0.1024
      2 C2          5.0033    4.2489   -2.7521 C.ar      1 <0>        -0.1158
      3 C3          4.8918    3.1652   -1.9055 C.ar      1 <0>        -0.0849
      4 C4          3.6367    2.6147   -1.6436 C.ar      1 <0>        -0.0467
      5 C5          2.5025    3.1613   -2.2447 C.ar      1 <0>        -0.1063
      6 C6          2.6269    4.2483   -3.0853 C.ar      1 <0>        -0.1158
      7 C7          3.5099    1.4524   -0.7373 C.2       1 <0>         0.1341
      8 C8          4.4707    0.5143   -0.4837 C.2       1 <0>        -0.2226
      9 C9          3.9412   -0.4069    0.4206 C.2       1 <0>         0.0420
     10 N1          2.7159   -0.0496    0.7129 N.2       1 <0>        -0.2524
     11 N2          2.4121    1.1195    0.0036 N.pl3     1 <0>        -0.3314
     12 C10         1.1985    1.8181    0.0427 C.ar      1 <0>         0.2084
     13 C11        -0.0042    1.1284   -0.0352 C.ar      1 <0>        -0.1285
     14 C12        -1.1989    1.8206   -0.0027 C.ar      1 <0>         0.0012
     15 C13        -1.1984    3.1981    0.1185 C.ar      1 <0>        -0.6767
     16 C14        -0.0024    3.8878    0.1968 C.ar      1 <0>        -0.0005
     17 C15         1.1957    3.2019    0.1590 C.ar      1 <0>        -0.1363
     18 S1         -2.7249    4.0770    0.1659 S.o2      1 <0>         2.7034
     19 O1         -3.7078    3.1592    0.6250 O.2       1 <0>        -0.9578
     20 O2         -2.4644    5.3079    0.8263 O.2       1 <0>        -0.9580
     21 N3         -3.1220    4.4532   -1.3971 N.pl3     1 <0>        -1.2489
     22 C16         4.6599   -1.6123    0.9697 C.3       1 <0>         0.1487
     23 F1          4.4315   -2.7116    0.1351 F         1 <0>        -0.2013
     24 H1          3.9668    5.6381   -4.0026 H         1 <0>         0.1292
     25 H2          5.9742    4.6762   -2.9554 H         1 <0>         0.1320
     26 H3          5.7739    2.7442   -1.4462 H         1 <0>         0.1318
     27 H4          1.5287    2.7369   -2.0495 H         1 <0>         0.1230
     28 H5          1.7492    4.6750   -3.5480 H         1 <0>         0.1295
     29 H6          5.4622    0.4880   -0.9109 H         1 <0>         0.1630
     30 H7         -0.0052    0.0522   -0.1257 H         1 <0>         0.1460
     31 H8         -2.1345    1.2851   -0.0681 H         1 <0>         0.1560
     32 H9         -0.0053    4.9640    0.2873 H         1 <0>         0.1561
     33 H10         2.1295    3.7412    0.2195 H         1 <0>         0.1435
     34 H11        -2.5388    4.1839   -2.1239 H         1 <0>         0.4169
     35 H12        -3.9377    4.9430   -1.5858 H         1 <0>         0.4231
     36 H13         5.7295   -1.4076    1.0163 H         1 <0>         0.1034
     37 H14         4.2881   -1.8324    1.9704 H         1 <0>         0.0951
@<TRIPOS>BOND
     1    1    6 ar
     2    1    2 ar
     3    1   24 1
     4    2    3 ar
     5    2   25 1
     6    3    4 ar
     7    3   26 1
     8    4    5 ar
     9    4    7 1
    10    5    6 ar
    11    5   27 1
    12    6   28 1
    13    7   11 1
    14    7    8 2
    15    8    9 1
    16    8   29 1
    17    9   10 2
    18    9   22 1
    19   10   11 1
    20   11   12 1
    21   12   17 ar
    22   12   13 ar
    23   13   14 ar
    24   13   30 1
    25   14   15 ar
    26   14   31 1
    27   15   16 ar
    28   15   18 1
    29   16   17 ar
    30   16   32 1
    31   17   33 1
    32   18   19 2
    33   18   20 2
    34   18   21 1
    35   21   34 1
    36   21   35 1
    37   22   23 1
    38   22   36 1
    39   22   37 1
@<TRIPOS>MOLECULE
ZINC00021008
   37    39     0     0     0
SMALL
USER_CHARGES

@<TRIPOS>ATOM
      1 C1         -5.9276    2.5484    7.0119 C.3       1 <0>        -0.0660
      2 C2         -4.5208    2.8599    6.5703 C.2       1 <0>         0.0936
      3 N1         -3.9822    2.7026    5.3860 N.2       1 <0>        -0.4966
      4 C3         -2.7212    3.0198    5.1480 C.2       1 <0>         0.0998
      5 C4         -1.9839    3.5423    6.2078 C.2       1 <0>        -0.1343
      6 S1         -3.2151    3.5225    7.5027 S.3       1 <0>         0.0821
      7 C5         -0.5767    3.9878    6.2498 C.ar      1 <0>        -0.0241
      8 C6          0.4311    3.1770    5.7234 C.ar      1 <0>        -0.0575
      9 C7          1.7430    3.6007    5.7607 C.ar      1 <0>        -0.1479
     10 C8          2.0633    4.8234    6.3290 C.ar      1 <0>         0.1151
     11 C9          1.0679    5.6298    6.8576 C.ar      1 <0>        -0.1498
     12 C10        -0.2480    5.2190    6.8212 C.ar      1 <0>        -0.0690
     13 F1          3.3507    5.2310    6.3674 F         1 <0>        -0.1330
     14 C11        -2.1189    2.8328    3.8078 C.ar      1 <0>         0.0366
     15 C12        -2.3719    1.6685    3.0826 C.ar      1 <0>        -0.1083
     16 C13        -1.8076    1.4999    1.8349 C.ar      1 <0>        -0.0234
     17 C14        -0.9921    2.4828    1.3029 C.ar      1 <0>        -0.6554
     18 C15        -0.7328    3.6373    2.0197 C.ar      1 <0>        -0.0222
     19 C16        -1.2959    3.8200    3.2661 C.ar      1 <0>        -0.1175
     20 S2         -0.2751    2.2601   -0.2912 S.o2      1 <0>         2.4988
     21 O1         -0.1976    0.8513   -0.4603 O.2       1 <0>        -0.9361
     22 O2          0.9037    3.0534   -0.2726 O.2       1 <0>        -0.9357
     23 C17        -1.4829    2.9627   -1.4479 C.3       1 <0>        -0.6504
     24 H1         -6.0431    2.8053    8.0649 H         1 <0>         0.0887
     25 H2         -6.6322    3.1292    6.4168 H         1 <0>         0.0959
     26 H3         -6.1249    1.4854    6.8735 H         1 <0>         0.0963
     27 H4          0.1833    2.2218    5.2846 H         1 <0>         0.1352
     28 H5          2.5228    2.9763    5.3502 H         1 <0>         0.1442
     29 H6          1.3233    6.5817    7.2993 H         1 <0>         0.1435
     30 H7         -1.0229    5.8479    7.2341 H         1 <0>         0.1369
     31 H8         -3.0081    0.9004    3.4971 H         1 <0>         0.1366
     32 H9         -2.0031    0.5990    1.2723 H         1 <0>         0.1462
     33 H10        -0.0919    4.3991    1.6010 H         1 <0>         0.1462
     34 H11        -1.0963    4.7236    3.8228 H         1 <0>         0.1336
     35 H12        -2.4291    2.4299   -1.3534 H         1 <0>         0.1321
     36 H13        -1.6352    4.0173   -1.2181 H         1 <0>         0.1319
     37 H14        -1.1102    2.8632   -2.4673 H         1 <0>         0.1339
@<TRIPOS>BOND
     1    1    2 1
     2    1   24 1
     3    1   25 1
     4    1   26 1
     5    2    6 1
     6    2    3 2
     7    3    4 1
     8    4    5 2
     9    4   14 1
    10    5    6 1
    11    5    7 1
    12    7   12 ar
    13    7    8 ar
    14    8    9 ar
    15    8   27 1
    16    9   10 ar
    17    9   28 1
    18   10   11 ar
    19   10   13 1
    20   11   12 ar
    21   11   29 1
    22   12   30 1
    23   14   19 ar
    24   14   15 ar
    25   15   16 ar
    26   15   31 1
    27   16   17 ar
    28   16   32 1
    29   17   18 ar
    30   17   20 1
    31   18   19 ar
    32   18   33 1
    33   19   34 1
    34   20   21 2
    35   20   22 2
    36   20   23 1
    37   23   35 1
    38   23   36 1
    39   23   37 1
@<TRIPOS>MOLECULE
ZINC00021204
   40    42     0     0     0
SMALL
USER_CHARGES

@<TRIPOS>ATOM
      1 C1         -0.8799    2.6912    4.7354 C.3       1 <0>        -0.0868
      2 C2         -1.0815    2.2670    3.3035 C.2       1 <0>        -0.1061
      3 C3         -2.2929    2.2399    2.6082 C.2       1 <0>        -0.1767
      4 C4         -2.0411    1.8039    1.3494 C.2       1 <0>         0.0542
      5 N1         -0.7157    1.5466    1.2308 N.pl3     1 <0>        -0.4105
      6 C5         -0.1032    1.8311    2.4307 C.2       1 <0>        -0.0668
      7 C6          1.3247    1.6955    2.7279 C.2       1 <0>         0.4769
      8 O1          2.0914    2.6016    2.4575 O.2       1 <0>        -0.4281
      9 C7          1.8347    0.4584    3.3562 C.ar      1 <0>        -0.1601
     10 C8          0.9787   -0.6244    3.5685 C.ar      1 <0>        -0.0471
     11 C9          1.4617   -1.7779    4.1493 C.ar      1 <0>        -0.1241
     12 C10         2.7903   -1.8597    4.5328 C.ar      1 <0>        -0.0038
     13 C11         3.6428   -0.7867    4.3305 C.ar      1 <0>        -0.1235
     14 C12         3.1730    0.3698    3.7450 C.ar      1 <0>        -0.0475
     15 Cl1         3.3895   -3.3129    5.2695 Cl        1 <0>        -0.0586
     16 C13        -0.0455    1.0539    0.0249 C.3       1 <0>         0.0666
     17 C14        -3.0683    1.6297    0.2606 C.3       1 <0>         0.0086
     18 C15        -3.2781    2.9437   -0.4469 C.ar      1 <0>         0.0041
     19 C16        -4.1925    3.0251   -1.5101 C.ar      1 <0>        -0.0566
     20 C17        -4.3633    4.2319   -2.1269 C.ar      1 <0>        -0.2530
     21 C18        -3.6065    5.3258   -1.6545 C.ar      1 <0>         0.3139
     22 O2         -3.7225    6.4253   -2.1717 O.3       1 <0>        -0.3898
     23 N2         -2.7512    5.1424   -0.6306 N.ar      1 <0>        -0.2937
     24 H1         -4.3956    6.3771   -2.9097 H         1 <0>         0.4260
     25 N3         -2.6095    3.9972   -0.0678 N.ar      1 <0>        -0.1681
     26 H2         -0.7623    3.7739    4.7805 H         1 <0>         0.0677
     27 H3         -1.7457    2.3947    5.3275 H         1 <0>         0.0689
     28 H4          0.0142    2.2117    5.1339 H         1 <0>         0.0559
     29 H5         -3.2583    2.5213    3.0022 H         1 <0>         0.1376
     30 H6         -0.0584   -0.5602    3.2739 H         1 <0>         0.1422
     31 H7          0.8020   -2.6178    4.3092 H         1 <0>         0.1414
     32 H8          4.6777   -0.8564    4.6316 H         1 <0>         0.1423
     33 H9          3.8388    1.2055    3.5871 H         1 <0>         0.1446
     34 H10        -0.0353   -0.0360    0.0345 H         1 <0>         0.0787
     35 H11         0.9785    1.4266    0.0004 H         1 <0>         0.0823
     36 H12        -0.5810    1.4045   -0.8573 H         1 <0>         0.0852
     37 H13        -2.7179    0.8845   -0.4536 H         1 <0>         0.0902
     38 H14        -4.0097    1.2986    0.6988 H         1 <0>         0.1092
     39 H15        -4.7465    2.1555   -1.8318 H         1 <0>         0.1495
     40 H16        -5.0605    4.3472   -2.9436 H         1 <0>         0.1547
@<TRIPOS>BOND
     1    1    2 1
     2    1   26 1
     3    1   27 1
     4    1   28 1
     5    2    6 2
     6    2    3 1
     7    3    4 2
     8    3   29 1
     9    4    5 1
    10    4   17 1
    11    5    6 1
    12    5   16 1
    13    6    7 1
    14    7    8 2
    15    7    9 1
    16    9   14 ar
    17    9   10 ar
    18   10   11 ar
    19   10   30 1
    20   11   12 ar
    21   11   31 1
    22   12   13 ar
    23   12   15 1
    24   13   14 ar
    25   13   32 1
    26   14   33 1
    27   16   34 1
    28   16   35 1
    29   16   36 1
    30   17   18 1
    31   17   37 1
    32   17   38 1
    33   18   19 ar
    34   18   25 ar
    35   19   39 1
    36   19   20 ar
    37   20   40 1
    38   20   21 ar
    39   21   23 ar
    40   21   22 1
    41   22   24 1
    42   23   25 ar
@<TRIPOS>MOLECULE
ZINC00021204
   40    42     0     0     0
SMALL
USER_CHARGES

@<TRIPOS>ATOM
      1 C1         -0.8799    2.6912    4.7354 C.3       1 <0>        -0.0868
      2 C2         -1.0815    2.2670    3.3035 C.2       1 <0>        -0.1061
      3 C3         -2.2929    2.2399    2.6082 C.2       1 <0>        -0.1767
      4 C4         -2.0411    1.8039    1.3494 C.2       1 <0>         0.0542
      5 N1         -0.7157    1.5466    1.2308 N.pl3     1 <0>        -0.4105
      6 C5         -0.1032    1.8311    2.4307 C.2       1 <0>        -0.0668
      7 C6          1.3247    1.6955    2.7279 C.2       1 <0>         0.4769
      8 O1          2.0914    2.6016    2.4575 O.2       1 <0>        -0.4281
      9 C7          1.8347    0.4584    3.3562 C.ar      1 <0>        -0.1601
     10 C8          0.9787   -0.6244    3.5685 C.ar      1 <0>        -0.0471
     11 C9          1.4617   -1.7779    4.1493 C.ar      1 <0>        -0.1241
     12 C10         2.7903   -1.8597    4.5328 C.ar      1 <0>        -0.0038
     13 C11         3.6428   -0.7867    4.3305 C.ar      1 <0>        -0.1235
     14 C12         3.1730    0.3698    3.7450 C.ar      1 <0>        -0.0475
     15 Cl1         3.3895   -3.3129    5.2695 Cl        1 <0>        -0.0586
     16 C13        -0.0455    1.0539    0.0249 C.3       1 <0>         0.0666
     17 C14        -3.0683    1.6297    0.2606 C.3       1 <0>         0.0086
     18 C15        -3.2781    2.9437   -0.4469 C.ar      1 <0>         0.0041
     19 C16        -4.1925    3.0251   -1.5101 C.ar      1 <0>        -0.0566
     20 C17        -4.3633    4.2319   -2.1269 C.ar      1 <0>        -0.2530
     21 C18        -3.6065    5.3258   -1.6545 C.ar      1 <0>         0.3139
     22 O2         -3.7225    6.4253   -2.1717 O.3       1 <0>        -0.3898
     23 N2         -2.7512    5.1424   -0.6306 N.ar      1 <0>        -0.2937
     24 H1         -4.3956    6.3771   -2.9097 H         1 <0>         0.4260
     25 N3         -2.6095    3.9972   -0.0678 N.ar      1 <0>        -0.1681
     26 H2         -0.7623    3.7739    4.7805 H         1 <0>         0.0677
     27 H3         -1.7457    2.3947    5.3275 H         1 <0>         0.0689
     28 H4          0.0142    2.2117    5.1339 H         1 <0>         0.0559
     29 H5         -3.2583    2.5213    3.0022 H         1 <0>         0.1376
     30 H6         -0.0584   -0.5602    3.2739 H         1 <0>         0.1422
     31 H7          0.8020   -2.6178    4.3092 H         1 <0>         0.1414
     32 H8          4.6777   -0.8564    4.6316 H         1 <0>         0.1423
     33 H9          3.8388    1.2055    3.5871 H         1 <0>         0.1446
     34 H10        -0.0353   -0.0360    0.0345 H         1 <0>         0.0787
     35 H11         0.9785    1.4266    0.0004 H         1 <0>         0.0823
     36 H12        -0.5810    1.4045   -0.8573 H         1 <0>         0.0852
     37 H13        -2.7179    0.8845   -0.4536 H         1 <0>         0.0902
     38 H14        -4.0097    1.2986    0.6988 H         1 <0>         0.1092
     39 H15        -4.7465    2.1555   -1.8318 H         1 <0>         0.1495
     40 H16        -5.0605    4.3472   -2.9436 H         1 <0>         0.1547
@<TRIPOS>BOND
     1    1    2 1
     2    1   26 1
     3    1   27 1
     4    1   28 1
     5    2    6 2
     6    2    3 1
     7    3    4 2
     8    3   29 1
     9    4    5 1
    10    4   17 1
    11    5    6 1
    12    5   16 1
    13    6    7 1
    14    7    8 2
    15    7    9 1
    16    9   14 ar
    17    9   10 ar
    18   10   11 ar
    19   10   30 1
    20   11   12 ar
    21   11   31 1
    22   12   13 ar
    23   12   15 1
    24   13   14 ar
    25   13   32 1
    26   14   33 1
    27   16   34 1
    28   16   35 1
    29   16   36 1
    30   17   18 1
    31   17   37 1
    32   17   38 1
    33   18   19 ar
    34   18   25 ar
    35   19   39 1
    36   19   20 ar
    37   20   40 1
    38   20   21 ar
    39   21   23 ar
    40   21   22 1
    41   22   24 1
    42   23   25 ar
@<TRIPOS>MOLECULE
ZINC00021204
   40    42     0     0     0
SMALL
USER_CHARGES

@<TRIPOS>ATOM
      1 C1         -0.8799    2.6912    4.7354 C.3       1 <0>        -0.0868
      2 C2         -1.0815    2.2670    3.3035 C.2       1 <0>        -0.1061
      3 C3         -2.2929    2.2399    2.6082 C.2       1 <0>        -0.1767
      4 C4         -2.0411    1.8039    1.3494 C.2       1 <0>         0.0542
      5 N1         -0.7157    1.5466    1.2308 N.pl3     1 <0>        -0.4105
      6 C5         -0.1032    1.8311    2.4307 C.2       1 <0>        -0.0668
      7 C6          1.3247    1.6955    2.7279 C.2       1 <0>         0.4769
      8 O1          2.0914    2.6016    2.4575 O.2       1 <0>        -0.4281
      9 C7          1.8347    0.4584    3.3562 C.ar      1 <0>        -0.1601
     10 C8          0.9787   -0.6244    3.5685 C.ar      1 <0>        -0.0471
     11 C9          1.4617   -1.7779    4.1493 C.ar      1 <0>        -0.1241
     12 C10         2.7903   -1.8597    4.5328 C.ar      1 <0>        -0.0038
     13 C11         3.6428   -0.7867    4.3305 C.ar      1 <0>        -0.1235
     14 C12         3.1730    0.3698    3.7450 C.ar      1 <0>        -0.0475
     15 Cl1         3.3895   -3.3129    5.2695 Cl        1 <0>        -0.0586
     16 C13        -0.0455    1.0539    0.0249 C.3       1 <0>         0.0666
     17 C14        -3.0683    1.6297    0.2606 C.3       1 <0>         0.0086
     18 C15        -3.2781    2.9437   -0.4469 C.ar      1 <0>         0.0041
     19 C16        -4.1925    3.0251   -1.5101 C.ar      1 <0>        -0.0566
     20 C17        -4.3633    4.2319   -2.1269 C.ar      1 <0>        -0.2530
     21 C18        -3.6065    5.3258   -1.6545 C.ar      1 <0>         0.3139
     22 O2         -3.7225    6.4253   -2.1717 O.3       1 <0>        -0.3898
     23 N2         -2.7512    5.1424   -0.6306 N.ar      1 <0>        -0.2937
     24 H1         -4.3956    6.3771   -2.9097 H         1 <0>         0.4260
     25 N3         -2.6095    3.9972   -0.0678 N.ar      1 <0>        -0.1681
     26 H2         -0.7623    3.7739    4.7805 H         1 <0>         0.0677
     27 H3         -1.7457    2.3947    5.3275 H         1 <0>         0.0689
     28 H4          0.0142    2.2117    5.1339 H         1 <0>         0.0559
     29 H5         -3.2583    2.5213    3.0022 H         1 <0>         0.1376
     30 H6         -0.0584   -0.5602    3.2739 H         1 <0>         0.1422
     31 H7          0.8020   -2.6178    4.3092 H         1 <0>         0.1414
     32 H8          4.6777   -0.8564    4.6316 H         1 <0>         0.1423
     33 H9          3.8388    1.2055    3.5871 H         1 <0>         0.1446
     34 H10        -0.0353   -0.0360    0.0345 H         1 <0>         0.0787
     35 H11         0.9785    1.4266    0.0004 H         1 <0>         0.0823
     36 H12        -0.5810    1.4045   -0.8573 H         1 <0>         0.0852
     37 H13        -2.7179    0.8845   -0.4536 H         1 <0>         0.0902
     38 H14        -4.0097    1.2986    0.6988 H         1 <0>         0.1092
     39 H15        -4.7465    2.1555   -1.8318 H         1 <0>         0.1495
     40 H16        -5.0605    4.3472   -2.9436 H         1 <0>         0.1547
@<TRIPOS>BOND
     1    1    2 1
     2    1   26 1
     3    1   27 1
     4    1   28 1
     5    2    6 2
     6    2    3 1
     7    3    4 2
     8    3   29 1
     9    4    5 1
    10    4   17 1
    11    5    6 1
    12    5   16 1
    13    6    7 1
    14    7    8 2
    15    7    9 1
    16    9   14 ar
    17    9   10 ar
    18   10   11 ar
    19   10   30 1
    20   11   12 ar
    21   11   31 1
    22   12   13 ar
    23   12   15 1
    24   13   14 ar
    25   13   32 1
    26   14   33 1
    27   16   34 1
    28   16   35 1
    29   16   36 1
    30   17   18 1
    31   17   37 1
    32   17   38 1
    33   18   19 ar
    34   18   25 ar
    35   19   39 1
    36   19   20 ar
    37   20   40 1
    38   20   21 ar
    39   21   23 ar
    40   21   22 1
    41   22   24 1
    42   23   25 ar
@<TRIPOS>MOLECULE
ZINC00021455
   37    39     0     0     0
SMALL
USER_CHARGES

@<TRIPOS>ATOM
      1 C1         -5.0761    7.1216    2.1332 C.ar      1 <0>        -0.1039
      2 C2         -5.0552    5.7809    1.7933 C.ar      1 <0>        -0.1185
      3 C3         -4.7178    4.8322    2.7372 C.ar      1 <0>        -0.0895
      4 C4         -4.3979    5.2272    4.0348 C.ar      1 <0>        -0.0261
      5 C5         -4.4263    6.5788    4.3732 C.ar      1 <0>        -0.0881
      6 C6         -4.7591    7.5193    3.4196 C.ar      1 <0>        -0.1177
      7 C7         -4.0345    4.2121    5.0537 C.2       1 <0>         0.0750
      8 C8         -3.1903    3.0171    4.8664 C.2       1 <0>        -0.1496
      9 C9         -3.1822    2.4491    6.1083 C.2       1 <0>        -0.0063
     10 O1         -3.9357    3.2303    6.8924 O.3       1 <0>         0.1138
     11 N1         -4.3969    4.1829    6.3123 N.2       1 <0>        -0.3337
     12 C10        -2.4651    1.1881    6.5167 C.3       1 <0>         0.1567
     13 O2         -1.1496    1.5137    6.9699 O.3       1 <0>        -0.5612
     14 C11        -2.5112    2.5502    3.6329 C.ar      1 <0>         0.0518
     15 C12        -2.9043    1.3588    3.0263 C.ar      1 <0>        -0.1298
     16 C13        -2.2687    0.9290    1.8791 C.ar      1 <0>        -0.0136
     17 C14        -1.2432    1.6785    1.3314 C.ar      1 <0>        -0.6726
     18 C15        -0.8453    2.8592    1.9323 C.ar      1 <0>        -0.0114
     19 C16        -1.4774    3.3012    3.0768 C.ar      1 <0>        -0.1130
     20 S1         -0.4358    1.1234   -0.1330 S.o2      1 <0>         2.7009
     21 O3         -0.6214   -0.2843   -0.1904 O.2       1 <0>        -0.9611
     22 O4          0.8526    1.7227   -0.1386 O.2       1 <0>        -0.9604
     23 N2         -1.2605    1.7623   -1.4191 N.pl3     1 <0>        -1.2494
     24 H1         -5.3407    7.8606    1.3914 H         1 <0>         0.1283
     25 H2         -5.3036    5.4759    0.7875 H         1 <0>         0.1296
     26 H3         -4.7014    3.7857    2.4706 H         1 <0>         0.1238
     27 H4         -4.1835    6.8900    5.3785 H         1 <0>         0.1265
     28 H5         -4.7763    8.5675    3.6793 H         1 <0>         0.1301
     29 H6         -3.0163    0.7009    7.3210 H         1 <0>         0.0799
     30 H7         -2.3987    0.5149    5.6620 H         1 <0>         0.0850
     31 H8         -0.6292    0.7481    7.2495 H         1 <0>         0.3950
     32 H9         -3.7052    0.7731    3.4529 H         1 <0>         0.1372
     33 H10        -2.5723    0.0057    1.4084 H         1 <0>         0.1489
     34 H11        -0.0412    3.4383    1.5027 H         1 <0>         0.1485
     35 H12        -1.1687    4.2253    3.5428 H         1 <0>         0.1358
     36 H13        -2.0345    2.3268   -1.2667 H         1 <0>         0.4170
     37 H14        -0.9697    1.5721   -2.3246 H         1 <0>         0.4222
@<TRIPOS>BOND
     1    1    6 ar
     2    1    2 ar
     3    1   24 1
     4    2    3 ar
     5    2   25 1
     6    3    4 ar
     7    3   26 1
     8    4    5 ar
     9    4    7 1
    10    5    6 ar
    11    5   27 1
    12    6   28 1
    13    7   11 2
    14    7    8 1
    15    8    9 2
    16    8   14 1
    17    9   10 1
    18    9   12 1
    19   10   11 1
    20   12   13 1
    21   12   29 1
    22   12   30 1
    23   13   31 1
    24   14   19 ar
    25   14   15 ar
    26   15   16 ar
    27   15   32 1
    28   16   17 ar
    29   16   33 1
    30   17   18 ar
    31   17   20 1
    32   18   19 ar
    33   18   34 1
    34   19   35 1
    35   20   21 2
    36   20   22 2
    37   20   23 1
    38   23   36 1
    39   23   37 1
@<TRIPOS>MOLECULE
ZINC00022442
   45    47     0     0     0
SMALL
USER_CHARGES

@<TRIPOS>ATOM
      1 C1         -4.6946    5.0224    7.4266 C.3       1 <0>        -0.1023
      2 C2         -3.8514    3.9800    6.7386 C.2       1 <0>         0.0362
      3 C3         -3.8671    2.6547    6.9984 C.2       1 <0>        -0.1978
      4 C4         -2.9429    2.0402    6.1379 C.2       1 <0>        -0.1580
      5 C5         -2.3801    3.0217    5.3790 C.2       1 <0>         0.0251
      6 N1         -2.9443    4.2156    5.7487 N.pl3     1 <0>        -0.4283
      7 C6         -2.6259    5.5255    5.1752 C.3       1 <0>         0.1271
      8 C7         -2.5302    6.5631    6.2955 C.3       1 <0>        -0.1470
      9 C8         -2.1976    7.9312    5.6965 C.3       1 <0>        -0.1435
     10 C9         -3.2984    8.3398    4.7157 C.3       1 <0>         0.0904
     11 C10        -3.3942    7.3022    3.5954 C.3       1 <0>        -0.1448
     12 C11        -3.7267    5.9341    4.1943 C.3       1 <0>        -0.1290
     13 F1         -2.9943    9.5907    4.1680 F         1 <0>        -0.2100
     14 C12        -1.3483    2.8323    4.3369 C.ar      1 <0>         0.0454
     15 C13        -0.2808    1.9608    4.5578 C.ar      1 <0>        -0.1224
     16 C14         0.6788    1.7890    3.5816 C.ar      1 <0>        -0.0167
     17 C15         0.5846    2.4784    2.3857 C.ar      1 <0>        -0.6639
     18 C16        -0.4681    3.3481    2.1627 C.ar      1 <0>        -0.0178
     19 C17        -1.4374    3.5247    3.1284 C.ar      1 <0>        -0.1453
     20 S1          1.8144    2.2532    1.1442 S.o2      1 <0>         2.4998
     21 O1          2.9799    1.8597    1.8555 O.2       1 <0>        -0.9365
     22 O2          1.7967    3.4595    0.3933 O.2       1 <0>        -0.9374
     23 C18         1.2068    0.8772    0.1303 C.3       1 <0>        -0.6501
     24 H1         -5.4352    5.4103    6.7272 H         1 <0>         0.0695
     25 H2         -5.2017    4.5736    8.2808 H         1 <0>         0.0830
     26 H3         -4.0570    5.8371    7.7696 H         1 <0>         0.0821
     27 H4         -4.4830    2.1566    7.7326 H         1 <0>         0.1395
     28 H5         -2.7179    0.9850    6.0888 H         1 <0>         0.1395
     29 H6         -1.6729    5.4699    4.6491 H         1 <0>         0.1015
     30 H7         -3.4832    6.6188    6.8216 H         1 <0>         0.0993
     31 H8         -1.7459    6.2721    6.9943 H         1 <0>         0.0809
     32 H9         -1.2445    7.8755    5.1705 H         1 <0>         0.0788
     33 H10        -2.1294    8.6704    6.4947 H         1 <0>         0.0856
     34 H11        -4.2515    8.3954    5.2418 H         1 <0>         0.0856
     35 H12        -2.4411    7.2465    3.0693 H         1 <0>         0.0803
     36 H13        -4.1784    7.5932    2.8966 H         1 <0>         0.0856
     37 H14        -3.7949    5.1949    3.3962 H         1 <0>         0.0789
     38 H15        -4.6798    5.9898    4.7204 H         1 <0>         0.0787
     39 H16        -0.2063    1.4218    5.4907 H         1 <0>         0.1386
     40 H17         1.5052    1.1146    3.7511 H         1 <0>         0.1465
     41 H18        -0.5335    3.8866    1.2288 H         1 <0>         0.1443
     42 H19        -2.2610    4.2005    2.9514 H         1 <0>         0.1311
     43 H20         1.0947   -0.0107    0.7525 H         1 <0>         0.1321
     44 H21         0.2418    1.1425   -0.3015 H         1 <0>         0.1315
     45 H22         1.9188    0.6730   -0.6693 H         1 <0>         0.1338
@<TRIPOS>BOND
     1    1    2 1
     2    1   24 1
     3    1   25 1
     4    1   26 1
     5    2    6 1
     6    2    3 2
     7    3    4 1
     8    3   27 1
     9    4    5 2
    10    4   28 1
    11    5    6 1
    12    5   14 1
    13    6    7 1
    14    7   12 1
    15    7    8 1
    16    7   29 1
    17    8    9 1
    18    8   30 1
    19    8   31 1
    20    9   10 1
    21    9   32 1
    22    9   33 1
    23   10   11 1
    24   10   13 1
    25   10   34 1
    26   11   12 1
    27   11   35 1
    28   11   36 1
    29   12   37 1
    30   12   38 1
    31   14   19 ar
    32   14   15 ar
    33   15   16 ar
    34   15   39 1
    35   16   17 ar
    36   16   40 1
    37   17   18 ar
    38   17   20 1
    39   18   19 ar
    40   18   41 1
    41   19   42 1
    42   20   21 2
    43   20   22 2
    44   20   23 1
    45   23   43 1
    46   23   44 1
    47   23   45 1
@<TRIPOS>MOLECULE
ZINC00022443
   35    37     0     0     0
SMALL
USER_CHARGES

@<TRIPOS>ATOM
      1 C1         -0.0207    1.1085    0.2865 C.2       1 <0>        -0.1847
      2 C2          1.1084    1.9251    0.1069 C.2       1 <0>        -0.1598
      3 C3          0.6621    3.1745   -0.2029 C.2       1 <0>         0.0536
      4 N1         -0.7108    3.1401   -0.2167 N.pl3     1 <0>        -0.4114
      5 C4         -1.1164    1.8701    0.0788 C.2       1 <0>         0.0039
      6 C5         -1.5538    4.2250   -0.4927 C.ar      1 <0>         0.1817
      7 C6         -1.4647    5.3854    0.2645 C.ar      1 <0>        -0.1328
      8 C7         -2.2933    6.4549   -0.0134 C.ar      1 <0>        -0.0019
      9 C8         -3.2182    6.3670   -1.0376 C.ar      1 <0>        -0.6762
     10 C9         -3.3132    5.2105   -1.7897 C.ar      1 <0>         0.0002
     11 C10        -2.4838    4.1396   -1.5201 C.ar      1 <0>        -0.1398
     12 S1         -4.2781    7.7311   -1.3846 S.o2      1 <0>         2.7026
     13 O1         -3.6199    8.8915   -0.8954 O.2       1 <0>        -0.9576
     14 O2         -4.6802    7.5982   -2.7410 O.2       1 <0>        -0.9581
     15 N2         -5.6420    7.5376   -0.4655 N.pl3     1 <0>        -1.2489
     16 C11         1.5059    4.3576   -0.4751 C.ar      1 <0>        -0.0315
     17 C12         2.8117    4.4141    0.0146 C.ar      1 <0>        -0.0708
     18 C13         3.5962    5.5182   -0.2464 C.ar      1 <0>        -0.1460
     19 C14         3.0865    6.5746   -0.9843 C.ar      1 <0>         0.1018
     20 C15         1.7890    6.5260   -1.4684 C.ar      1 <0>        -0.1454
     21 C16         0.9976    5.4245   -1.2178 C.ar      1 <0>        -0.0943
     22 F1          3.8573    7.6561   -1.2323 F         1 <0>        -0.1359
     23 H1         -0.0135    0.0588    0.5406 H         1 <0>         0.1473
     24 H2          2.1401    1.6187    0.1972 H         1 <0>         0.1466
     25 H3         -2.1405    1.5323    0.1386 H         1 <0>         0.1695
     26 H4         -0.7453    5.4532    1.0672 H         1 <0>         0.1428
     27 H5         -2.2216    7.3593    0.5725 H         1 <0>         0.1546
     28 H6         -4.0371    5.1445   -2.5885 H         1 <0>         0.1550
     29 H7         -2.5587    3.2365   -2.1076 H         1 <0>         0.1449
     30 H8         -5.7266    6.7698    0.1212 H         1 <0>         0.4172
     31 H9         -6.3563    8.1921   -0.5138 H         1 <0>         0.4232
     32 H10         3.2084    3.5933    0.5935 H         1 <0>         0.1401
     33 H11         4.6081    5.5612    0.1285 H         1 <0>         0.1420
     34 H12         1.3966    7.3522   -2.0426 H         1 <0>         0.1393
     35 H13        -0.0136    5.3877   -1.5952 H         1 <0>         0.1288
@<TRIPOS>BOND
     1    1    5 2
     2    1    2 1
     3    1   23 1
     4    2    3 2
     5    2   24 1
     6    3    4 1
     7    3   16 1
     8    4    5 1
     9    4    6 1
    10    5   25 1
    11    6   11 ar
    12    6    7 ar
    13    7    8 ar
    14    7   26 1
    15    8    9 ar
    16    8   27 1
    17    9   10 ar
    18    9   12 1
    19   10   11 ar
    20   10   28 1
    21   11   29 1
    22   12   13 2
    23   12   14 2
    24   12   15 1
    25   15   30 1
    26   15   31 1
    27   16   21 ar
    28   16   17 ar
    29   17   18 ar
    30   17   32 1
    31   18   19 ar
    32   18   33 1
    33   19   20 ar
    34   19   22 1
    35   20   21 ar
    36   20   34 1
    37   21   35 1
@<TRIPOS>MOLECULE
ZINC00022808
   42    44     0     0     0
SMALL
USER_CHARGES

@<TRIPOS>ATOM
      1 C1          7.9034    6.0908    0.6872 C.3       1 <0>        -0.6505
      2 S1          7.7510    4.4409   -0.0513 S.o2      1 <0>         2.4990
      3 O1          8.3221    3.4648    0.8092 O.2       1 <0>        -0.9373
      4 O2          8.1008    4.4866   -1.4279 O.2       1 <0>        -0.9372
      5 C2          6.0231    4.0966   -0.0377 C.ar      1 <0>        -0.6615
      6 C3          5.2399    4.4583   -1.1191 C.ar      1 <0>        -0.0208
      7 C4          3.8860    4.1907   -1.1141 C.ar      1 <0>        -0.1259
      8 C5          3.3080    3.5551   -0.0165 C.ar      1 <0>         0.0256
      9 C6          4.1010    3.1985    1.0730 C.ar      1 <0>        -0.1291
     10 C7          5.4549    3.4652    1.0541 C.ar      1 <0>        -0.0215
     11 C8          1.8538    3.2648   -0.0052 C.2       1 <0>        -0.0831
     12 C9          1.4245    1.9972   -0.0008 C.2       1 <0>        -0.0661
     13 C10        -0.0188    1.5386    0.0105 C.3       1 <0>        -0.0966
     14 C11         0.0021   -0.0041    0.0020 C.3       1 <0>        -0.1253
     15 C12         1.3857   -0.3504   -0.6043 C.3       1 <0>        -0.1240
     16 C13         2.2942    0.7526   -0.0068 C.3       1 <0>        -0.0986
     17 C14         0.8753    4.3790    0.0011 C.ar      1 <0>        -0.0449
     18 C15         0.0268    4.5705   -1.0882 C.ar      1 <0>        -0.0778
     19 C16        -0.8859    5.6050   -1.0754 C.ar      1 <0>        -0.1510
     20 C17        -0.9517    6.4602    0.0128 C.ar      1 <0>         0.0999
     21 C18        -0.1063    6.2772    1.0953 C.ar      1 <0>        -0.1510
     22 C19         0.8053    5.2417    1.0940 C.ar      1 <0>        -0.0760
     23 F1         -1.8431    7.4754    0.0186 F         1 <0>        -0.1384
     24 H1          7.5038    6.0733    1.7011 H         1 <0>         0.1314
     25 H2          8.9538    6.3805    0.7156 H         1 <0>         0.1334
     26 H3          7.3443    6.8098    0.0885 H         1 <0>         0.1315
     27 H4          5.6889    4.9507   -1.9690 H         1 <0>         0.1435
     28 H5          3.2757    4.4729   -1.9592 H         1 <0>         0.1328
     29 H6          3.6576    2.7099    1.9280 H         1 <0>         0.1332
     30 H7          6.0713    3.1844    1.8953 H         1 <0>         0.1437
     31 H8         -0.5344    1.9090   -0.8755 H         1 <0>         0.0792
     32 H9         -0.5174    1.8994    0.9101 H         1 <0>         0.0785
     33 H10        -0.0798   -0.3938    1.0167 H         1 <0>         0.0699
     34 H11        -0.7994   -0.3945   -0.6251 H         1 <0>         0.0712
     35 H12         1.7134   -1.3389   -0.2826 H         1 <0>         0.0731
     36 H13         1.3599   -0.2843   -1.6920 H         1 <0>         0.0706
     37 H14         2.5923    0.4916    1.0087 H         1 <0>         0.0847
     38 H15         3.1719    0.9046   -0.6350 H         1 <0>         0.0749
     39 H16         0.0804    3.9071   -1.9387 H         1 <0>         0.1332
     40 H17        -1.5472    5.7510   -1.9166 H         1 <0>         0.1378
     41 H18        -0.1613    6.9460    1.9415 H         1 <0>         0.1374
     42 H19         1.4633    5.0993    1.9384 H         1 <0>         0.1323
@<TRIPOS>BOND
     1    1    2 1
     2    1   24 1
     3    1   25 1
     4    1   26 1
     5    2    3 2
     6    2    4 2
     7    2    5 1
     8    5   10 ar
     9    5    6 ar
    10    6    7 ar
    11    6   27 1
    12    7    8 ar
    13    7   28 1
    14    8    9 ar
    15    8   11 1
    16    9   10 ar
    17    9   29 1
    18   10   30 1
    19   11   12 2
    20   11   17 1
    21   12   16 1
    22   12   13 1
    23   13   14 1
    24   13   31 1
    25   13   32 1
    26   14   15 1
    27   14   33 1
    28   14   34 1
    29   15   16 1
    30   15   35 1
    31   15   36 1
    32   16   37 1
    33   16   38 1
    34   17   22 ar
    35   17   18 ar
    36   18   19 ar
    37   18   39 1
    38   19   20 ar
    39   19   40 1
    40   20   21 ar
    41   20   23 1
    42   21   22 ar
    43   21   41 1
    44   22   42 1
@<TRIPOS>MOLECULE
ZINC00023049
   43    45     0     0     0
SMALL
USER_CHARGES

@<TRIPOS>ATOM
      1 C1         -2.4212    0.0418   -0.7095 C.3       1 <0>        -0.1220
      2 C2         -1.1332   -0.6663   -0.3764 C.ar      1 <0>        -0.0331
      3 C3         -0.0431    0.0536    0.0669 C.ar      1 <0>        -0.0697
      4 C4          1.1384   -0.5955    0.3782 C.ar      1 <0>        -0.0879
      5 C5          1.2373   -1.9693    0.2424 C.ar      1 <0>        -0.1212
      6 C6          0.1570   -2.7009   -0.2042 C.ar      1 <0>        -0.0818
      7 C7         -1.0390   -2.0521   -0.5203 C.ar      1 <0>        -0.1433
      8 C8         -2.2011   -2.8294   -0.9990 C.2       1 <0>         0.4499
      9 O1         -2.8597   -3.4839   -0.2140 O.2       1 <0>        -0.4417
     10 C9         -2.5620   -2.8112   -2.4289 C.ar      1 <0>        -0.2044
     11 C10        -1.7447   -2.1484   -3.3501 C.ar      1 <0>        -0.0217
     12 C11        -2.0828   -2.1381   -4.6844 C.ar      1 <0>        -0.2237
     13 C12        -3.2406   -2.7762   -5.1153 C.ar      1 <0>         0.1618
     14 C13        -4.0589   -3.4319   -4.2021 C.ar      1 <0>        -0.1654
     15 C14        -3.7256   -3.4517   -2.8667 C.ar      1 <0>        -0.0198
     16 O2         -3.5726   -2.7595   -6.4308 O.3       1 <0>        -0.3119
     17 C15        -2.6878   -2.0679   -7.3145 C.3       1 <0>         0.0238
     18 C16        -0.1414    1.5498    0.2184 C.3       1 <0>        -0.0214
     19 C17        -0.7334    1.8806    1.5642 C.ar      1 <0>         0.0093
     20 C18        -0.9223    3.2230    1.9320 C.ar      1 <0>        -0.0579
     21 C19        -1.4615    3.4891    3.1586 C.ar      1 <0>        -0.2527
     22 C20        -1.7860    2.3930    3.9869 C.ar      1 <0>         0.3130
     23 O3         -2.2658    2.5775    5.0941 O.3       1 <0>        -0.3901
     24 N1         -1.5655    1.1416    3.5408 N.ar      1 <0>        -0.2932
     25 H1         -2.3587    3.5597    5.2576 H         1 <0>         0.4257
     26 N2         -1.0667    0.9186    2.3790 N.ar      1 <0>        -0.1729
     27 H2         -2.4506    0.2592   -1.7772 H         1 <0>         0.0758
     28 H3         -3.2650   -0.5955   -0.4451 H         1 <0>         0.0658
     29 H4         -2.4794    0.9737   -0.1472 H         1 <0>         0.0689
     30 H5          1.9876   -0.0275    0.7284 H         1 <0>         0.1226
     31 H6          2.1626   -2.4697    0.4872 H         1 <0>         0.1274
     32 H7          0.2355   -3.7728   -0.3097 H         1 <0>         0.1249
     33 H8         -0.8474   -1.6490   -3.0157 H         1 <0>         0.1344
     34 H9         -1.4500   -1.6300   -5.3970 H         1 <0>         0.1353
     35 H10        -4.9575   -3.9260   -4.5410 H         1 <0>         0.1388
     36 H11        -4.3616   -3.9615   -2.1581 H         1 <0>         0.1416
     37 H12        -2.6207   -1.0217   -7.0160 H         1 <0>         0.0591
     38 H13        -1.6986   -2.5233   -7.2679 H         1 <0>         0.0594
     39 H14        -3.0693   -2.1312   -8.3336 H         1 <0>         0.1039
     40 H15         0.8532    1.9889    0.1410 H         1 <0>         0.0953
     41 H16        -0.7790    1.9535   -0.5682 H         1 <0>         0.0960
     42 H17        -0.6482    4.0245    1.2621 H         1 <0>         0.1489
     43 H18        -1.6263    4.5046    3.4871 H         1 <0>         0.1544
@<TRIPOS>BOND
     1    1    2 1
     2    1   27 1
     3    1   28 1
     4    1   29 1
     5    2    7 ar
     6    2    3 ar
     7    3    4 ar
     8    3   18 1
     9    4    5 ar
    10    4   30 1
    11    5    6 ar
    12    5   31 1
    13    6    7 ar
    14    6   32 1
    15    7    8 1
    16    8    9 2
    17    8   10 1
    18   10   15 ar
    19   10   11 ar
    20   11   12 ar
    21   11   33 1
    22   12   13 ar
    23   12   34 1
    24   13   14 ar
    25   13   16 1
    26   14   15 ar
    27   14   35 1
    28   15   36 1
    29   16   17 1
    30   17   37 1
    31   17   38 1
    32   17   39 1
    33   18   19 1
    34   18   40 1
    35   18   41 1
    36   19   20 ar
    37   19   26 ar
    38   20   42 1
    39   20   21 ar
    40   21   43 1
    41   21   22 ar
    42   22   24 ar
    43   22   23 1
    44   23   25 1
    45   24   26 ar
@<TRIPOS>MOLECULE
ZINC00023049
   43    45     0     0     0
SMALL
USER_CHARGES

@<TRIPOS>ATOM
      1 C1         -2.4212    0.0418   -0.7095 C.3       1 <0>        -0.1220
      2 C2         -1.1332   -0.6663   -0.3764 C.ar      1 <0>        -0.0331
      3 C3         -0.0431    0.0536    0.0669 C.ar      1 <0>        -0.0697
      4 C4          1.1384   -0.5955    0.3782 C.ar      1 <0>        -0.0879
      5 C5          1.2373   -1.9693    0.2424 C.ar      1 <0>        -0.1212
      6 C6          0.1570   -2.7009   -0.2042 C.ar      1 <0>        -0.0818
      7 C7         -1.0390   -2.0521   -0.5203 C.ar      1 <0>        -0.1433
      8 C8         -2.2011   -2.8294   -0.9990 C.2       1 <0>         0.4499
      9 O1         -2.8597   -3.4839   -0.2140 O.2       1 <0>        -0.4417
     10 C9         -2.5620   -2.8112   -2.4289 C.ar      1 <0>        -0.2044
     11 C10        -1.7447   -2.1484   -3.3501 C.ar      1 <0>        -0.0217
     12 C11        -2.0828   -2.1381   -4.6844 C.ar      1 <0>        -0.2237
     13 C12        -3.2406   -2.7762   -5.1153 C.ar      1 <0>         0.1618
     14 C13        -4.0589   -3.4319   -4.2021 C.ar      1 <0>        -0.1654
     15 C14        -3.7256   -3.4517   -2.8667 C.ar      1 <0>        -0.0198
     16 O2         -3.5726   -2.7595   -6.4308 O.3       1 <0>        -0.3119
     17 C15        -2.6878   -2.0679   -7.3145 C.3       1 <0>         0.0238
     18 C16        -0.1414    1.5498    0.2184 C.3       1 <0>        -0.0214
     19 C17        -0.7334    1.8806    1.5642 C.ar      1 <0>         0.0093
     20 C18        -0.9223    3.2230    1.9320 C.ar      1 <0>        -0.0579
     21 C19        -1.4615    3.4891    3.1586 C.ar      1 <0>        -0.2527
     22 C20        -1.7860    2.3930    3.9869 C.ar      1 <0>         0.3130
     23 O3         -2.2658    2.5775    5.0941 O.3       1 <0>        -0.3901
     24 N1         -1.5655    1.1416    3.5408 N.ar      1 <0>        -0.2932
     25 H1         -2.3587    3.5597    5.2576 H         1 <0>         0.4257
     26 N2         -1.0667    0.9186    2.3790 N.ar      1 <0>        -0.1729
     27 H2         -2.4506    0.2592   -1.7772 H         1 <0>         0.0758
     28 H3         -3.2650   -0.5955   -0.4451 H         1 <0>         0.0658
     29 H4         -2.4794    0.9737   -0.1472 H         1 <0>         0.0689
     30 H5          1.9876   -0.0275    0.7284 H         1 <0>         0.1226
     31 H6          2.1626   -2.4697    0.4872 H         1 <0>         0.1274
     32 H7          0.2355   -3.7728   -0.3097 H         1 <0>         0.1249
     33 H8         -0.8474   -1.6490   -3.0157 H         1 <0>         0.1344
     34 H9         -1.4500   -1.6300   -5.3970 H         1 <0>         0.1353
     35 H10        -4.9575   -3.9260   -4.5410 H         1 <0>         0.1388
     36 H11        -4.3616   -3.9615   -2.1581 H         1 <0>         0.1416
     37 H12        -2.6207   -1.0217   -7.0160 H         1 <0>         0.0591
     38 H13        -1.6986   -2.5233   -7.2679 H         1 <0>         0.0594
     39 H14        -3.0693   -2.1312   -8.3336 H         1 <0>         0.1039
     40 H15         0.8532    1.9889    0.1410 H         1 <0>         0.0953
     41 H16        -0.7790    1.9535   -0.5682 H         1 <0>         0.0960
     42 H17        -0.6482    4.0245    1.2621 H         1 <0>         0.1489
     43 H18        -1.6263    4.5046    3.4871 H         1 <0>         0.1544
@<TRIPOS>BOND
     1    1    2 1
     2    1   27 1
     3    1   28 1
     4    1   29 1
     5    2    7 ar
     6    2    3 ar
     7    3    4 ar
     8    3   18 1
     9    4    5 ar
    10    4   30 1
    11    5    6 ar
    12    5   31 1
    13    6    7 ar
    14    6   32 1
    15    7    8 1
    16    8    9 2
    17    8   10 1
    18   10   15 ar
    19   10   11 ar
    20   11   12 ar
    21   11   33 1
    22   12   13 ar
    23   12   34 1
    24   13   14 ar
    25   13   16 1
    26   14   15 ar
    27   14   35 1
    28   15   36 1
    29   16   17 1
    30   17   37 1
    31   17   38 1
    32   17   39 1
    33   18   19 1
    34   18   40 1
    35   18   41 1
    36   19   20 ar
    37   19   26 ar
    38   20   42 1
    39   20   21 ar
    40   21   43 1
    41   21   22 ar
    42   22   24 ar
    43   22   23 1
    44   23   25 1
    45   24   26 ar
@<TRIPOS>MOLECULE
ZINC00023049
   43    45     0     0     0
SMALL
USER_CHARGES

@<TRIPOS>ATOM
      1 C1         -2.4212    0.0418   -0.7095 C.3       1 <0>        -0.1220
      2 C2         -1.1332   -0.6663   -0.3764 C.ar      1 <0>        -0.0331
      3 C3         -0.0431    0.0536    0.0669 C.ar      1 <0>        -0.0697
      4 C4          1.1384   -0.5955    0.3782 C.ar      1 <0>        -0.0879
      5 C5          1.2373   -1.9693    0.2424 C.ar      1 <0>        -0.1212
      6 C6          0.1570   -2.7009   -0.2042 C.ar      1 <0>        -0.0818
      7 C7         -1.0390   -2.0521   -0.5203 C.ar      1 <0>        -0.1433
      8 C8         -2.2011   -2.8294   -0.9990 C.2       1 <0>         0.4499
      9 O1         -2.8597   -3.4839   -0.2140 O.2       1 <0>        -0.4417
     10 C9         -2.5620   -2.8112   -2.4289 C.ar      1 <0>        -0.2044
     11 C10        -1.7447   -2.1484   -3.3501 C.ar      1 <0>        -0.0217
     12 C11        -2.0828   -2.1381   -4.6844 C.ar      1 <0>        -0.2237
     13 C12        -3.2406   -2.7762   -5.1153 C.ar      1 <0>         0.1618
     14 C13        -4.0589   -3.4319   -4.2021 C.ar      1 <0>        -0.1654
     15 C14        -3.7256   -3.4517   -2.8667 C.ar      1 <0>        -0.0198
     16 O2         -3.5726   -2.7595   -6.4308 O.3       1 <0>        -0.3119
     17 C15        -2.6878   -2.0679   -7.3145 C.3       1 <0>         0.0238
     18 C16        -0.1414    1.5498    0.2184 C.3       1 <0>        -0.0214
     19 C17        -0.7334    1.8806    1.5642 C.ar      1 <0>         0.0093
     20 C18        -0.9223    3.2230    1.9320 C.ar      1 <0>        -0.0579
     21 C19        -1.4615    3.4891    3.1586 C.ar      1 <0>        -0.2527
     22 C20        -1.7860    2.3930    3.9869 C.ar      1 <0>         0.3130
     23 O3         -2.2658    2.5775    5.0941 O.3       1 <0>        -0.3901
     24 N1         -1.5655    1.1416    3.5408 N.ar      1 <0>        -0.2932
     25 H1         -2.3587    3.5597    5.2576 H         1 <0>         0.4257
     26 N2         -1.0667    0.9186    2.3790 N.ar      1 <0>        -0.1729
     27 H2         -2.4506    0.2592   -1.7772 H         1 <0>         0.0758
     28 H3         -3.2650   -0.5955   -0.4451 H         1 <0>         0.0658
     29 H4         -2.4794    0.9737   -0.1472 H         1 <0>         0.0689
     30 H5          1.9876   -0.0275    0.7284 H         1 <0>         0.1226
     31 H6          2.1626   -2.4697    0.4872 H         1 <0>         0.1274
     32 H7          0.2355   -3.7728   -0.3097 H         1 <0>         0.1249
     33 H8         -0.8474   -1.6490   -3.0157 H         1 <0>         0.1344
     34 H9         -1.4500   -1.6300   -5.3970 H         1 <0>         0.1353
     35 H10        -4.9575   -3.9260   -4.5410 H         1 <0>         0.1388
     36 H11        -4.3616   -3.9615   -2.1581 H         1 <0>         0.1416
     37 H12        -2.6207   -1.0217   -7.0160 H         1 <0>         0.0591
     38 H13        -1.6986   -2.5233   -7.2679 H         1 <0>         0.0594
     39 H14        -3.0693   -2.1312   -8.3336 H         1 <0>         0.1039
     40 H15         0.8532    1.9889    0.1410 H         1 <0>         0.0953
     41 H16        -0.7790    1.9535   -0.5682 H         1 <0>         0.0960
     42 H17        -0.6482    4.0245    1.2621 H         1 <0>         0.1489
     43 H18        -1.6263    4.5046    3.4871 H         1 <0>         0.1544
@<TRIPOS>BOND
     1    1    2 1
     2    1   27 1
     3    1   28 1
     4    1   29 1
     5    2    7 ar
     6    2    3 ar
     7    3    4 ar
     8    3   18 1
     9    4    5 ar
    10    4   30 1
    11    5    6 ar
    12    5   31 1
    13    6    7 ar
    14    6   32 1
    15    7    8 1
    16    8    9 2
    17    8   10 1
    18   10   15 ar
    19   10   11 ar
    20   11   12 ar
    21   11   33 1
    22   12   13 ar
    23   12   34 1
    24   13   14 ar
    25   13   16 1
    26   14   15 ar
    27   14   35 1
    28   15   36 1
    29   16   17 1
    30   17   37 1
    31   17   38 1
    32   17   39 1
    33   18   19 1
    34   18   40 1
    35   18   41 1
    36   19   20 ar
    37   19   26 ar
    38   20   42 1
    39   20   21 ar
    40   21   43 1
    41   21   22 ar
    42   22   24 ar
    43   22   23 1
    44   23   25 1
    45   24   26 ar
@<TRIPOS>MOLECULE
ZINC00023111
   42    45     0     0     0
SMALL
USER_CHARGES

@<TRIPOS>ATOM
      1 C1          1.0345    1.5112   -0.1894 C.3       1 <0>        -0.6503
      2 S1         -0.7360    1.8391   -0.4089 S.o2      1 <0>         2.4993
      3 O1         -0.9242    3.0559   -1.1183 O.2       1 <0>        -0.9361
      4 O2         -1.4069    0.6535   -0.8135 O.2       1 <0>        -0.9354
      5 C2         -1.3405    2.1664    1.2135 C.ar      1 <0>        -0.6594
      6 C3         -1.8167    1.1277    1.9936 C.ar      1 <0>        -0.0182
      7 C4         -2.2868    1.3766    3.2666 C.ar      1 <0>        -0.1192
      8 C5         -2.2913    2.6809    3.7629 C.ar      1 <0>         0.0288
      9 C6         -1.8146    3.7249    2.9688 C.ar      1 <0>        -0.1355
     10 C7         -1.3422    3.4618    1.6995 C.ar      1 <0>        -0.0175
     11 C8         -2.7986    2.9556    5.1244 C.2       1 <0>         0.1021
     12 C9         -3.6468    2.1573    5.8190 C.2       1 <0>        -0.1560
     13 C10        -3.8816    2.8038    7.1094 C.ar      1 <0>        -0.1094
     14 C11        -4.6456    2.4733    8.2323 C.ar      1 <0>        -0.0656
     15 C12        -4.6631    3.3109    9.3113 C.ar      1 <0>        -0.1432
     16 C13        -3.9275    4.4884    9.3021 C.ar      1 <0>        -0.0909
     17 C14        -3.1678    4.8343    8.2057 C.ar      1 <0>        -0.1270
     18 C15        -3.1345    3.9972    7.0956 C.ar      1 <0>         0.1141
     19 N1         -2.4869    4.0647    5.8797 N.pl3     1 <0>        -0.4360
     20 C16        -1.6408    5.1039    5.4741 C.ar      1 <0>         0.1172
     21 C17        -0.2806    4.8724    5.3165 C.ar      1 <0>        -0.1087
     22 C18         0.5504    5.8981    4.9107 C.ar      1 <0>        -0.1062
     23 C19         0.0312    7.1575    4.6725 C.ar      1 <0>        -0.1084
     24 C20        -1.3218    7.3926    4.8341 C.ar      1 <0>        -0.1052
     25 C21        -2.1591    6.3697    5.2341 C.ar      1 <0>        -0.1144
     26 H1          1.5141    2.3854    0.2508 H         1 <0>         0.1313
     27 H2          1.1661    0.6537    0.4706 H         1 <0>         0.1321
     28 H3          1.4872    1.2973   -1.1576 H         1 <0>         0.1342
     29 H4         -1.8164    0.1194    1.6069 H         1 <0>         0.1485
     30 H5         -2.6548    0.5644    3.8760 H         1 <0>         0.1407
     31 H6         -1.8157    4.7365    3.3469 H         1 <0>         0.1361
     32 H7         -0.9726    4.2687    1.0841 H         1 <0>         0.1445
     33 H8         -4.0676    1.2210    5.4835 H         1 <0>         0.1560
     34 H9         -5.2198    1.5587    8.2470 H         1 <0>         0.1264
     35 H10        -5.2536    3.0550   10.1786 H         1 <0>         0.1261
     36 H11        -3.9513    5.1401   10.1629 H         1 <0>         0.1281
     37 H12        -2.5998    5.7529    8.2085 H         1 <0>         0.1200
     38 H13         0.1262    3.8902    5.5070 H         1 <0>         0.1275
     39 H14         1.6077    5.7177    4.7840 H         1 <0>         0.1333
     40 H15         0.6838    7.9590    4.3593 H         1 <0>         0.1322
     41 H16        -1.7242    8.3774    4.6476 H         1 <0>         0.1343
     42 H17        -3.2158    6.5539    5.3598 H         1 <0>         0.1299
@<TRIPOS>BOND
     1    1    2 1
     2    1   26 1
     3    1   27 1
     4    1   28 1
     5    2    3 2
     6    2    4 2
     7    2    5 1
     8    5   10 ar
     9    5    6 ar
    10    6    7 ar
    11    6   29 1
    12    7    8 ar
    13    7   30 1
    14    8    9 ar
    15    8   11 1
    16    9   10 ar
    17    9   31 1
    18   10   32 1
    19   11   19 1
    20   11   12 2
    21   12   13 1
    22   12   33 1
    23   13   18 ar
    24   13   14 ar
    25   14   15 ar
    26   14   34 1
    27   15   16 ar
    28   15   35 1
    29   16   17 ar
    30   16   36 1
    31   17   18 ar
    32   17   37 1
    33   18   19 1
    34   19   20 1
    35   20   25 ar
    36   20   21 ar
    37   21   22 ar
    38   21   38 1
    39   22   23 ar
    40   22   39 1
    41   23   24 ar
    42   23   40 1
    43   24   25 ar
    44   24   41 1
    45   25   42 1
@<TRIPOS>MOLECULE
ZINC00537736
   37    39     0     0     0
SMALL
USER_CHARGES

@<TRIPOS>ATOM
      1 C1         -5.8182   -0.3058   -2.3031 C.3       1 <0>        -0.6677
      2 S1         -5.9971   -0.8357   -0.5775 S.o2      1 <0>         2.6056
      3 O1         -5.6636   -2.2112   -0.4508 O.2       1 <0>        -0.9428
      4 O2         -7.2091   -0.3312   -0.0337 O.2       1 <0>        -0.9443
      5 N1         -4.8010   -0.0339    0.2402 N.pl3     1 <0>        -1.0448
      6 C2         -4.7732    1.3569    0.2443 C.ar      1 <0>         0.1802
      7 C3         -5.9629    2.0759    0.2641 C.ar      1 <0>        -0.1484
      8 C4         -5.9436    3.4549    0.2679 C.ar      1 <0>        -0.0368
      9 C5         -4.7249    4.1382    0.2516 C.ar      1 <0>        -0.1725
     10 C6         -3.5224    3.4086    0.2373 C.ar      1 <0>        -0.1007
     11 C7         -3.5496    2.0314    0.2280 C.ar      1 <0>         0.0786
     12 O3         -2.3857    1.3283    0.2085 O.3       1 <0>        -0.2395
     13 C8         -1.2201    2.0203    0.3154 C.ar      1 <0>         0.0302
     14 C9         -0.4817    2.3160   -0.8206 C.ar      1 <0>        -0.0604
     15 C10         0.7058    3.0138   -0.7102 C.ar      1 <0>        -0.1492
     16 C11         1.1568    3.4234    0.5332 C.ar      1 <0>         0.1428
     17 C12         0.4191    3.1347    1.6687 C.ar      1 <0>        -0.1812
     18 C13        -0.7699    2.4360    1.5621 C.ar      1 <0>         0.1254
     19 F1         -1.4897    2.1532    2.6698 F         1 <0>        -0.1162
     20 F2          2.3184    4.1052    0.6386 F         1 <0>        -0.1218
     21 C14        -4.9448    5.5900    0.2596 C.2       1 <0>         0.4055
     22 O4         -4.0799    6.4406    0.2496 O.2       1 <0>        -0.4382
     23 C15        -6.4328    5.8411    0.2829 C.3       1 <0>        -0.1617
     24 C16        -7.0799    4.4494    0.2882 C.3       1 <0>        -0.0825
     25 H1         -4.8278   -0.5798   -2.6665 H         1 <0>         0.1340
     26 H2         -6.5774   -0.7944   -2.9138 H         1 <0>         0.1380
     27 H3         -5.9419    0.7754   -2.3658 H         1 <0>         0.1314
     28 H4         -4.1197   -0.5340    0.7163 H         1 <0>         0.4347
     29 H5         -6.9071    1.5519    0.2763 H         1 <0>         0.1797
     30 H6         -2.5761    3.9291    0.2292 H         1 <0>         0.1383
     31 H7         -0.8326    1.9973   -1.7910 H         1 <0>         0.1563
     32 H8          1.2825    3.2403   -1.5947 H         1 <0>         0.1556
     33 H9          0.7722    3.4549    2.6378 H         1 <0>         0.1595
     34 H10        -6.6696    6.3653    1.1009 H         1 <0>         0.1008
     35 H11        -6.7359    6.3966   -0.6046 H         1 <0>         0.1123
     36 H12        -7.7041    4.3232   -0.5965 H         1 <0>         0.0999
     37 H13        -7.6771    4.3174    1.1905 H         1 <0>         0.0999
@<TRIPOS>BOND
     1    1    2 1
     2    1   25 1
     3    1   26 1
     4    1   27 1
     5    2    3 2
     6    2    4 2
     7    2    5 1
     8    5    6 1
     9    5   28 1
    10    6   11 ar
    11    6    7 ar
    12    7    8 ar
    13    7   29 1
    14    8   24 1
    15    8    9 ar
    16    9   10 ar
    17    9   21 1
    18   10   11 ar
    19   10   30 1
    20   11   12 1
    21   12   13 1
    22   13   18 ar
    23   13   14 ar
    24   14   15 ar
    25   14   31 1
    26   15   16 ar
    27   15   32 1
    28   16   17 ar
    29   16   20 1
    30   17   18 ar
    31   17   33 1
    32   18   19 1
    33   21   22 2
    34   21   23 1
    35   23   24 1
    36   23   34 1
    37   23   35 1
    38   24   36 1
    39   24   37 1
@<TRIPOS>MOLECULE
ZINC00579472
   39    41     0     0     0
SMALL
USER_CHARGES

@<TRIPOS>ATOM
      1 C1          1.1648    3.5797    0.0102 C.3       1 <0>        -0.1104
      2 C2          1.1804    2.0728    0.0019 C.ar      1 <0>         0.1449
      3 C3         -0.0167    1.3797    0.0096 C.ar      1 <0>        -0.1774
      4 C4          0.0021   -0.0041    0.0020 C.ar      1 <0>        -0.0292
      5 C5          1.2423   -0.6504   -0.0133 C.ar      1 <0>        -0.1232
      6 C6          2.4037    0.1203   -0.0202 C.ar      1 <0>         0.1377
      7 N1          2.3352    1.4358   -0.0130 N.ar      1 <0>        -0.4792
      8 C7          1.3203   -2.1302   -0.0225 C.ar      1 <0>         0.1985
      9 C8          2.3471   -2.7704   -0.7346 C.ar      1 <0>        -0.0891
     10 C9          2.4017   -4.1650   -0.7298 C.ar      1 <0>        -0.0440
     11 C10         1.4356   -4.8598   -0.0189 C.ar      1 <0>        -0.0903
     12 C11         0.4530   -4.1584    0.6598 C.ar      1 <0>         0.1297
     13 N2          0.4234   -2.8414    0.6462 N.ar      1 <0>        -0.4563
     14 Cl1         1.4567   -6.5953    0.0197 Cl        1 <0>        -0.0413
     15 C12         3.3560   -1.9788   -1.4784 C.ar      1 <0>         0.0037
     16 C13         2.9494   -0.9773   -2.3588 C.ar      1 <0>        -0.1178
     17 C14         3.8932   -0.2404   -3.0448 C.ar      1 <0>        -0.0148
     18 C15         5.2402   -0.5010   -2.8681 C.ar      1 <0>        -0.6522
     19 C16         5.6495   -1.4970   -1.9998 C.ar      1 <0>        -0.0165
     20 C17         4.7149   -2.2369   -1.3044 C.ar      1 <0>        -0.1273
     21 S1          6.4394    0.4391   -3.7530 S.o2      1 <0>         2.4977
     22 O1          5.8008    1.6797   -4.0223 O.2       1 <0>        -0.9325
     23 O2          7.6085    0.3860   -2.9471 O.2       1 <0>        -0.9340
     24 C18         6.7026   -0.4762   -5.2969 C.3       1 <0>        -0.6509
     25 H1          1.1708    3.9375    1.0397 H         1 <0>         0.0826
     26 H2          2.0460    3.9550   -0.5101 H         1 <0>         0.0820
     27 H3          0.2662    3.9365   -0.4932 H         1 <0>         0.0781
     28 H4         -0.9560    1.9127    0.0170 H         1 <0>         0.1415
     29 H5         -0.9175   -0.5704    0.0081 H         1 <0>         0.1424
     30 H6          3.3683   -0.3654   -0.0321 H         1 <0>         0.1569
     31 H7          3.1780   -4.6900   -1.2665 H         1 <0>         0.1535
     32 H8         -0.2994   -4.7004    1.2134 H         1 <0>         0.1734
     33 H9          1.8979   -0.7758   -2.5006 H         1 <0>         0.1322
     34 H10         3.5795    0.5384   -3.7240 H         1 <0>         0.1459
     35 H11         6.7025   -1.6963   -1.8661 H         1 <0>         0.1488
     36 H12         5.0356   -3.0145   -0.6270 H         1 <0>         0.1386
     37 H13         5.7618   -0.5459   -5.8429 H         1 <0>         0.1317
     38 H14         7.4394    0.0457   -5.9076 H         1 <0>         0.1344
     39 H15         7.0649   -1.4784   -5.0679 H         1 <0>         0.1320
@<TRIPOS>BOND
     1    1    2 1
     2    1   25 1
     3    1   26 1
     4    1   27 1
     5    2    7 ar
     6    2    3 ar
     7    3    4 ar
     8    3   28 1
     9    4    5 ar
    10    4   29 1
    11    5    6 ar
    12    5    8 1
    13    6    7 ar
    14    6   30 1
    15    8   13 ar
    16    8    9 ar
    17    9   10 ar
    18    9   15 1
    19   10   11 ar
    20   10   31 1
    21   11   12 ar
    22   11   14 1
    23   12   13 ar
    24   12   32 1
    25   15   20 ar
    26   15   16 ar
    27   16   17 ar
    28   16   33 1
    29   17   18 ar
    30   17   34 1
    31   18   19 ar
    32   18   21 1
    33   19   20 ar
    34   19   35 1
    35   20   36 1
    36   21   22 2
    37   21   23 2
    38   21   24 1
    39   24   37 1
    40   24   38 1
    41   24   39 1
@<TRIPOS>MOLECULE
ZINC00581585
   34    36     0     0     0
SMALL
USER_CHARGES

@<TRIPOS>ATOM
      1 C1          0.7878    4.1253   -0.8271 C.ar      1 <0>        -0.1368
      2 C2          1.1889    5.3757   -1.2507 C.ar      1 <0>        -0.0076
      3 C3          2.4866    5.5789   -1.6849 C.ar      1 <0>        -0.6724
      4 C4          3.3917    4.5326   -1.6920 C.ar      1 <0>        -0.0084
      5 C5          3.0046    3.2788   -1.2655 C.ar      1 <0>        -0.1227
      6 C6          1.6974    3.0674   -0.8264 C.ar      1 <0>         0.0392
      7 C7          1.2756    1.7253   -0.3676 C.2       1 <0>         0.0335
      8 C8          1.9889    0.5932   -0.4577 C.2       1 <0>         0.0010
      9 O1          1.2569   -0.4133    0.0710 O.3       1 <0>        -0.2253
     10 C9          0.0824    0.0776    0.4957 C.2       1 <0>         0.6208
     11 O2         -0.8093   -0.5618    1.0214 O.2       1 <0>        -0.4761
     12 N1          0.0600    1.4013    0.2394 N.am      1 <0>        -0.5013
     13 C10        -0.9892    2.2856    0.5233 C.ar      1 <0>         0.1328
     14 C11        -0.9702    3.0349    1.6922 C.ar      1 <0>        -0.0881
     15 C12        -2.0032    3.9093    1.9674 C.ar      1 <0>        -0.0975
     16 C13        -3.0616    4.0316    1.0842 C.ar      1 <0>        -0.0197
     17 C14        -3.0855    3.2821   -0.0788 C.ar      1 <0>        -0.0984
     18 C15        -2.0525    2.4098   -0.3609 C.ar      1 <0>        -0.0897
     19 Cl1        -4.3617    5.1268    1.4363 Cl        1 <0>        -0.0496
     20 S1          2.9887    7.1769   -2.2317 S.o2      1 <0>         2.7005
     21 O3          2.1133    8.1109   -1.6148 O.2       1 <0>        -0.9592
     22 O4          4.3996    7.2356   -2.0733 O.2       1 <0>        -0.9592
     23 N2          2.6916    7.2532   -3.8591 N.pl3     1 <0>        -1.2491
     24 H1         -0.2269    3.9668   -0.4929 H         1 <0>         0.1401
     25 H2          0.4870    6.1965   -1.2476 H         1 <0>         0.1490
     26 H3          4.4033    4.6974   -2.0324 H         1 <0>         0.1527
     27 H4          3.7120    2.4627   -1.2718 H         1 <0>         0.1433
     28 H5          2.9783    0.5011   -0.8808 H         1 <0>         0.2282
     29 H6         -0.1464    2.9367    2.3837 H         1 <0>         0.1416
     30 H7         -1.9872    4.4948    2.8748 H         1 <0>         0.1487
     31 H8         -3.9127    3.3791   -0.7663 H         1 <0>         0.1485
     32 H9         -2.0720    1.8246   -1.2684 H         1 <0>         0.1416
     33 H10         2.3074    6.4901   -4.3183 H         1 <0>         0.4171
     34 H11         2.9018    8.0611   -4.3531 H         1 <0>         0.4228
@<TRIPOS>BOND
     1    1    6 ar
     2    1    2 ar
     3    1   24 1
     4    2    3 ar
     5    2   25 1
     6    3    4 ar
     7    3   20 1
     8    4    5 ar
     9    4   26 1
    10    5    6 ar
    11    5   27 1
    12    6    7 1
    13    7   12 1
    14    7    8 2
    15    8    9 1
    16    8   28 1
    17    9   10 1
    18   10   11 2
    19   10   12 am
    20   12   13 1
    21   13   18 ar
    22   13   14 ar
    23   14   15 ar
    24   14   29 1
    25   15   16 ar
    26   15   30 1
    27   16   17 ar
    28   16   19 1
    29   17   18 ar
    30   17   31 1
    31   18   32 1
    32   20   21 2
    33   20   22 2
    34   20   23 1
    35   23   33 1
    36   23   34 1
@<TRIPOS>MOLECULE
ZINC00598515
   35    36     0     0     0
SMALL
USER_CHARGES

@<TRIPOS>ATOM
      1 C1          2.6459    0.3247   -2.8780 C.3       1 <0>        -0.6657
      2 S1          2.8952   -0.1803   -1.1536 S.o2      1 <0>         2.6019
      3 O1          4.2611   -0.5026   -0.9306 O.2       1 <0>        -0.9377
      4 O2          1.8653   -1.0728   -0.7512 O.2       1 <0>        -0.9426
      5 N1          2.6349    1.1933   -0.2660 N.pl3     1 <0>        -1.0515
      6 C2          1.4022    1.8393   -0.3278 C.ar      1 <0>         0.2318
      7 C3          0.2350    1.0963   -0.4568 C.ar      1 <0>        -0.1911
      8 C4         -0.9858    1.7312   -0.5241 C.ar      1 <0>        -0.0204
      9 C5         -1.0549    3.1252   -0.4512 C.ar      1 <0>        -0.1644
     10 C6          0.1174    3.8754   -0.3219 C.ar      1 <0>         0.0264
     11 C7          1.3412    3.2345   -0.2605 C.ar      1 <0>        -0.1874
     12 S2          2.8220    4.1752   -0.0969 S.3       1 <0>         0.0484
     13 C8          3.2653    3.9812    1.5973 C.ar      1 <0>        -0.1678
     14 C9          2.4158    3.3087    2.4660 C.ar      1 <0>        -0.0704
     15 C10         2.7653    3.1577    3.7939 C.ar      1 <0>        -0.1424
     16 C11         3.9614    3.6765    4.2604 C.ar      1 <0>         0.1330
     17 C12         4.8114    4.3478    3.3975 C.ar      1 <0>        -0.1723
     18 C13         4.4696    4.4965    2.0660 C.ar      1 <0>         0.1538
     19 F1          5.3011    5.1464    1.2226 F         1 <0>        -0.1173
     20 F2          4.2997    3.5279    5.5599 F         1 <0>        -0.1256
     21 C14        -2.3629    3.8044   -0.5177 C.2       1 <0>         0.5657
     22 O3         -2.4216    5.0175   -0.4599 O.2       1 <0>        -0.5334
     23 N2         -3.4927    3.0802   -0.6423 N.am      1 <0>        -0.8493
     24 H1          3.3571    1.1104   -3.1329 H         1 <0>         0.1373
     25 H2          2.8007   -0.5322   -3.5335 H         1 <0>         0.1395
     26 H3          1.6300    0.6994   -3.0035 H         1 <0>         0.1322
     27 H4          3.3406    1.5479    0.2970 H         1 <0>         0.4321
     28 H5          0.2854    0.0187   -0.5089 H         1 <0>         0.1780
     29 H6         -1.8906    1.1509   -0.6292 H         1 <0>         0.1436
     30 H7          0.0675    4.9530   -0.2705 H         1 <0>         0.1563
     31 H8          1.4826    2.9036    2.1035 H         1 <0>         0.1427
     32 H9          2.1044    2.6347    4.4693 H         1 <0>         0.1487
     33 H10         5.7438    4.7515    3.7637 H         1 <0>         0.1573
     34 H11        -3.4458    2.1124   -0.6884 H         1 <0>         0.4014
     35 H12        -4.3527    3.5267   -0.6860 H         1 <0>         0.4093
@<TRIPOS>BOND
     1    1    2 1
     2    1   24 1
     3    1   25 1
     4    1   26 1
     5    2    3 2
     6    2    4 2
     7    2    5 1
     8    5    6 1
     9    5   27 1
    10    6   11 ar
    11    6    7 ar
    12    7    8 ar
    13    7   28 1
    14    8    9 ar
    15    8   29 1
    16    9   10 ar
    17    9   21 1
    18   10   11 ar
    19   10   30 1
    20   11   12 1
    21   12   13 1
    22   13   18 ar
    23   13   14 ar
    24   14   15 ar
    25   14   31 1
    26   15   16 ar
    27   15   32 1
    28   16   17 ar
    29   16   20 1
    30   17   18 ar
    31   17   33 1
    32   18   19 1
    33   21   22 2
    34   21   23 am
    35   23   34 1
    36   23   35 1
@<TRIPOS>MOLECULE
ZINC00598952
   38    40     0     0     0
SMALL
USER_CHARGES

@<TRIPOS>ATOM
      1 C1         -3.0989    4.4552   -1.5690 C.3       1 <0>        -0.6495
      2 S1         -2.7251    4.0766    0.1652 S.o2      1 <0>         2.4993
      3 O1         -3.6659    3.1421    0.6759 O.2       1 <0>        -0.9308
      4 O2         -2.4333    5.2724    0.8753 O.2       1 <0>        -0.9310
      5 C2         -1.1986    3.1979    0.1180 C.ar      1 <0>        -0.6555
      6 C3         -1.1990    1.8203   -0.0031 C.ar      1 <0>        -0.0041
      7 C4         -0.0042    1.1282   -0.0355 C.ar      1 <0>        -0.1214
      8 C5          1.1984    1.8180    0.0425 C.ar      1 <0>         0.1902
      9 C6          1.1955    3.2018    0.1586 C.ar      1 <0>        -0.1328
     10 C7         -0.0027    3.8876    0.1963 C.ar      1 <0>        -0.0060
     11 N1          2.4120    1.1195    0.0035 N.pl3     1 <0>        -0.3147
     12 C8          3.5099    1.4525   -0.7373 C.2       1 <0>         0.1432
     13 C9          4.4712    0.5150   -0.4825 C.2       1 <0>        -0.1997
     14 C10         3.9414   -0.4064    0.4214 C.2       1 <0>        -0.0048
     15 N2          2.7158   -0.0496    0.7128 N.2       1 <0>        -0.2130
     16 C11         4.6600   -1.6119    0.9704 C.3       1 <0>         0.5573
     17 F1          3.7790   -2.3618    1.7569 F         1 <0>        -0.1628
     18 F2          5.1258   -2.3993   -0.0880 F         1 <0>        -0.1618
     19 F3          5.7424   -1.1937    1.7520 F         1 <0>        -0.1624
     20 C12         3.6362    2.6138   -1.6447 C.ar      1 <0>        -0.0606
     21 C13         2.5013    3.1589   -2.2462 C.ar      1 <0>        -0.0742
     22 C14         2.6241    4.2446   -3.0881 C.ar      1 <0>        -0.1499
     23 C15         3.8728    4.7878   -3.3446 C.ar      1 <0>         0.1213
     24 C16         5.0037    4.2469   -2.7539 C.ar      1 <0>        -0.1491
     25 C17         4.8914    3.1643   -1.9067 C.ar      1 <0>        -0.0516
     26 F4          3.9883    5.8482   -4.1737 F         1 <0>        -0.1308
     27 H1         -3.1855    3.5266   -2.1331 H         1 <0>         0.1333
     28 H2         -4.0387    5.0044   -1.6266 H         1 <0>         0.1367
     29 H3         -2.2970    5.0622   -1.9894 H         1 <0>         0.1330
     30 H4         -2.1346    1.2847   -0.0682 H         1 <0>         0.1572
     31 H5         -0.0052    0.0520   -0.1259 H         1 <0>         0.1471
     32 H6          2.1292    3.7411    0.2191 H         1 <0>         0.1446
     33 H7         -0.0056    4.9639    0.2866 H         1 <0>         0.1575
     34 H8          5.4631    0.4893   -0.9090 H         1 <0>         0.1736
     35 H9          1.5280    2.7339   -2.0499 H         1 <0>         0.1353
     36 H10         1.7459    4.6696   -3.5512 H         1 <0>         0.1444
     37 H11         5.9747    4.6735   -2.9576 H         1 <0>         0.1475
     38 H12         5.7733    2.7432   -1.4471 H         1 <0>         0.1451
@<TRIPOS>BOND
     1    1    2 1
     2    1   27 1
     3    1   28 1
     4    1   29 1
     5    2    3 2
     6    2    4 2
     7    2    5 1
     8    5   10 ar
     9    5    6 ar
    10    6    7 ar
    11    6   30 1
    12    7    8 ar
    13    7   31 1
    14    8    9 ar
    15    8   11 1
    16    9   10 ar
    17    9   32 1
    18   10   33 1
    19   11   15 1
    20   11   12 1
    21   12   13 2
    22   12   20 1
    23   13   14 1
    24   13   34 1
    25   14   15 2
    26   14   16 1
    27   16   17 1
    28   16   18 1
    29   16   19 1
    30   20   25 ar
    31   20   21 ar
    32   21   22 ar
    33   21   35 1
    34   22   23 ar
    35   22   36 1
    36   23   24 ar
    37   23   26 1
    38   24   25 ar
    39   24   37 1
    40   25   38 1
@<TRIPOS>MOLECULE
ZINC00600753
   44    46     0     0     0
SMALL
USER_CHARGES

@<TRIPOS>ATOM
      1 C1         -6.2551    4.3256    7.2495 C.3       1 <0>        -0.1730
      2 C2         -5.4273    3.0727    7.5425 C.3       1 <0>         0.1032
      3 N1         -4.1609    3.1417    6.8091 N.pl3     1 <0>        -0.3262
      4 C3         -3.0136    3.6853    7.2653 C.2       1 <0>        -0.0034
      5 C4         -2.0719    3.5524    6.2896 C.2       1 <0>        -0.1096
      6 C5         -2.6845    2.8961    5.1926 C.2       1 <0>         0.1148
      7 N2         -3.9376    2.6594    5.5139 N.2       1 <0>        -0.2318
      8 C6         -2.0305    2.5446    3.9088 C.ar      1 <0>         0.0387
      9 C7         -0.7350    2.0307    3.9014 C.ar      1 <0>        -0.1084
     10 C8         -0.1315    1.7049    2.7038 C.ar      1 <0>        -0.0210
     11 C9         -0.8100    1.8876    1.5122 C.ar      1 <0>        -0.6514
     12 C10        -2.0938    2.4026    1.5131 C.ar      1 <0>        -0.0222
     13 C11        -2.7093    2.7266    2.7052 C.ar      1 <0>        -0.1095
     14 S1         -0.0332    1.4695   -0.0130 S.o2      1 <0>         2.4984
     15 O1          1.3593    1.5863    0.2452 O.2       1 <0>        -0.9343
     16 O2         -0.6627    2.2990   -0.9799 O.2       1 <0>        -0.9352
     17 C12        -0.4721   -0.2672   -0.2990 C.3       1 <0>        -0.6502
     18 C13        -0.6623    4.0102    6.3623 C.ar      1 <0>        -0.0478
     19 C14         0.2348    3.3766    7.2198 C.ar      1 <0>        -0.0633
     20 C15         1.5458    3.8028    7.2811 C.ar      1 <0>        -0.1519
     21 C16         1.9680    4.8656    6.4991 C.ar      1 <0>         0.1114
     22 C17         1.0783    5.5016    5.6487 C.ar      1 <0>        -0.1510
     23 C18        -0.2333    5.0788    5.5776 C.ar      1 <0>        -0.0630
     24 F1          3.2511    5.2833    6.5663 F         1 <0>        -0.1357
     25 C19        -2.8096    4.3250    8.6144 C.3       1 <0>         0.5419
     26 F2         -3.6593    3.7234    9.5490 F         1 <0>        -0.1706
     27 F3         -1.4802    4.1544    9.0152 F         1 <0>        -0.1522
     28 F4         -3.1001    5.6910    8.5316 F         1 <0>        -0.1619
     29 H1         -7.1973    4.2743    7.7952 H         1 <0>         0.0880
     30 H2         -5.7005    5.2094    7.5646 H         1 <0>         0.0634
     31 H3         -6.4574    4.3856    6.1802 H         1 <0>         0.0705
     32 H4         -5.9819    2.1889    7.2274 H         1 <0>         0.1104
     33 H5         -5.2250    3.0127    8.6119 H         1 <0>         0.1135
     34 H6         -0.2043    1.8879    4.8311 H         1 <0>         0.1374
     35 H7          0.8722    1.3062    2.6969 H         1 <0>         0.1483
     36 H8         -2.6170    2.5477    0.5795 H         1 <0>         0.1482
     37 H9         -3.7131    3.1248    2.7050 H         1 <0>         0.1378
     38 H10        -0.0987   -0.8766    0.5240 H         1 <0>         0.1323
     39 H11        -1.5562   -0.3628   -0.3592 H         1 <0>         0.1322
     40 H12        -0.0251   -0.6058   -1.2337 H         1 <0>         0.1342
     41 H13        -0.0946    2.5508    7.8331 H         1 <0>         0.1344
     42 H14         2.2427    3.3101    7.9429 H         1 <0>         0.1407
     43 H15         1.4117    6.3297    5.0409 H         1 <0>         0.1406
     44 H16        -0.9264    5.5756    4.9149 H         1 <0>         0.1332
@<TRIPOS>BOND
     1    1    2 1
     2    1   29 1
     3    1   30 1
     4    1   31 1
     5    2    3 1
     6    2   32 1
     7    2   33 1
     8    3    7 1
     9    3    4 1
    10    4    5 2
    11    4   25 1
    12    5    6 1
    13    5   18 1
    14    6    7 2
    15    6    8 1
    16    8   13 ar
    17    8    9 ar
    18    9   10 ar
    19    9   34 1
    20   10   11 ar
    21   10   35 1
    22   11   12 ar
    23   11   14 1
    24   12   13 ar
    25   12   36 1
    26   13   37 1
    27   14   15 2
    28   14   16 2
    29   14   17 1
    30   17   38 1
    31   17   39 1
    32   17   40 1
    33   18   23 ar
    34   18   19 ar
    35   19   20 ar
    36   19   41 1
    37   20   21 ar
    38   20   42 1
    39   21   22 ar
    40   21   24 1
    41   22   23 ar
    42   22   43 1
    43   23   44 1
    44   25   26 1
    45   25   27 1
    46   25   28 1
@<TRIPOS>MOLECULE
ZINC00601195
   37    39     0     0     0
SMALL
USER_CHARGES

@<TRIPOS>ATOM
      1 C1         -0.1496    3.5711    5.4104 C.ar      1 <0>        -0.0924
      2 C2          1.1426    4.0264    5.5715 C.ar      1 <0>        -0.1048
      3 C3          1.3993    5.1142    6.3888 C.ar      1 <0>        -0.0194
      4 C4          0.3615    5.7543    7.0449 C.ar      1 <0>        -0.1062
      5 C5         -0.9353    5.3112    6.8871 C.ar      1 <0>        -0.0713
      6 C6         -1.2002    4.2157    6.0645 C.ar      1 <0>        -0.0435
      7 C7         -2.5886    3.7358    5.8912 C.2       1 <0>         0.1361
      8 C8         -3.6140    3.8835    6.7825 C.2       1 <0>        -0.2092
      9 C9         -4.7477    3.2832    6.2338 C.2       1 <0>         0.0074
     10 N1         -4.4360    2.7951    5.0595 N.2       1 <0>        -0.2324
     11 N2         -3.0845    3.0653    4.8097 N.pl3     1 <0>        -0.3242
     12 C10        -2.3687    2.7070    3.6601 C.ar      1 <0>         0.1990
     13 C11        -2.4966    1.4296    3.1308 C.ar      1 <0>        -0.1250
     14 C12        -1.7893    1.0793    1.9975 C.ar      1 <0>         0.0021
     15 C13        -0.9547    1.9992    1.3896 C.ar      1 <0>        -0.6787
     16 C14        -0.8209    3.2703    1.9175 C.ar      1 <0>        -0.0050
     17 C15        -1.5295    3.6284    3.0476 C.ar      1 <0>        -0.1360
     18 S1         -0.0544    1.5485   -0.0564 S.o2      1 <0>         2.7039
     19 O1          0.0707    0.1333   -0.0323 O.2       1 <0>        -0.9537
     20 O2          1.0724    2.4120   -0.1188 O.2       1 <0>        -0.9513
     21 N3         -1.0061    1.9174   -1.3605 N.pl3     1 <0>        -1.2424
     22 C16        -6.1051    3.2092    6.8843 C.3       1 <0>         0.3604
     23 F1         -6.7625    2.0492    6.4609 F         1 <0>        -0.1873
     24 F2         -5.9548    3.1789    8.2749 F         1 <0>        -0.1856
     25 Cl1         3.0288    5.6775    6.5921 Cl        1 <0>        -0.0561
     26 H1         -0.3483    2.7200    4.7759 H         1 <0>         0.1333
     27 H2          1.9560    3.5310    5.0622 H         1 <0>         0.1428
     28 H3          0.5677    6.6019    7.6817 H         1 <0>         0.1443
     29 H4         -1.7440    5.8109    7.3996 H         1 <0>         0.1431
     30 H5         -3.5560    4.3738    7.7430 H         1 <0>         0.1694
     31 H6         -3.1482    0.7107    3.6051 H         1 <0>         0.1463
     32 H7         -1.8883    0.0859    1.5854 H         1 <0>         0.1553
     33 H8         -0.1647    3.9850    1.4432 H         1 <0>         0.1557
     34 H9         -1.4277    4.6226    3.4570 H         1 <0>         0.1433
     35 H10        -1.2781    1.2185   -1.9756 H         1 <0>         0.4243
     36 H11        -1.2916    2.8325   -1.5092 H         1 <0>         0.4199
     37 H12        -6.6917    4.0832    6.6012 H         1 <0>         0.1379
@<TRIPOS>BOND
     1    1    6 ar
     2    1    2 ar
     3    1   26 1
     4    2    3 ar
     5    2   27 1
     6    3    4 ar
     7    3   25 1
     8    4    5 ar
     9    4   28 1
    10    5    6 ar
    11    5   29 1
    12    6    7 1
    13    7   11 1
    14    7    8 2
    15    8    9 1
    16    8   30 1
    17    9   10 2
    18    9   22 1
    19   10   11 1
    20   11   12 1
    21   12   17 ar
    22   12   13 ar
    23   13   14 ar
    24   13   31 1
    25   14   15 ar
    26   14   32 1
    27   15   16 ar
    28   15   18 1
    29   16   17 ar
    30   16   33 1
    31   17   34 1
    32   18   19 2
    33   18   20 2
    34   18   21 1
    35   21   35 1
    36   21   36 1
    37   22   23 1
    38   22   24 1
    39   22   37 1
@<TRIPOS>MOLECULE
ZINC00601196
   41    43     0     0     0
SMALL
USER_CHARGES

@<TRIPOS>ATOM
      1 C1          3.6999    4.8503    5.8414 C.3       1 <0>         0.0228
      2 O1          2.6770    5.5550    6.5478 O.3       1 <0>        -0.3119
      3 C2          1.4016    5.1142    6.3888 C.ar      1 <0>         0.1497
      4 C3          0.3604    5.7547    7.0473 C.ar      1 <0>        -0.1495
      5 C4         -0.9349    5.3101    6.8888 C.ar      1 <0>        -0.0414
      6 C5         -1.1990    4.2150    6.0649 C.ar      1 <0>        -0.0915
      7 C6         -0.1492    3.5706    5.4089 C.ar      1 <0>        -0.0604
      8 C7          1.1429    4.0241    5.5686 C.ar      1 <0>        -0.2051
      9 C8         -2.5872    3.7349    5.8921 C.2       1 <0>         0.1494
     10 C9         -3.6119    3.8803    6.7848 C.2       1 <0>        -0.2189
     11 C10        -4.7460    3.2811    6.2357 C.2       1 <0>         0.0090
     12 N1         -4.4352    2.7954    5.0602 N.2       1 <0>        -0.2384
     13 N2         -3.0838    3.0659    4.8099 N.pl3     1 <0>        -0.3280
     14 C11        -2.3688    2.7092    3.6594 C.ar      1 <0>         0.2031
     15 C12        -2.4971    1.4325    3.1285 C.ar      1 <0>        -0.1265
     16 C13        -1.7904    1.0837    1.9942 C.ar      1 <0>         0.0015
     17 C14        -0.9562    2.0044    1.3871 C.ar      1 <0>        -0.6803
     18 C15        -0.8223    3.2749    1.9164 C.ar      1 <0>        -0.0061
     19 C16        -1.5299    3.6314    3.0477 C.ar      1 <0>        -0.1355
     20 S1         -0.0564    1.5555   -0.0598 S.o2      1 <0>         2.7044
     21 O2          0.0688    0.1402   -0.0373 O.2       1 <0>        -0.9543
     22 O3          1.0703    2.4191   -0.1216 O.2       1 <0>        -0.9529
     23 N3         -1.0086    1.9257   -1.3631 N.pl3     1 <0>        -1.2425
     24 C17        -6.1030    3.2060    6.8870 C.3       1 <0>         0.3604
     25 F1         -6.7608    2.0469    6.4617 F         1 <0>        -0.1880
     26 F2         -5.9517    3.1729    8.2774 F         1 <0>        -0.1860
     27 H1          3.5035    4.9020    4.7705 H         1 <0>         0.0601
     28 H2          4.6677    5.3035    6.0556 H         1 <0>         0.1052
     29 H3          3.7086    3.8077    6.1592 H         1 <0>         0.0589
     30 H4          0.5655    6.6021    7.6847 H         1 <0>         0.1415
     31 H5         -1.7442    5.8083    7.4019 H         1 <0>         0.1404
     32 H6         -0.3491    2.7199    4.7743 H         1 <0>         0.1263
     33 H7          1.9554    3.5283    5.0583 H         1 <0>         0.1369
     34 H8         -3.5530    4.3684    7.7464 H         1 <0>         0.1678
     35 H9         -3.1484    0.7130    3.6022 H         1 <0>         0.1459
     36 H10        -1.8898    0.0909    1.5808 H         1 <0>         0.1546
     37 H11        -0.1666    3.9903    1.4425 H         1 <0>         0.1544
     38 H12        -1.4279    4.6250    3.4584 H         1 <0>         0.1439
     39 H13        -1.2807    1.2275   -1.9789 H         1 <0>         0.4242
     40 H14        -1.2943    2.8409   -1.5106 H         1 <0>         0.4199
     41 H15        -6.6897    4.0806    6.6061 H         1 <0>         0.1371
@<TRIPOS>BOND
     1    1    2 1
     2    1   27 1
     3    1   28 1
     4    1   29 1
     5    2    3 1
     6    3    8 ar
     7    3    4 ar
     8    4    5 ar
     9    4   30 1
    10    5    6 ar
    11    5   31 1
    12    6    7 ar
    13    6    9 1
    14    7    8 ar
    15    7   32 1
    16    8   33 1
    17    9   13 1
    18    9   10 2
    19   10   11 1
    20   10   34 1
    21   11   12 2
    22   11   24 1
    23   12   13 1
    24   13   14 1
    25   14   19 ar
    26   14   15 ar
    27   15   16 ar
    28   15   35 1
    29   16   17 ar
    30   16   36 1
    31   17   18 ar
    32   17   20 1
    33   18   19 ar
    34   18   37 1
    35   19   38 1
    36   20   21 2
    37   20   22 2
    38   20   23 1
    39   23   39 1
    40   23   40 1
    41   24   25 1
    42   24   26 1
    43   24   41 1
@<TRIPOS>MOLECULE
ZINC00601201
   38    40     0     0     0
SMALL
USER_CHARGES

@<TRIPOS>ATOM
      1 C1         -0.1496    3.5711    5.4104 C.ar      1 <0>        -0.0954
      2 C2          1.1426    4.0264    5.5715 C.ar      1 <0>        -0.1050
      3 C3          1.3993    5.1142    6.3888 C.ar      1 <0>        -0.0221
      4 C4          0.3615    5.7543    7.0449 C.ar      1 <0>        -0.1060
      5 C5         -0.9353    5.3112    6.8871 C.ar      1 <0>        -0.0734
      6 C6         -1.2002    4.2157    6.0645 C.ar      1 <0>        -0.0383
      7 C7         -2.5886    3.7358    5.8912 C.2       1 <0>         0.1232
      8 C8         -3.6140    3.8835    6.7825 C.2       1 <0>        -0.2061
      9 C9         -4.7477    3.2832    6.2338 C.2       1 <0>         0.0840
     10 N1         -4.4360    2.7951    5.0595 N.2       1 <0>        -0.2678
     11 N2         -3.0845    3.0653    4.8097 N.pl3     1 <0>        -0.3345
     12 C10        -2.3687    2.7070    3.6601 C.ar      1 <0>         0.2120
     13 C11        -2.4966    1.4296    3.1308 C.ar      1 <0>        -0.1299
     14 C12        -1.7893    1.0793    1.9975 C.ar      1 <0>         0.0020
     15 C13        -0.9547    1.9992    1.3896 C.ar      1 <0>        -0.6785
     16 C14        -0.8209    3.2703    1.9175 C.ar      1 <0>         0.0006
     17 C15        -1.5295    3.6284    3.0476 C.ar      1 <0>        -0.1407
     18 S1         -0.0544    1.5485   -0.0564 S.o2      1 <0>         2.7033
     19 O1          0.0707    0.1333   -0.0323 O.2       1 <0>        -0.9586
     20 O2          1.0724    2.4120   -0.1188 O.2       1 <0>        -0.9581
     21 N3         -1.0061    1.9174   -1.3605 N.pl3     1 <0>        -1.2491
     22 C16        -6.1051    3.2092    6.8843 C.3       1 <0>         0.1588
     23 O3         -6.0578    3.8521    8.1597 O.3       1 <0>        -0.5657
     24 Cl1         3.0288    5.6775    6.5921 Cl        1 <0>        -0.0585
     25 H1         -0.3483    2.7200    4.7759 H         1 <0>         0.1323
     26 H2          1.9560    3.5310    5.0622 H         1 <0>         0.1416
     27 H3          0.5677    6.6019    7.6817 H         1 <0>         0.1431
     28 H4         -1.7440    5.8109    7.3996 H         1 <0>         0.1425
     29 H5         -3.5560    4.3738    7.7430 H         1 <0>         0.1645
     30 H6         -3.1482    0.7107    3.6051 H         1 <0>         0.1459
     31 H7         -1.8883    0.0859    1.5854 H         1 <0>         0.1556
     32 H8         -0.1647    3.9850    1.4432 H         1 <0>         0.1560
     33 H9         -1.4277    4.6226    3.4570 H         1 <0>         0.1431
     34 H10        -1.8835    2.3083   -1.2255 H         1 <0>         0.4175
     35 H11        -0.6861    1.7426   -2.2593 H         1 <0>         0.4229
     36 H12        -6.8387    3.7096    6.2522 H         1 <0>         0.0729
     37 H13        -6.3894    2.1650    7.0141 H         1 <0>         0.0731
     38 H14        -6.8990    3.8425    8.6364 H         1 <0>         0.3927
@<TRIPOS>BOND
     1    1    6 ar
     2    1    2 ar
     3    1   25 1
     4    2    3 ar
     5    2   26 1
     6    3    4 ar
     7    3   24 1
     8    4    5 ar
     9    4   27 1
    10    5    6 ar
    11    5   28 1
    12    6    7 1
    13    7   11 1
    14    7    8 2
    15    8    9 1
    16    8   29 1
    17    9   10 2
    18    9   22 1
    19   10   11 1
    20   11   12 1
    21   12   17 ar
    22   12   13 ar
    23   13   14 ar
    24   13   30 1
    25   14   15 ar
    26   14   31 1
    27   15   16 ar
    28   15   18 1
    29   16   17 ar
    30   16   32 1
    31   17   33 1
    32   18   19 2
    33   18   20 2
    34   18   21 1
    35   21   34 1
    36   21   35 1
    37   22   23 1
    38   22   36 1
    39   22   37 1
    40   23   38 1
@<TRIPOS>MOLECULE
ZINC00601695
   37    39     0     0     0
SMALL
USER_CHARGES

@<TRIPOS>ATOM
      1 C1         -2.5614    1.4035    3.1174 C.ar      1 <0>        -0.1256
      2 C2         -1.8458    1.0302    1.9981 C.ar      1 <0>        -0.0126
      3 C3         -0.9267    1.9002    1.4394 C.ar      1 <0>        -0.6731
      4 C4         -0.7149    3.1461    2.0020 C.ar      1 <0>        -0.0184
      5 C5         -1.4284    3.5324    3.1183 C.ar      1 <0>        -0.1166
      6 C6         -2.3563    2.6600    3.6855 C.ar      1 <0>         0.0041
      7 C7         -3.1214    3.0667    4.8881 C.ar      1 <0>        -0.0276
      8 C8         -4.5064    2.9269    4.9161 C.ar      1 <0>        -0.1051
      9 C9         -5.2166    3.3071    6.0388 C.ar      1 <0>         0.0784
     10 C10        -4.5551    3.8295    7.1429 C.ar      1 <0>         0.0819
     11 C11        -3.1810    3.9741    7.1285 C.ar      1 <0>        -0.1086
     12 C12        -2.4523    3.5893    6.0061 C.ar      1 <0>        -0.0107
     13 C13        -0.9776    3.7368    5.9894 C.ar      1 <0>        -0.0566
     14 C14        -0.3918    4.9480    6.3557 C.ar      1 <0>        -0.0693
     15 C15         0.9812    5.0811    6.3393 C.ar      1 <0>        -0.1383
     16 C16         1.7786    4.0138    5.9592 C.ar      1 <0>         0.1217
     17 C17         1.2013    2.8074    5.5936 C.ar      1 <0>        -0.0730
     18 C18        -0.1719    2.6633    5.6130 C.ar      1 <0>        -0.0590
     19 Cl1         2.2063    1.4741    5.1182 Cl        1 <0>        -0.0370
     20 F1          3.1228    4.1490    5.9442 F         1 <0>        -0.1206
     21 F2         -5.2586    4.1982    8.2358 F         1 <0>        -0.1204
     22 F3         -6.5603    3.1697    6.0629 F         1 <0>        -0.1208
     23 S1         -0.0172    1.4168    0.0098 S.o2      1 <0>         2.6982
     24 O1          0.0021   -0.0041    0.0020 O.2       1 <0>        -0.9561
     25 O2          1.1718    2.1948    0.0027 O.2       1 <0>        -0.9531
     26 N1         -0.8975    1.8855   -1.3122 N.pl3     1 <0>        -1.2439
     27 H1         -3.2786    0.7235    3.5527 H         1 <0>         0.1389
     28 H2         -2.0038    0.0571    1.5571 H         1 <0>         0.1466
     29 H3          0.0073    3.8193    1.5644 H         1 <0>         0.1451
     30 H4         -1.2651    4.5069    3.5543 H         1 <0>         0.1356
     31 H5         -5.0257    2.5217    4.0603 H         1 <0>         0.1550
     32 H6         -2.6718    4.3811    7.9895 H         1 <0>         0.1560
     33 H7         -1.0122    5.7808    6.6523 H         1 <0>         0.1456
     34 H8          1.4353    6.0190    6.6230 H         1 <0>         0.1521
     35 H9         -0.6211    1.7221    5.3324 H         1 <0>         0.1446
     36 H10        -1.2009    1.2230   -1.9525 H         1 <0>         0.4232
     37 H11        -1.1097    2.8224   -1.4463 H         1 <0>         0.4192
@<TRIPOS>BOND
     1    1    6 ar
     2    1    2 ar
     3    1   27 1
     4    2    3 ar
     5    2   28 1
     6    3    4 ar
     7    3   23 1
     8    4    5 ar
     9    4   29 1
    10    5    6 ar
    11    5   30 1
    12    6    7 1
    13    7   12 ar
    14    7    8 ar
    15    8    9 ar
    16    8   31 1
    17    9   10 ar
    18    9   22 1
    19   10   11 ar
    20   10   21 1
    21   11   12 ar
    22   11   32 1
    23   12   13 1
    24   13   18 ar
    25   13   14 ar
    26   14   15 ar
    27   14   33 1
    28   15   16 ar
    29   15   34 1
    30   16   17 ar
    31   16   20 1
    32   17   18 ar
    33   17   19 1
    34   18   35 1
    35   23   24 2
    36   23   25 2
    37   23   26 1
    38   26   36 1
    39   26   37 1
@<TRIPOS>MOLECULE
ZINC00601816
   38    41     0     0     0
SMALL
USER_CHARGES

@<TRIPOS>ATOM
      1 C1         -1.1345    2.0336   -1.2793 C.3       1 <0>        -0.6504
      2 S1         -0.0172    1.4168    0.0098 S.o2      1 <0>         2.4988
      3 O1          0.0021   -0.0041    0.0020 O.2       1 <0>        -0.9351
      4 O2          1.1953    2.1578    0.0022 O.2       1 <0>        -0.9335
      5 C2         -0.7978    1.8475    1.5296 C.ar      1 <0>        -0.6569
      6 C3         -0.5184    3.0644    2.1265 C.ar      1 <0>        -0.0167
      7 C4         -1.1292    3.4104    3.3136 C.ar      1 <0>        -0.1099
      8 C5         -2.0245    2.5243    3.9189 C.ar      1 <0>         0.0404
      9 C6         -2.2977    1.2951    3.3129 C.ar      1 <0>        -0.1327
     10 C7         -1.6829    0.9648    2.1234 C.ar      1 <0>        -0.0170
     11 C8         -2.6783    2.8851    5.1908 C.2       1 <0>         0.0135
     12 C9         -2.0697    3.4453    6.2962 C.2       1 <0>         0.1199
     13 N1         -3.0125    3.6176    7.2401 N.2       1 <0>        -0.4286
     14 C10        -4.1588    3.1989    6.7837 C.2       1 <0>         0.1849
     15 N2         -4.0328    2.7297    5.5024 N.pl3     1 <0>        -0.4210
     16 C11        -5.1733    2.2484    4.8988 C.2       1 <0>         0.0232
     17 C12        -6.3405    2.2556    5.5411 C.2       1 <0>        -0.1690
     18 S2         -5.8905    2.9667    7.1163 S.3       1 <0>         0.1444
     19 C13        -0.6354    3.7939    6.4206 C.ar      1 <0>        -0.0203
     20 C14         0.3342    2.9963    5.8131 C.ar      1 <0>        -0.0970
     21 C15         1.6684    3.3291    5.9282 C.ar      1 <0>        -0.1182
     22 C16         2.0457    4.4451    6.6535 C.ar      1 <0>        -0.1071
     23 C17         1.0890    5.2371    7.2628 C.ar      1 <0>        -0.1202
     24 C18        -0.2486    4.9176    7.1505 C.ar      1 <0>        -0.0846
     25 H1         -2.1080    1.5544   -1.1761 H         1 <0>         0.1313
     26 H2         -1.2479    3.1127   -1.1759 H         1 <0>         0.1321
     27 H3         -0.7188    1.8043   -2.2605 H         1 <0>         0.1347
     28 H4          0.1768    3.7464    1.6597 H         1 <0>         0.1495
     29 H5         -0.9134    4.3621    3.7762 H         1 <0>         0.1390
     30 H6         -2.9882    0.6052    3.7752 H         1 <0>         0.1305
     31 H7         -1.8931    0.0151    1.6540 H         1 <0>         0.1474
     32 H8         -5.1217    1.8648    3.8906 H         1 <0>         0.1748
     33 H9         -7.3077    1.9188    5.1982 H         1 <0>         0.2212
     34 H10         0.0411    2.1224    5.2504 H         1 <0>         0.1217
     35 H11         2.4198    2.7146    5.4548 H         1 <0>         0.1279
     36 H12         3.0915    4.6992    6.7442 H         1 <0>         0.1261
     37 H13         1.3897    6.1071    7.8277 H         1 <0>         0.1278
     38 H14        -0.9947    5.5367    7.6266 H         1 <0>         0.1288
@<TRIPOS>BOND
     1    1    2 1
     2    1   25 1
     3    1   26 1
     4    1   27 1
     5    2    3 2
     6    2    4 2
     7    2    5 1
     8    5   10 ar
     9    5    6 ar
    10    6    7 ar
    11    6   28 1
    12    7    8 ar
    13    7   29 1
    14    8    9 ar
    15    8   11 1
    16    9   10 ar
    17    9   30 1
    18   10   31 1
    19   11   15 1
    20   11   12 2
    21   12   13 1
    22   12   19 1
    23   13   14 2
    24   14   18 1
    25   14   15 1
    26   15   16 1
    27   16   17 2
    28   16   32 1
    29   17   18 1
    30   17   33 1
    31   19   24 ar
    32   19   20 ar
    33   20   21 ar
    34   20   34 1
    35   21   22 ar
    36   21   35 1
    37   22   23 ar
    38   22   36 1
    39   23   24 ar
    40   23   37 1
    41   24   38 1
@<TRIPOS>MOLECULE
ZINC00601817
   37    40     0     0     0
SMALL
USER_CHARGES

@<TRIPOS>ATOM
      1 C1         -0.9329   -8.5973   -3.0271 C.3       1 <0>        -0.6499
      2 S1          0.3224   -8.4556   -1.7253 S.o2      1 <0>         2.4979
      3 O1          1.6125   -8.7217   -2.2584 O.2       1 <0>        -0.9337
      4 O2         -0.1219   -9.1082   -0.5438 O.2       1 <0>        -0.9339
      5 C2          0.3521   -6.7437   -1.3093 C.ar      1 <0>        -0.6501
      6 C3         -0.4793   -6.2625   -0.3134 C.ar      1 <0>        -0.0181
      7 C4         -0.4615   -4.9234    0.0171 C.ar      1 <0>        -0.1173
      8 C5          0.3985   -4.0529   -0.6557 C.ar      1 <0>         0.0532
      9 C6          1.2309   -4.5444   -1.6633 C.ar      1 <0>        -0.1041
     10 C7          1.2064   -5.8866   -1.9803 C.ar      1 <0>        -0.0178
     11 C8          0.4230   -2.6178   -0.3072 C.2       1 <0>        -0.1356
     12 C9          1.4933   -1.8081   -0.0685 C.2       1 <0>         0.1659
     13 N1          1.2926   -0.4811    0.2453 N.pl3     1 <0>        -0.3430
     14 C10         0.0086   -0.0372    0.3019 C.2       1 <0>         0.2208
     15 S2         -0.9418   -1.4869   -0.0873 S.3       1 <0>         0.2018
     16 N2         -0.0034    1.2313    0.6093 N.2       1 <0>        -0.4894
     17 C11         1.2482    1.6586    0.7628 C.2       1 <0>         0.2391
     18 N3          2.0703    0.6659    0.5542 N.2       1 <0>        -0.2911
     19 C12         2.8638   -2.3510   -0.1462 C.ar      1 <0>        -0.0605
     20 C13         3.2185   -3.4715    0.6087 C.ar      1 <0>        -0.0815
     21 C14         4.4994   -3.9766    0.5271 C.ar      1 <0>        -0.1175
     22 C15         5.4354   -3.3690   -0.2912 C.ar      1 <0>        -0.0966
     23 C16         5.0925   -2.2554   -1.0377 C.ar      1 <0>        -0.1184
     24 C17         3.8137   -1.7430   -0.9704 C.ar      1 <0>        -0.0783
     25 H1         -0.6448   -7.9804   -3.8784 H         1 <0>         0.1326
     26 H2         -1.0131   -9.6375   -3.3429 H         1 <0>         0.1349
     27 H3         -1.8950   -8.2591   -2.6425 H         1 <0>         0.1328
     28 H4         -1.1439   -6.9369    0.2062 H         1 <0>         0.1511
     29 H5         -1.1114   -4.5490    0.7941 H         1 <0>         0.1410
     30 H6          1.8950   -3.8757   -2.1909 H         1 <0>         0.1373
     31 H7          1.8524   -6.2687   -2.7569 H         1 <0>         0.1498
     32 H8          1.5377    2.6671    1.0190 H         1 <0>         0.2404
     33 H9          2.4904   -3.9438    1.2515 H         1 <0>         0.1255
     34 H10         4.7738   -4.8455    1.1067 H         1 <0>         0.1315
     35 H11         6.4382   -3.7659   -0.3478 H         1 <0>         0.1294
     36 H12         5.8278   -1.7866   -1.6749 H         1 <0>         0.1299
     37 H13         3.5473   -0.8741   -1.5539 H         1 <0>         0.1218
@<TRIPOS>BOND
     1    1    2 1
     2    1   25 1
     3    1   26 1
     4    1   27 1
     5    2    3 2
     6    2    4 2
     7    2    5 1
     8    5   10 ar
     9    5    6 ar
    10    6    7 ar
    11    6   28 1
    12    7    8 ar
    13    7   29 1
    14    8    9 ar
    15    8   11 1
    16    9   10 ar
    17    9   30 1
    18   10   31 1
    19   11   15 1
    20   11   12 2
    21   12   13 1
    22   12   19 1
    23   13   18 1
    24   13   14 1
    25   14   15 1
    26   14   16 2
    27   16   17 1
    28   17   18 2
    29   17   32 1
    30   19   24 ar
    31   19   20 ar
    32   20   21 ar
    33   20   33 1
    34   21   22 ar
    35   21   34 1
    36   22   23 ar
    37   22   35 1
    38   23   24 ar
    39   23   36 1
    40   24   37 1
@<TRIPOS>MOLECULE
ZINC00601833
   37    39     0     0     0
SMALL
USER_CHARGES

@<TRIPOS>ATOM
      1 C1          3.5818   -1.4208    4.2712 C.3       1 <0>        -0.1455
      2 C2          2.4897   -0.5677    4.9197 C.3       1 <0>        -0.0520
      3 C3          1.2385   -0.6319    4.0822 C.2       1 <0>         0.0697
      4 C4          0.0586   -1.0136    4.6276 C.2       1 <0>        -0.2058
      5 S1         -1.0187   -0.8943    3.2070 S.3       1 <0>         0.0669
      6 C5          0.1760   -0.3719    2.0602 C.2       1 <0>         0.0124
      7 N1          1.2673   -0.3180    2.8011 N.2       1 <0>        -0.4718
      8 S2         -0.0196   -0.0013    0.3488 S.3       1 <0>         0.1798
      9 C6         -1.7027   -0.4719    0.1243 C.ar      1 <0>        -0.2177
     10 C7         -2.6847    0.4974    0.0380 C.ar      1 <0>         0.0621
     11 C8         -4.0191    0.1213   -0.1450 C.ar      1 <0>        -0.2226
     12 C9         -4.3489   -1.2367   -0.2290 C.ar      1 <0>        -0.0264
     13 C10        -3.3724   -2.1980   -0.1377 C.ar      1 <0>        -0.1709
     14 C11        -2.0438   -1.8252    0.0395 C.ar      1 <0>         0.2600
     15 N2         -1.0536   -2.7999    0.1320 N.pl3     1 <0>        -1.0495
     16 S3         -1.2036   -4.2156   -0.7138 S.o2      1 <0>         2.5974
     17 O1          0.0084   -4.9153   -0.4676 O.2       1 <0>        -0.9328
     18 O2         -2.4499   -4.7565   -0.2973 O.2       1 <0>        -0.9388
     19 C12        -1.2917   -3.7117   -2.4542 C.3       1 <0>        -0.6653
     20 C13        -5.8443   -1.2977   -0.4171 C.3       1 <0>         0.0852
     21 O3         -6.3118    0.0789   -0.4319 O.3       1 <0>        -0.3119
     22 C14        -5.2602    0.9005   -0.2749 C.2       1 <0>         0.5260
     23 O4         -5.3250    2.1136   -0.2450 O.2       1 <0>        -0.4421
     24 H1          4.4868   -1.3744    4.8769 H         1 <0>         0.0607
     25 H2          3.2428   -2.4545    4.2029 H         1 <0>         0.0526
     26 H3          3.7937   -1.0411    3.2716 H         1 <0>         0.0643
     27 H4          2.8286    0.4660    4.9880 H         1 <0>         0.0815
     28 H5          2.2777   -0.9474    5.9192 H         1 <0>         0.0811
     29 H6         -0.1691   -1.3052    5.6422 H         1 <0>         0.2011
     30 H7         -2.4214    1.5425    0.1076 H         1 <0>         0.1582
     31 H8         -3.6358   -3.2434   -0.2032 H         1 <0>         0.1844
     32 H9         -0.2759   -2.6495    0.6920 H         1 <0>         0.4334
     33 H10        -0.3818   -3.1755   -2.7237 H         1 <0>         0.1390
     34 H11        -1.3924   -4.5958   -3.0838 H         1 <0>         0.1423
     35 H12        -2.1538   -3.0610   -2.6009 H         1 <0>         0.1331
     36 H13        -6.0829   -1.7840   -1.3630 H         1 <0>         0.1307
     37 H14        -6.3036   -1.8400    0.4093 H         1 <0>         0.1310
@<TRIPOS>BOND
     1    1    2 1
     2    1   24 1
     3    1   25 1
     4    1   26 1
     5    2    3 1
     6    2   27 1
     7    2   28 1
     8    3    7 1
     9    3    4 2
    10    4    5 1
    11    4   29 1
    12    5    6 1
    13    6    7 2
    14    6    8 1
    15    8    9 1
    16    9   14 ar
    17    9   10 ar
    18   10   11 ar
    19   10   30 1
    20   11   22 1
    21   11   12 ar
    22   12   13 ar
    23   12   20 1
    24   13   14 ar
    25   13   31 1
    26   14   15 1
    27   15   16 1
    28   15   32 1
    29   16   17 2
    30   16   18 2
    31   16   19 1
    32   19   33 1
    33   19   34 1
    34   19   35 1
    35   20   21 1
    36   20   36 1
    37   20   37 1
    38   21   22 1
    39   22   23 2
@<TRIPOS>MOLECULE
ZINC00601834
   44    46     0     0     0
SMALL
USER_CHARGES

@<TRIPOS>ATOM
      1 C1         -6.5174    3.3874    7.9907 C.3       1 <0>         0.0347
      2 O1         -5.9813    3.0125    6.7202 O.3       1 <0>        -0.2968
      3 C2         -4.6382    3.1218    6.5620 C.ar      1 <0>         0.3381
      4 C3         -4.0634    2.7772    5.3472 C.ar      1 <0>        -0.1403
      5 C4         -2.6822    2.8872    5.1956 C.ar      1 <0>         0.0357
      6 C5         -1.9287    3.3586    6.2897 C.ar      1 <0>        -0.0690
      7 C6         -2.5888    3.6867    7.4688 C.ar      1 <0>         0.0974
      8 N1         -3.8973    3.5607    7.5669 N.ar      1 <0>        -0.4983
      9 C7         -1.7989    4.1926    8.6483 C.3       1 <0>         0.5231
     10 F1         -1.7062    5.5871    8.5839 F         1 <0>        -0.1674
     11 F2         -2.4425    3.8223    9.8340 F         1 <0>        -0.1619
     12 F3         -0.5147    3.6382    8.6220 F         1 <0>        -0.1585
     13 C8         -0.4572    3.5026    6.1849 C.ar      1 <0>        -0.0679
     14 C9          0.3455    2.3752    6.0159 C.ar      1 <0>        -0.0603
     15 C10         1.7142    2.5147    5.9135 C.ar      1 <0>        -0.1459
     16 C11         2.2922    3.7717    5.9894 C.ar      1 <0>         0.1134
     17 C12         1.4990    4.8945    6.1625 C.ar      1 <0>        -0.1442
     18 C13         0.1290    4.7653    6.2606 C.ar      1 <0>        -0.0786
     19 F4          3.6334    3.9030    5.8938 F         1 <0>        -0.1341
     20 C14        -2.0248    2.5245    3.9175 C.ar      1 <0>        -0.0033
     21 C15        -2.2974    1.2978    3.3138 C.ar      1 <0>        -0.1164
     22 C16        -1.6827    0.9657    2.1238 C.ar      1 <0>        -0.0208
     23 C17        -0.7978    1.8475    1.5296 C.ar      1 <0>        -0.6495
     24 C18        -0.5191    3.0637    2.1269 C.ar      1 <0>        -0.0202
     25 C19        -1.1317    3.4089    3.3143 C.ar      1 <0>        -0.1078
     26 S1         -0.0172    1.4168    0.0098 S.o2      1 <0>         2.4967
     27 O2          0.0021   -0.0041    0.0020 O.2       1 <0>        -0.9341
     28 O3          1.1953    2.1578    0.0022 O.2       1 <0>        -0.9333
     29 C20        -1.1345    2.0336   -1.2793 C.3       1 <0>        -0.6498
     30 H1         -6.2832    4.4332    8.1896 H         1 <0>         0.0640
     31 H2         -7.5990    3.2525    7.9827 H         1 <0>         0.1046
     32 H3         -6.0790    2.7625    8.7688 H         1 <0>         0.0649
     33 H4         -4.6772    2.4248    4.5315 H         1 <0>         0.1612
     34 H5         -0.1039    1.3947    5.9611 H         1 <0>         0.1330
     35 H6          2.3364    1.6424    5.7785 H         1 <0>         0.1415
     36 H7          1.9540    5.8722    6.2211 H         1 <0>         0.1424
     37 H8         -0.4885    5.6410    6.3963 H         1 <0>         0.1354
     38 H9         -2.9881    0.6086    3.7768 H         1 <0>         0.1393
     39 H10        -1.8931    0.0157    1.6552 H         1 <0>         0.1489
     40 H11         0.1763    3.7462    1.6609 H         1 <0>         0.1478
     41 H12        -0.9164    4.3604    3.7776 H         1 <0>         0.1366
     42 H13        -2.1080    1.5544   -1.1761 H         1 <0>         0.1324
     43 H14        -1.2479    3.1127   -1.1759 H         1 <0>         0.1323
     44 H15        -0.7188    1.8043   -2.2605 H         1 <0>         0.1348
@<TRIPOS>BOND
     1    1    2 1
     2    1   30 1
     3    1   31 1
     4    1   32 1
     5    2    3 1
     6    3    8 ar
     7    3    4 ar
     8    4    5 ar
     9    4   33 1
    10    5    6 ar
    11    5   20 1
    12    6    7 ar
    13    6   13 1
    14    7    8 ar
    15    7    9 1
    16    9   10 1
    17    9   11 1
    18    9   12 1
    19   13   18 ar
    20   13   14 ar
    21   14   15 ar
    22   14   34 1
    23   15   16 ar
    24   15   35 1
    25   16   17 ar
    26   16   19 1
    27   17   18 ar
    28   17   36 1
    29   18   37 1
    30   20   25 ar
    31   20   21 ar
    32   21   22 ar
    33   21   38 1
    34   22   23 ar
    35   22   39 1
    36   23   24 ar
    37   23   26 1
    38   24   25 ar
    39   24   40 1
    40   25   41 1
    41   26   27 2
    42   26   28 2
    43   26   29 1
    44   29   42 1
    45   29   43 1
    46   29   44 1
@<TRIPOS>MOLECULE
ZINC00601905
   42    44     0     0     0
SMALL
USER_CHARGES

@<TRIPOS>ATOM
      1 C1         -3.4486    4.3833    9.8094 C.3       1 <0>         0.0349
      2 O1         -4.3446    3.9228    8.7960 O.3       1 <0>        -0.2945
      3 C2         -3.8005    3.5786    7.6042 C.ar      1 <0>         0.3845
      4 C3         -4.6317    3.1184    6.5685 C.ar      1 <0>        -0.0971
      5 C4         -4.0593    2.7653    5.3422 C.ar      1 <0>         0.0305
      6 C5         -2.6790    2.8855    5.1979 C.ar      1 <0>        -0.1441
      7 C6         -1.9158    3.3485    6.2828 C.ar      1 <0>         0.2680
      8 N1         -2.4960    3.6790    7.4297 N.ar      1 <0>        -0.5256
      9 C7         -0.4475    3.4750    6.1430 C.ar      1 <0>        -0.0835
     10 C8          0.2642    2.5539    5.3737 C.ar      1 <0>        -0.0539
     11 C9          1.6315    2.6783    5.2434 C.ar      1 <0>        -0.1573
     12 C10         2.2998    3.7107    5.8825 C.ar      1 <0>         0.1262
     13 C11         1.5979    4.6255    6.6517 C.ar      1 <0>        -0.1612
     14 C12         0.2300    4.5123    6.7847 C.ar      1 <0>        -0.0409
     15 F1          3.6399    3.8256    5.7556 F         1 <0>        -0.1321
     16 C13        -2.0234    2.5237    3.9184 C.ar      1 <0>         0.0155
     17 C14        -2.2964    1.2972    3.3145 C.ar      1 <0>        -0.1308
     18 C15        -1.6827    0.9657    2.1238 C.ar      1 <0>        -0.0173
     19 C16        -0.7978    1.8475    1.5296 C.ar      1 <0>        -0.6568
     20 C17        -0.5190    3.0637    2.1269 C.ar      1 <0>        -0.0198
     21 C18        -1.1311    3.4085    3.3148 C.ar      1 <0>        -0.1178
     22 S1         -0.0172    1.4168    0.0098 S.o2      1 <0>         2.4968
     23 O2          0.0021   -0.0041    0.0020 O.2       1 <0>        -0.9353
     24 O3          1.1953    2.1578    0.0022 O.2       1 <0>        -0.9344
     25 C19        -1.1345    2.0336   -1.2793 C.3       1 <0>        -0.6505
     26 C20        -6.0460    3.0121    6.7664 C.1       1 <0>         0.2592
     27 N2         -7.1679    2.9277    6.9234 N.1       1 <0>        -0.3960
     28 H1         -4.0124    4.6247   10.7105 H         1 <0>         0.1041
     29 H2         -2.7217    3.6026   10.0339 H         1 <0>         0.0674
     30 H3         -2.9281    5.2738    9.4570 H         1 <0>         0.0667
     31 H4         -4.6721    2.4088    4.5275 H         1 <0>         0.1603
     32 H5         -0.2551    1.7468    4.8784 H         1 <0>         0.1403
     33 H6          2.1829    1.9678    4.6454 H         1 <0>         0.1436
     34 H7          2.1232    5.4280    7.1481 H         1 <0>         0.1429
     35 H8         -0.3160    5.2251    7.3849 H         1 <0>         0.1414
     36 H9         -2.9870    0.6080    3.7775 H         1 <0>         0.1387
     37 H10        -1.8934    0.0158    1.6550 H         1 <0>         0.1473
     38 H11         0.1761    3.7463    1.6608 H         1 <0>         0.1464
     39 H12        -0.9156    4.3598    3.7783 H         1 <0>         0.1362
     40 H13        -2.1080    1.5544   -1.1761 H         1 <0>         0.1320
     41 H14        -1.2479    3.1127   -1.1759 H         1 <0>         0.1321
     42 H15        -0.7188    1.8043   -2.2605 H         1 <0>         0.1340
@<TRIPOS>BOND
     1    1    2 1
     2    1   28 1
     3    1   29 1
     4    1   30 1
     5    2    3 1
     6    3    8 ar
     7    3    4 ar
     8    4    5 ar
     9    4   26 1
    10    5    6 ar
    11    5   31 1
    12    6    7 ar
    13    6   16 1
    14    7    8 ar
    15    7    9 1
    16    9   14 ar
    17    9   10 ar
    18   10   11 ar
    19   10   32 1
    20   11   12 ar
    21   11   33 1
    22   12   13 ar
    23   12   15 1
    24   13   14 ar
    25   13   34 1
    26   14   35 1
    27   16   21 ar
    28   16   17 ar
    29   17   18 ar
    30   17   36 1
    31   18   19 ar
    32   18   37 1
    33   19   20 ar
    34   19   22 1
    35   20   21 ar
    36   20   38 1
    37   21   39 1
    38   22   23 2
    39   22   24 2
    40   22   25 1
    41   25   40 1
    42   25   41 1
    43   25   42 1
    44   26   27 3
@<TRIPOS>MOLECULE
ZINC00602119
   37    39     0     0     0
SMALL
USER_CHARGES

@<TRIPOS>ATOM
      1 C1         -1.2426    3.3106   -1.3898 C.3       1 <0>        -0.6490
      2 S1         -0.0699    2.5568   -0.2292 S.o2      1 <0>         2.4987
      3 O1          0.0170    1.1575   -0.4609 O.2       1 <0>        -0.9294
      4 O2          1.1055    3.3500   -0.1366 O.2       1 <0>        -0.9281
      5 C2         -0.8374    2.7042    1.3500 C.ar      1 <0>        -0.6491
      6 C3         -0.6051    3.8234    2.1282 C.ar      1 <0>        -0.0029
      7 C4         -1.2092    3.9441    3.3644 C.ar      1 <0>        -0.1243
      8 C5         -2.0422    2.9356    3.8299 C.ar      1 <0>         0.1527
      9 C6         -2.2693    1.8107    3.0484 C.ar      1 <0>        -0.1269
     10 C7         -1.6662    1.6979    1.8110 C.ar      1 <0>        -0.0038
     11 N1         -2.6530    3.0532    5.0856 N.pl3     1 <0>        -0.4119
     12 C8         -3.9977    3.0007    5.3471 C.2       1 <0>         0.0392
     13 C9         -4.1473    3.1567    6.6783 C.2       1 <0>        -0.0821
     14 N2         -2.9352    3.3015    7.2263 N.2       1 <0>        -0.4266
     15 C10        -2.0213    3.2360    6.2836 C.2       1 <0>         0.2812
     16 C11        -0.5604    3.3456    6.4844 C.ar      1 <0>        -0.0833
     17 C12        -0.0437    3.9312    7.6461 C.ar      1 <0>        -0.0272
     18 C13         1.3307    4.0095    7.7856 C.ar      1 <0>        -0.1676
     19 C14         2.1426    3.5114    6.7822 C.ar      1 <0>         0.1157
     20 N3          1.6274    2.9646    5.6980 N.ar      1 <0>        -0.4738
     21 C15         0.3262    2.8618    5.5219 C.ar      1 <0>         0.1163
     22 C16        -5.4576    3.1660    7.4226 C.3       1 <0>         0.5575
     23 F1         -5.7800    1.8625    7.8153 F         1 <0>        -0.1698
     24 F2         -5.3450    3.9799    8.5549 F         1 <0>        -0.1641
     25 F3         -6.4642    3.6641    6.5884 F         1 <0>        -0.1711
     26 H1         -2.1898    2.7727   -1.3500 H         1 <0>         0.1333
     27 H2         -1.4051    4.3532   -1.1162 H         1 <0>         0.1332
     28 H3         -0.8376    3.2590   -2.4004 H         1 <0>         0.1372
     29 H4          0.0459    4.6059    1.7672 H         1 <0>         0.1584
     30 H5         -1.0307    4.8204    3.9700 H         1 <0>         0.1434
     31 H6         -2.9171    1.0247    3.4077 H         1 <0>         0.1474
     32 H7         -1.8424    0.8231    1.2027 H         1 <0>         0.1590
     33 H8         -4.7876    2.8603    4.6241 H         1 <0>         0.2004
     34 H9         -0.7009    4.3125    8.4136 H         1 <0>         0.1500
     35 H10         1.7651    4.4546    8.6685 H         1 <0>         0.1477
     36 H11         3.2157    3.5709    6.8886 H         1 <0>         0.1656
     37 H12        -0.0578    2.4031    4.6227 H         1 <0>         0.1540
@<TRIPOS>BOND
     1    1    2 1
     2    1   26 1
     3    1   27 1
     4    1   28 1
     5    2    3 2
     6    2    4 2
     7    2    5 1
     8    5   10 ar
     9    5    6 ar
    10    6    7 ar
    11    6   29 1
    12    7    8 ar
    13    7   30 1
    14    8    9 ar
    15    8   11 1
    16    9   10 ar
    17    9   31 1
    18   10   32 1
    19   11   15 1
    20   11   12 1
    21   12   13 2
    22   12   33 1
    23   13   14 1
    24   13   22 1
    25   14   15 2
    26   15   16 1
    27   16   21 ar
    28   16   17 ar
    29   17   18 ar
    30   17   34 1
    31   18   19 ar
    32   18   35 1
    33   19   20 ar
    34   19   36 1
    35   20   21 ar
    36   21   37 1
    37   22   23 1
    38   22   24 1
    39   22   25 1
@<TRIPOS>MOLECULE
ZINC00602119
   37    39     0     0     0
SMALL
USER_CHARGES

@<TRIPOS>ATOM
      1 C1         -1.2426    3.3106   -1.3898 C.3       1 <0>        -0.6490
      2 S1         -0.0699    2.5568   -0.2292 S.o2      1 <0>         2.4987
      3 O1          0.0170    1.1575   -0.4609 O.2       1 <0>        -0.9294
      4 O2          1.1055    3.3500   -0.1366 O.2       1 <0>        -0.9281
      5 C2         -0.8374    2.7042    1.3500 C.ar      1 <0>        -0.6491
      6 C3         -0.6051    3.8234    2.1282 C.ar      1 <0>        -0.0029
      7 C4         -1.2092    3.9441    3.3644 C.ar      1 <0>        -0.1243
      8 C5         -2.0422    2.9356    3.8299 C.ar      1 <0>         0.1527
      9 C6         -2.2693    1.8107    3.0484 C.ar      1 <0>        -0.1269
     10 C7         -1.6662    1.6979    1.8110 C.ar      1 <0>        -0.0038
     11 N1         -2.6530    3.0532    5.0856 N.pl3     1 <0>        -0.4119
     12 C8         -3.9977    3.0007    5.3471 C.2       1 <0>         0.0392
     13 C9         -4.1473    3.1567    6.6783 C.2       1 <0>        -0.0821
     14 N2         -2.9352    3.3015    7.2263 N.2       1 <0>        -0.4266
     15 C10        -2.0213    3.2360    6.2836 C.2       1 <0>         0.2812
     16 C11        -0.5604    3.3456    6.4844 C.ar      1 <0>        -0.0833
     17 C12        -0.0437    3.9312    7.6461 C.ar      1 <0>        -0.0272
     18 C13         1.3307    4.0095    7.7856 C.ar      1 <0>        -0.1676
     19 C14         2.1426    3.5114    6.7822 C.ar      1 <0>         0.1157
     20 N3          1.6274    2.9646    5.6980 N.ar      1 <0>        -0.4738
     21 C15         0.3262    2.8618    5.5219 C.ar      1 <0>         0.1163
     22 C16        -5.4576    3.1660    7.4226 C.3       1 <0>         0.5575
     23 F1         -5.7800    1.8625    7.8153 F         1 <0>        -0.1698
     24 F2         -5.3450    3.9799    8.5549 F         1 <0>        -0.1641
     25 F3         -6.4642    3.6641    6.5884 F         1 <0>        -0.1711
     26 H1         -2.1898    2.7727   -1.3500 H         1 <0>         0.1333
     27 H2         -1.4051    4.3532   -1.1162 H         1 <0>         0.1332
     28 H3         -0.8376    3.2590   -2.4004 H         1 <0>         0.1372
     29 H4          0.0459    4.6059    1.7672 H         1 <0>         0.1584
     30 H5         -1.0307    4.8204    3.9700 H         1 <0>         0.1434
     31 H6         -2.9171    1.0247    3.4077 H         1 <0>         0.1474
     32 H7         -1.8424    0.8231    1.2027 H         1 <0>         0.1590
     33 H8         -4.7876    2.8603    4.6241 H         1 <0>         0.2004
     34 H9         -0.7009    4.3125    8.4136 H         1 <0>         0.1500
     35 H10         1.7651    4.4546    8.6685 H         1 <0>         0.1477
     36 H11         3.2157    3.5709    6.8886 H         1 <0>         0.1656
     37 H12        -0.0578    2.4031    4.6227 H         1 <0>         0.1540
@<TRIPOS>BOND
     1    1    2 1
     2    1   26 1
     3    1   27 1
     4    1   28 1
     5    2    3 2
     6    2    4 2
     7    2    5 1
     8    5   10 ar
     9    5    6 ar
    10    6    7 ar
    11    6   29 1
    12    7    8 ar
    13    7   30 1
    14    8    9 ar
    15    8   11 1
    16    9   10 ar
    17    9   31 1
    18   10   32 1
    19   11   15 1
    20   11   12 1
    21   12   13 2
    22   12   33 1
    23   13   14 1
    24   13   22 1
    25   14   15 2
    26   15   16 1
    27   16   21 ar
    28   16   17 ar
    29   17   18 ar
    30   17   34 1
    31   18   19 ar
    32   18   35 1
    33   19   20 ar
    34   19   36 1
    35   20   21 ar
    36   21   37 1
    37   22   23 1
    38   22   24 1
    39   22   25 1
@<TRIPOS>MOLECULE
ZINC00602158
   35    37     0     0     0
SMALL
USER_CHARGES

@<TRIPOS>ATOM
      1 C1          4.2554    5.4525   -6.0709 C.3       1 <0>        -0.6495
      2 S1          4.0250    6.1714   -4.4214 S.o2      1 <0>         2.4981
      3 O1          2.7677    6.8293   -4.3456 O.2       1 <0>        -0.9336
      4 O2          5.2132    6.8293   -4.0038 O.2       1 <0>        -0.9333
      5 C2          3.8740    4.7874   -3.3414 C.ar      1 <0>        -0.6503
      6 C3          5.0033    4.2464   -2.7532 C.ar      1 <0>        -0.0183
      7 C4          4.8918    3.1627   -1.9065 C.ar      1 <0>        -0.1070
      8 C5          3.6367    2.6124   -1.6441 C.ar      1 <0>         0.0148
      9 C6          2.5024    3.1591   -2.2451 C.ar      1 <0>        -0.1265
     10 C7          2.6267    4.2461   -3.0856 C.ar      1 <0>        -0.0184
     11 C8          3.5100    1.4505   -0.7374 C.2       1 <0>         0.1261
     12 C9          4.4708    0.5123   -0.4839 C.2       1 <0>        -0.2166
     13 C10         3.9407   -0.4094    0.4209 C.2       1 <0>         0.1259
     14 N1          2.7149   -0.0511    0.7131 N.2       1 <0>        -0.2532
     15 N2          2.4122    1.1183    0.0037 N.pl3     1 <0>        -0.3068
     16 C11         1.1988    1.8180    0.0429 C.ar      1 <0>         0.1234
     17 C12        -0.0041    1.1287   -0.0350 C.ar      1 <0>        -0.0705
     18 C13        -1.1988    1.8206   -0.0024 C.ar      1 <0>        -0.1374
     19 C14        -1.1979    3.2002    0.1195 C.ar      1 <0>         0.1149
     20 C15         0.0007    3.8895    0.1973 C.ar      1 <0>        -0.1357
     21 C16         1.1976    3.2017    0.1593 C.ar      1 <0>        -0.0832
     22 F1         -2.3678    3.8748    0.1568 F         1 <0>        -0.1284
     23 Cl1         4.7681   -1.7982    1.0537 Cl        1 <0>         0.0225
     24 H1          3.3920    4.8368   -6.3228 H         1 <0>         0.1324
     25 H2          4.3580    6.2521   -6.8046 H         1 <0>         0.1353
     26 H3          5.1548    4.8368   -6.0765 H         1 <0>         0.1329
     27 H4          5.9742    4.6730   -2.9574 H         1 <0>         0.1518
     28 H5          5.7741    2.7410   -1.4482 H         1 <0>         0.1441
     29 H6          1.5287    2.7347   -2.0497 H         1 <0>         0.1368
     30 H7          1.7490    4.6728   -3.5482 H         1 <0>         0.1493
     31 H8          5.4624    0.4861   -0.9109 H         1 <0>         0.1701
     32 H9         -0.0053    0.0525   -0.1254 H         1 <0>         0.1459
     33 H10        -2.1344    1.2852   -0.0678 H         1 <0>         0.1506
     34 H11        -0.0006    4.9658    0.2874 H         1 <0>         0.1520
     35 H12         2.1321    3.7397    0.2196 H         1 <0>         0.1419
@<TRIPOS>BOND
     1    1    2 1
     2    1   24 1
     3    1   25 1
     4    1   26 1
     5    2    3 2
     6    2    4 2
     7    2    5 1
     8    5   10 ar
     9    5    6 ar
    10    6    7 ar
    11    6   27 1
    12    7    8 ar
    13    7   28 1
    14    8    9 ar
    15    8   11 1
    16    9   10 ar
    17    9   29 1
    18   10   30 1
    19   11   15 1
    20   11   12 2
    21   12   13 1
    22   12   31 1
    23   13   14 2
    24   13   23 1
    25   14   15 1
    26   15   16 1
    27   16   21 ar
    28   16   17 ar
    29   17   18 ar
    30   17   32 1
    31   18   19 ar
    32   18   33 1
    33   19   20 ar
    34   19   22 1
    35   20   21 ar
    36   20   34 1
    37   21   35 1
@<TRIPOS>MOLECULE
ZINC00602217
   38    40     0     0     0
SMALL
USER_CHARGES

@<TRIPOS>ATOM
      1 C1         -1.2487    3.3720   -1.3899 C.3       1 <0>        -0.6489
      2 S1         -0.0775    2.6037   -0.2372 S.o2      1 <0>         2.4962
      3 O1          0.0044    1.2062   -0.4816 O.2       1 <0>        -0.9295
      4 O2          1.1006    3.3921   -0.1386 O.2       1 <0>        -0.9278
      5 C2         -0.8431    2.7395    1.3439 C.ar      1 <0>        -0.6498
      6 C3         -0.6064    3.8508    2.1320 C.ar      1 <0>        -0.0048
      7 C4         -1.2089    3.9624    3.3698 C.ar      1 <0>        -0.1226
      8 C5         -2.0450    2.9526    3.8269 C.ar      1 <0>         0.1553
      9 C6         -2.2765    1.8355    3.0355 C.ar      1 <0>        -0.1276
     10 C7         -1.6749    1.7319    1.7966 C.ar      1 <0>        -0.0041
     11 N1         -2.6543    3.0608    5.0842 N.pl3     1 <0>        -0.4118
     12 C8         -3.9989    3.0118    5.3463 C.2       1 <0>         0.0389
     13 C9         -4.1466    3.1536    6.6793 C.2       1 <0>        -0.0822
     14 N2         -2.9340    3.2944    7.2269 N.2       1 <0>        -0.4242
     15 C10        -2.0214    3.2413    6.2820 C.2       1 <0>         0.2772
     16 C11        -0.5608    3.3569    6.4810 C.ar      1 <0>        -0.0164
     17 C12        -0.0561    3.9473    7.6408 C.ar      1 <0>        -0.0664
     18 C13         1.3075    4.0520    7.8212 C.ar      1 <0>        -0.1024
     19 C14         2.1752    3.5729    6.8560 C.ar      1 <0>        -0.0909
     20 C15         1.6817    2.9861    5.7032 C.ar      1 <0>        -0.0333
     21 C16         0.3187    2.8710    5.5130 C.ar      1 <0>        -0.1016
     22 Cl1         2.7784    2.3884    4.4974 Cl        1 <0>        -0.0540
     23 C17        -5.4561    3.1584    7.4251 C.3       1 <0>         0.5565
     24 F1         -5.2235    3.4467    8.7741 F         1 <0>        -0.1620
     25 F2         -6.3002    4.1313    6.8791 F         1 <0>        -0.1712
     26 F3         -6.0604    1.9015    7.3143 F         1 <0>        -0.1709
     27 H1         -2.1977    2.8369   -1.3541 H         1 <0>         0.1334
     28 H2         -1.4075    4.4125   -1.1068 H         1 <0>         0.1335
     29 H3         -0.8448    3.3281   -2.4013 H         1 <0>         0.1372
     30 H4          0.0473    4.6341    1.7776 H         1 <0>         0.1582
     31 H5         -1.0266    4.8324    3.9833 H         1 <0>         0.1448
     32 H6         -2.9267    1.0485    3.3883 H         1 <0>         0.1467
     33 H7         -1.8547    0.8632    1.1806 H         1 <0>         0.1582
     34 H8         -4.7900    2.8824    4.6225 H         1 <0>         0.1990
     35 H9         -0.7320    4.3218    8.3953 H         1 <0>         0.1452
     36 H10         1.6986    4.5087    8.7183 H         1 <0>         0.1445
     37 H11         3.2419    3.6567    7.0025 H         1 <0>         0.1418
     38 H12        -0.0656    2.4095    4.6154 H         1 <0>         0.1357
@<TRIPOS>BOND
     1    1    2 1
     2    1   27 1
     3    1   28 1
     4    1   29 1
     5    2    3 2
     6    2    4 2
     7    2    5 1
     8    5   10 ar
     9    5    6 ar
    10    6    7 ar
    11    6   30 1
    12    7    8 ar
    13    7   31 1
    14    8    9 ar
    15    8   11 1
    16    9   10 ar
    17    9   32 1
    18   10   33 1
    19   11   15 1
    20   11   12 1
    21   12   13 2
    22   12   34 1
    23   13   14 1
    24   13   23 1
    25   14   15 2
    26   15   16 1
    27   16   21 ar
    28   16   17 ar
    29   17   18 ar
    30   17   35 1
    31   18   19 ar
    32   18   36 1
    33   19   20 ar
    34   19   37 1
    35   20   21 ar
    36   20   22 1
    37   21   38 1
    38   23   24 1
    39   23   25 1
    40   23   26 1
@<TRIPOS>MOLECULE
ZINC00602217
   38    40     0     0     0
SMALL
USER_CHARGES

@<TRIPOS>ATOM
      1 C1         -1.2487    3.3720   -1.3899 C.3       1 <0>        -0.6489
      2 S1         -0.0775    2.6037   -0.2372 S.o2      1 <0>         2.4962
      3 O1          0.0044    1.2062   -0.4816 O.2       1 <0>        -0.9295
      4 O2          1.1006    3.3921   -0.1386 O.2       1 <0>        -0.9278
      5 C2         -0.8431    2.7395    1.3439 C.ar      1 <0>        -0.6498
      6 C3         -0.6064    3.8508    2.1320 C.ar      1 <0>        -0.0048
      7 C4         -1.2089    3.9624    3.3698 C.ar      1 <0>        -0.1226
      8 C5         -2.0450    2.9526    3.8269 C.ar      1 <0>         0.1553
      9 C6         -2.2765    1.8355    3.0355 C.ar      1 <0>        -0.1276
     10 C7         -1.6749    1.7319    1.7966 C.ar      1 <0>        -0.0041
     11 N1         -2.6543    3.0608    5.0842 N.pl3     1 <0>        -0.4118
     12 C8         -3.9989    3.0118    5.3463 C.2       1 <0>         0.0389
     13 C9         -4.1466    3.1536    6.6793 C.2       1 <0>        -0.0822
     14 N2         -2.9340    3.2944    7.2269 N.2       1 <0>        -0.4242
     15 C10        -2.0214    3.2413    6.2820 C.2       1 <0>         0.2772
     16 C11        -0.5608    3.3569    6.4810 C.ar      1 <0>        -0.0164
     17 C12        -0.0561    3.9473    7.6408 C.ar      1 <0>        -0.0664
     18 C13         1.3075    4.0520    7.8212 C.ar      1 <0>        -0.1024
     19 C14         2.1752    3.5729    6.8560 C.ar      1 <0>        -0.0909
     20 C15         1.6817    2.9861    5.7032 C.ar      1 <0>        -0.0333
     21 C16         0.3187    2.8710    5.5130 C.ar      1 <0>        -0.1016
     22 Cl1         2.7784    2.3884    4.4974 Cl        1 <0>        -0.0540
     23 C17        -5.4561    3.1584    7.4251 C.3       1 <0>         0.5565
     24 F1         -5.2235    3.4467    8.7741 F         1 <0>        -0.1620
     25 F2         -6.3002    4.1313    6.8791 F         1 <0>        -0.1712
     26 F3         -6.0604    1.9015    7.3143 F         1 <0>        -0.1709
     27 H1         -2.1977    2.8369   -1.3541 H         1 <0>         0.1334
     28 H2         -1.4075    4.4125   -1.1068 H         1 <0>         0.1335
     29 H3         -0.8448    3.3281   -2.4013 H         1 <0>         0.1372
     30 H4          0.0473    4.6341    1.7776 H         1 <0>         0.1582
     31 H5         -1.0266    4.8324    3.9833 H         1 <0>         0.1448
     32 H6         -2.9267    1.0485    3.3883 H         1 <0>         0.1467
     33 H7         -1.8547    0.8632    1.1806 H         1 <0>         0.1582
     34 H8         -4.7900    2.8824    4.6225 H         1 <0>         0.1990
     35 H9         -0.7320    4.3218    8.3953 H         1 <0>         0.1452
     36 H10         1.6986    4.5087    8.7183 H         1 <0>         0.1445
     37 H11         3.2419    3.6567    7.0025 H         1 <0>         0.1418
     38 H12        -0.0656    2.4095    4.6154 H         1 <0>         0.1357
@<TRIPOS>BOND
     1    1    2 1
     2    1   27 1
     3    1   28 1
     4    1   29 1
     5    2    3 2
     6    2    4 2
     7    2    5 1
     8    5   10 ar
     9    5    6 ar
    10    6    7 ar
    11    6   30 1
    12    7    8 ar
    13    7   31 1
    14    8    9 ar
    15    8   11 1
    16    9   10 ar
    17    9   32 1
    18   10   33 1
    19   11   15 1
    20   11   12 1
    21   12   13 2
    22   12   34 1
    23   13   14 1
    24   13   23 1
    25   14   15 2
    26   15   16 1
    27   16   21 ar
    28   16   17 ar
    29   17   18 ar
    30   17   35 1
    31   18   19 ar
    32   18   36 1
    33   19   20 ar
    34   19   37 1
    35   20   21 ar
    36   20   22 1
    37   21   38 1
    38   23   24 1
    39   23   25 1
    40   23   26 1
@<TRIPOS>MOLECULE
ZINC00602343
   58    61     0     0     0
SMALL
USER_CHARGES

@<TRIPOS>ATOM
      1 C1         -3.6560    0.5961    0.0453 C.3       1 <0>        -0.1022
      2 C2         -2.1505    0.6607    0.0285 C.2       1 <0>         0.1176
      3 C3         -1.4284    1.7899    0.0321 C.2       1 <0>        -0.1407
      4 C4         -0.0145    1.3997    0.0084 C.ar      1 <0>        -0.0357
      5 C5          1.1852    2.1127   -0.0007 C.ar      1 <0>        -0.1099
      6 C6          2.3856    1.4290   -0.0184 C.ar      1 <0>         0.1119
      7 C7          2.3995    0.0372   -0.0266 C.ar      1 <0>        -0.1755
      8 C8          1.2204   -0.6757   -0.0172 C.ar      1 <0>        -0.0835
      9 C9          0.0034   -0.0054    0.0001 C.ar      1 <0>         0.0770
     10 N1         -1.3143   -0.4291    0.0127 N.am      1 <0>        -0.5046
     11 C10        -1.7160   -1.7156    0.0091 C.2       1 <0>         0.6002
     12 O1         -1.9957   -2.2619   -1.0397 O.2       1 <0>        -0.4248
     13 C11        -1.8162   -2.4612    1.2797 C.ar      1 <0>        -0.1627
     14 C12        -1.5922   -1.8097    2.4947 C.ar      1 <0>        -0.0452
     15 C13        -1.6929   -2.5101    3.6780 C.ar      1 <0>        -0.1210
     16 C14        -2.0037   -3.8600    3.6629 C.ar      1 <0>         0.0028
     17 C15        -2.2213   -4.5131    2.4609 C.ar      1 <0>        -0.1216
     18 C16        -2.1297   -3.8223    1.2712 C.ar      1 <0>        -0.0383
     19 Cl1        -2.1215   -4.7366    5.1567 Cl        1 <0>        -0.0519
     20 O2          3.5577    2.1182   -0.0274 O.3       1 <0>        -0.3168
     21 C17         4.7622    1.3495   -0.0451 C.3       1 <0>         0.0272
     22 C18        -1.9681    3.1969    0.0484 C.3       1 <0>        -0.0650
     23 C19        -2.1696    3.6740   -1.3668 C.2       1 <0>         0.5092
     24 O3         -1.9014    2.9435   -2.2970 O.2       1 <0>        -0.5218
     25 N2         -2.6479    4.9125   -1.5987 N.am      1 <0>        -0.7365
     26 C20        -2.8437    5.3764   -2.9745 C.3       1 <0>         0.1254
     27 C21        -3.3917    6.8048   -2.9580 C.3       1 <0>        -0.0908
     28 C22        -3.5932    7.2819   -4.3732 C.ar      1 <0>        -0.0846
     29 C23        -2.5699    7.9346   -5.0348 C.ar      1 <0>        -0.1138
     30 C24        -2.7531    8.3680   -6.3346 C.ar      1 <0>        -0.1180
     31 C25        -3.9630    8.1576   -6.9693 C.ar      1 <0>        -0.1209
     32 C26        -4.9882    7.5099   -6.3057 C.ar      1 <0>        -0.1183
     33 C27        -4.8032    7.0719   -5.0077 C.ar      1 <0>        -0.1141
     34 H1         -4.0073    0.5742    1.0769 H         1 <0>         0.0852
     35 H2         -4.0629    1.4729   -0.4586 H         1 <0>         0.0900
     36 H3         -3.9868   -0.3054   -0.4704 H         1 <0>         0.0707
     37 H4          1.1753    3.1927    0.0056 H         1 <0>         0.1323
     38 H5          3.3428   -0.4886   -0.0400 H         1 <0>         0.1352
     39 H6          1.2421   -1.7555   -0.0237 H         1 <0>         0.1221
     40 H7         -1.3451   -0.7584    2.5075 H         1 <0>         0.1420
     41 H8         -1.5247   -2.0064    4.6184 H         1 <0>         0.1452
     42 H9         -2.4636   -5.5656    2.4556 H         1 <0>         0.1465
     43 H10        -2.3002   -4.3325    0.3347 H         1 <0>         0.1479
     44 H11         5.6213    2.0203   -0.0508 H         1 <0>         0.1004
     45 H12         4.8018    0.7158    0.8408 H         1 <0>         0.0552
     46 H13         4.7821    0.7260   -0.9390 H         1 <0>         0.0550
     47 H14        -2.9212    3.2143    0.5769 H         1 <0>         0.1035
     48 H15        -1.2595    3.8520    0.5553 H         1 <0>         0.1060
     49 H16        -2.8624    5.4968   -0.8547 H         1 <0>         0.4005
     50 H17        -1.8906    5.3589   -3.5030 H         1 <0>         0.0689
     51 H18        -3.5523    4.7213   -3.4814 H         1 <0>         0.0684
     52 H19        -4.3448    6.8223   -2.4295 H         1 <0>         0.0798
     53 H20        -2.6831    7.4599   -2.4511 H         1 <0>         0.0801
     54 H21        -1.6260    8.1027   -4.5375 H         1 <0>         0.1223
     55 H22        -1.9522    8.8743   -6.8530 H         1 <0>         0.1229
     56 H23        -4.1073    8.4995   -7.9835 H         1 <0>         0.1221
     57 H24        -5.9335    7.3459   -6.8014 H         1 <0>         0.1227
     58 H25        -5.6042    6.5659   -4.4892 H         1 <0>         0.1219
@<TRIPOS>BOND
     1    1    2 1
     2    1   34 1
     3    1   35 1
     4    1   36 1
     5    2   10 1
     6    2    3 2
     7    3    4 1
     8    3   22 1
     9    4    9 ar
    10    4    5 ar
    11    5    6 ar
    12    5   37 1
    13    6    7 ar
    14    6   20 1
    15    7    8 ar
    16    7   38 1
    17    8    9 ar
    18    8   39 1
    19    9   10 1
    20   10   11 am
    21   11   12 2
    22   11   13 1
    23   13   18 ar
    24   13   14 ar
    25   14   15 ar
    26   14   40 1
    27   15   16 ar
    28   15   41 1
    29   16   17 ar
    30   16   19 1
    31   17   18 ar
    32   17   42 1
    33   18   43 1
    34   20   21 1
    35   21   44 1
    36   21   45 1
    37   21   46 1
    38   22   23 1
    39   22   47 1
    40   22   48 1
    41   23   24 2
    42   23   25 am
    43   25   26 1
    44   25   49 1
    45   26   27 1
    46   26   50 1
    47   26   51 1
    48   27   28 1
    49   27   52 1
    50   27   53 1
    51   28   33 ar
    52   28   29 ar
    53   29   30 ar
    54   29   54 1
    55   30   31 ar
    56   30   55 1
    57   31   32 ar
    58   31   56 1
    59   32   33 ar
    60   32   57 1
    61   33   58 1
@<TRIPOS>MOLECULE
ZINC00602593
   35    37     0     0     0
SMALL
USER_CHARGES

@<TRIPOS>ATOM
      1 C1          2.0292   -6.9137   -1.1799 C.3       1 <0>        -0.6490
      2 S1          3.1668   -6.0527   -0.0596 S.o2      1 <0>         2.4987
      3 O1          4.4670   -5.9971   -0.6301 O.2       1 <0>        -0.9311
      4 O2          2.9794   -6.5083    1.2733 O.2       1 <0>        -0.9316
      5 C2          2.6099   -4.3810   -0.0458 C.ar      1 <0>        -0.6553
      6 C3          1.6700   -3.9745    0.8833 C.ar      1 <0>        -0.0040
      7 C4          1.2319   -2.6647    0.8969 C.ar      1 <0>        -0.1333
      8 C5          1.7363   -1.7559   -0.0235 C.ar      1 <0>         0.1696
      9 C6          2.6760   -2.1683   -0.9586 C.ar      1 <0>        -0.1259
     10 C7          3.1141   -3.4782   -0.9638 C.ar      1 <0>        -0.0038
     11 N1          1.2933   -0.4262   -0.0126 N.pl3     1 <0>        -0.4159
     12 C8          0.0021   -0.0041    0.0020 C.2       1 <0>         0.2250
     13 N2         -0.0156    1.3020    0.0092 N.2       1 <0>        -0.4670
     14 C9          1.2385    1.7693   -0.0003 C.2       1 <0>         0.0767
     15 C10         2.0855    0.7033   -0.0141 C.2       1 <0>         0.0453
     16 C11         3.5633    0.7475   -0.0280 C.ar      1 <0>        -0.0422
     17 C12         4.2969   -0.0852    0.8184 C.ar      1 <0>        -0.0692
     18 C13         5.6754   -0.0430    0.7983 C.ar      1 <0>        -0.1489
     19 C14         6.3319    0.8311   -0.0533 C.ar      1 <0>         0.1148
     20 C15         5.6085    1.6638   -0.8918 C.ar      1 <0>        -0.1483
     21 C16         4.2297    1.6263   -0.8833 C.ar      1 <0>        -0.0586
     22 F1          7.6823    0.8718   -0.0656 F         1 <0>        -0.1332
     23 Cl1         1.7038    3.4417    0.0038 Cl        1 <0>         0.0069
     24 H1          2.0838   -6.4624   -2.1705 H         1 <0>         0.1330
     25 H2          2.3088   -7.9653   -1.2438 H         1 <0>         0.1365
     26 H3          1.0115   -6.8309   -0.7985 H         1 <0>         0.1332
     27 H4          1.2777   -4.6820    1.5989 H         1 <0>         0.1562
     28 H5          0.4975   -2.3479    1.6226 H         1 <0>         0.1458
     29 H6          3.0669   -1.4647   -1.6787 H         1 <0>         0.1418
     30 H7          3.8482   -3.7986   -1.6883 H         1 <0>         0.1549
     31 H8         -0.8679   -0.6440    0.0063 H         1 <0>         0.2239
     32 H9          3.7861   -0.7642    1.4852 H         1 <0>         0.1288
     33 H10         6.2441   -0.6896    1.4501 H         1 <0>         0.1424
     34 H11         6.1251    2.3437   -1.5531 H         1 <0>         0.1446
     35 H12         3.6668    2.2761   -1.5370 H         1 <0>         0.1394
@<TRIPOS>BOND
     1    1    2 1
     2    1   24 1
     3    1   25 1
     4    1   26 1
     5    2    3 2
     6    2    4 2
     7    2    5 1
     8    5   10 ar
     9    5    6 ar
    10    6    7 ar
    11    6   27 1
    12    7    8 ar
    13    7   28 1
    14    8    9 ar
    15    8   11 1
    16    9   10 ar
    17    9   29 1
    18   10   30 1
    19   11   15 1
    20   11   12 1
    21   12   13 2
    22   12   31 1
    23   13   14 1
    24   14   15 2
    25   14   23 1
    26   15   16 1
    27   16   21 ar
    28   16   17 ar
    29   17   18 ar
    30   17   32 1
    31   18   19 ar
    32   18   33 1
    33   19   20 ar
    34   19   22 1
    35   20   21 ar
    36   20   34 1
    37   21   35 1
@<TRIPOS>MOLECULE
ZINC00607803
   41    43     0     0     0
SMALL
USER_CHARGES

@<TRIPOS>ATOM
      1 C1          3.7006    4.8474    5.8394 C.3       1 <0>         0.0215
      2 O1          2.6786    5.5539    6.5453 O.3       1 <0>        -0.3034
      3 C2          1.4023    5.1138    6.3872 C.ar      1 <0>         0.1178
      4 C3          1.1423    4.0235    5.5688 C.ar      1 <0>        -0.1778
      5 C4         -0.1504    3.5705    5.4098 C.ar      1 <0>        -0.0715
      6 C5         -1.2004    4.2159    6.0644 C.ar      1 <0>        -0.0594
      7 C6         -0.9369    5.3118    6.8872 C.ar      1 <0>        -0.0804
      8 C7          0.3603    5.7567    7.0460 C.ar      1 <0>         0.0752
      9 F1          0.6175    6.8172    7.8425 F         1 <0>        -0.1235
     10 C8         -2.5886    3.7358    5.8912 C.2       1 <0>         0.1436
     11 C9         -3.6140    3.8828    6.7829 C.2       1 <0>        -0.2113
     12 C10        -4.7477    3.2827    6.2340 C.2       1 <0>         0.0096
     13 N1         -4.4361    2.7955    5.0593 N.2       1 <0>        -0.2330
     14 N2         -3.0847    3.0660    4.8093 N.pl3     1 <0>        -0.3263
     15 C11        -2.3692    2.7086    3.6593 C.ar      1 <0>         0.2042
     16 C12        -2.4972    1.4315    3.1291 C.ar      1 <0>        -0.1254
     17 C13        -1.7900    1.0820    1.9954 C.ar      1 <0>         0.0023
     18 C14        -0.9556    2.0024    1.3880 C.ar      1 <0>        -0.6756
     19 C15        -0.8217    3.2731    1.9168 C.ar      1 <0>        -0.0006
     20 C16        -1.5301    3.6304    3.0473 C.ar      1 <0>        -0.1377
     21 S1         -0.0557    1.5528   -0.0585 S.o2      1 <0>         2.7033
     22 O2          0.0694    0.1375   -0.0355 O.2       1 <0>        -0.9574
     23 O3          1.0712    2.4163   -0.1206 O.2       1 <0>        -0.9582
     24 N3         -1.0077    1.9226   -1.3621 N.pl3     1 <0>        -1.2486
     25 C17        -6.1049    3.2081    6.8846 C.3       1 <0>         0.3602
     26 F2         -6.7623    2.0483    6.4605 F         1 <0>        -0.1874
     27 F3         -5.9544    3.1768    8.2752 F         1 <0>        -0.1854
     28 H1          3.7085    3.8052    6.1584 H         1 <0>         0.0617
     29 H2          3.5039    4.8980    4.7685 H         1 <0>         0.0628
     30 H3          4.6689    5.3001    6.0527 H         1 <0>         0.1087
     31 H4          1.9543    3.5264    5.0589 H         1 <0>         0.1481
     32 H5         -0.3506    2.7194    4.7758 H         1 <0>         0.1341
     33 H6         -1.7464    5.8113    7.3987 H         1 <0>         0.1537
     34 H7         -3.5558    4.3725    7.7438 H         1 <0>         0.1696
     35 H8         -3.1487    0.7123    3.6030 H         1 <0>         0.1478
     36 H9         -1.8891    0.0890    1.5826 H         1 <0>         0.1571
     37 H10        -0.1656    3.9882    1.4429 H         1 <0>         0.1570
     38 H11        -1.4282    4.6243    3.4575 H         1 <0>         0.1452
     39 H12        -1.8851    2.3134   -1.2266 H         1 <0>         0.4179
     40 H13        -0.6879    1.7485   -2.2612 H         1 <0>         0.4234
     41 H14        -6.6917    4.0822    6.6023 H         1 <0>         0.1381
@<TRIPOS>BOND
     1    1    2 1
     2    1   28 1
     3    1   29 1
     4    1   30 1
     5    2    3 1
     6    3    8 ar
     7    3    4 ar
     8    4    5 ar
     9    4   31 1
    10    5    6 ar
    11    5   32 1
    12    6    7 ar
    13    6   10 1
    14    7    8 ar
    15    7   33 1
    16    8    9 1
    17   10   14 1
    18   10   11 2
    19   11   12 1
    20   11   34 1
    21   12   13 2
    22   12   25 1
    23   13   14 1
    24   14   15 1
    25   15   20 ar
    26   15   16 ar
    27   16   17 ar
    28   16   35 1
    29   17   18 ar
    30   17   36 1
    31   18   19 ar
    32   18   21 1
    33   19   20 ar
    34   19   37 1
    35   20   38 1
    36   21   22 2
    37   21   23 2
    38   21   24 1
    39   24   39 1
    40   24   40 1
    41   25   26 1
    42   25   27 1
    43   25   41 1
@<TRIPOS>MOLECULE
ZINC00836399
   45    47     0     0     0
SMALL
USER_CHARGES

@<TRIPOS>ATOM
      1 C1         -0.4732   -0.2635   -0.3020 C.3       1 <0>        -0.6502
      2 S1         -0.0342    1.4729   -0.0145 S.o2      1 <0>         2.4984
      3 O1          1.3583    1.5895    0.2435 O.2       1 <0>        -0.9343
      4 O2         -0.6640    2.3033   -0.9804 O.2       1 <0>        -0.9352
      5 C2         -0.8106    1.8896    1.5114 C.ar      1 <0>        -0.6513
      6 C3         -2.0944    2.4046    1.5131 C.ar      1 <0>        -0.0222
      7 C4         -2.7092    2.7283    2.7056 C.ar      1 <0>        -0.1093
      8 C5         -2.0301    2.5452    3.9088 C.ar      1 <0>         0.0388
      9 C6         -0.7348    2.0308    3.9007 C.ar      1 <0>        -0.1083
     10 C7         -0.1318    1.7058    2.7026 C.ar      1 <0>        -0.0211
     11 C8         -2.6836    2.8959    5.1932 C.2       1 <0>         0.1149
     12 C9         -2.0704    3.5514    6.2903 C.2       1 <0>        -0.1087
     13 C10        -3.0118    3.6838    7.2665 C.2       1 <0>        -0.0033
     14 N1         -4.1593    3.1407    6.8103 N.pl3     1 <0>        -0.3240
     15 N2         -3.9366    2.6593    5.5147 N.2       1 <0>        -0.2292
     16 C11        -5.4255    3.0716    7.5441 C.3       1 <0>         0.1380
     17 C12        -6.2407    4.3060    7.2564 C.2       1 <0>        -0.1954
     18 C13        -7.4626    4.1918    6.7980 C.2       1 <0>        -0.1405
     19 C14        -2.8075    4.3237    8.6155 C.3       1 <0>         0.5420
     20 F1         -3.6564    3.7217    9.5505 F         1 <0>        -0.1705
     21 F2         -1.4777    4.1538    9.0156 F         1 <0>        -0.1522
     22 F3         -3.0988    5.6895    8.5327 F         1 <0>        -0.1618
     23 C15        -0.6608    4.0093    6.3627 C.ar      1 <0>        -0.0479
     24 C16         0.2366    3.3753    7.2197 C.ar      1 <0>        -0.0632
     25 C17         1.5476    3.8016    7.2806 C.ar      1 <0>        -0.1518
     26 C18         1.9695    4.8647    6.4988 C.ar      1 <0>         0.1114
     27 C19         1.0795    5.5009    5.6490 C.ar      1 <0>        -0.1511
     28 C20        -0.2322    5.0781    5.5782 C.ar      1 <0>        -0.0629
     29 F4          3.2526    5.2824    6.5657 F         1 <0>        -0.1357
     30 H1         -0.0995   -0.8737    0.5204 H         1 <0>         0.1323
     31 H2         -1.5573   -0.3591   -0.3619 H         1 <0>         0.1322
     32 H3         -0.0264   -0.6012   -1.2371 H         1 <0>         0.1342
     33 H4         -2.6181    2.5499    0.5799 H         1 <0>         0.1481
     34 H5         -3.7131    3.1265    2.7061 H         1 <0>         0.1378
     35 H6         -0.2038    1.8873    4.8301 H         1 <0>         0.1375
     36 H7          0.8718    1.3068    2.6950 H         1 <0>         0.1483
     37 H8         -5.9804    2.1880    7.2288 H         1 <0>         0.1132
     38 H9         -5.2229    3.0110    8.6134 H         1 <0>         0.1212
     39 H10        -5.8176    5.2847    7.4281 H         1 <0>         0.1174
     40 H11        -8.0469    5.0765    6.5918 H         1 <0>         0.1103
     41 H12        -7.8857    3.2131    6.6263 H         1 <0>         0.1050
     42 H13        -0.0925    2.5494    7.8327 H         1 <0>         0.1345
     43 H14         2.2447    3.3087    7.9420 H         1 <0>         0.1408
     44 H15         1.4126    6.3293    5.0413 H         1 <0>         0.1406
     45 H16        -0.9256    5.5752    4.9159 H         1 <0>         0.1332
@<TRIPOS>BOND
     1    1    2 1
     2    1   30 1
     3    1   31 1
     4    1   32 1
     5    2    3 2
     6    2    4 2
     7    2    5 1
     8    5   10 ar
     9    5    6 ar
    10    6    7 ar
    11    6   33 1
    12    7    8 ar
    13    7   34 1
    14    8    9 ar
    15    8   11 1
    16    9   10 ar
    17    9   35 1
    18   10   36 1
    19   11   15 2
    20   11   12 1
    21   12   13 2
    22   12   23 1
    23   13   14 1
    24   13   19 1
    25   14   15 1
    26   14   16 1
    27   16   17 1
    28   16   37 1
    29   16   38 1
    30   17   18 2
    31   17   39 1
    32   18   40 1
    33   18   41 1
    34   19   20 1
    35   19   21 1
    36   19   22 1
    37   23   28 ar
    38   23   24 ar
    39   24   25 ar
    40   24   42 1
    41   25   26 ar
    42   25   43 1
    43   26   27 ar
    44   26   29 1
    45   27   28 ar
    46   27   44 1
    47   28   45 1
@<TRIPOS>MOLECULE
ZINC00836819
   37    39     0     0     0
SMALL
USER_CHARGES

@<TRIPOS>ATOM
      1 C1         -2.6435    1.8312   -1.5114 C.3       1 <0>        -0.6496
      2 S1         -1.1229    2.2369   -0.6093 S.o2      1 <0>         2.4976
      3 O1         -0.2609    1.1079   -0.5705 O.2       1 <0>        -0.9329
      4 O2         -0.6350    3.5071   -1.0188 O.2       1 <0>        -0.9321
      5 C2         -1.6352    2.4690    1.0605 C.ar      1 <0>        -0.6476
      6 C3         -2.0119    3.7270    1.4967 C.ar      1 <0>        -0.0182
      7 C4         -2.4195    3.9148    2.8011 C.ar      1 <0>        -0.1016
      8 C5         -2.4409    2.8338    3.6850 C.ar      1 <0>         0.0361
      9 C6         -2.0540    1.5680    3.2394 C.ar      1 <0>        -0.1161
     10 C7         -1.6536    1.3936    1.9310 C.ar      1 <0>        -0.0181
     11 C8         -2.8712    3.0281    5.0839 C.2       1 <0>        -0.1279
     12 C9         -2.4886    3.9988    6.0065 C.2       1 <0>         0.1187
     13 N1         -3.0363    3.9415    7.2079 N.2       1 <0>        -0.4334
     14 C10        -3.9046    3.0127    7.5262 C.2       1 <0>        -0.0503
     15 S2         -4.0337    2.0881    6.0627 S.3       1 <0>         0.2059
     16 C11        -4.6183    2.8026    8.8367 C.3       1 <0>         0.5726
     17 F1         -4.3082    3.8508    9.7098 F         1 <0>        -0.1485
     18 F2         -5.9995    2.7727    8.6160 F         1 <0>        -0.1579
     19 F3         -4.2099    1.5894    9.4009 F         1 <0>        -0.1574
     20 C12        -1.5084    5.0524    5.6554 C.ar      1 <0>        -0.0455
     21 C13        -0.3612    4.7277    4.9317 C.ar      1 <0>        -0.0630
     22 C14         0.5463    5.7134    4.6030 C.ar      1 <0>        -0.1512
     23 C15         0.3248    7.0224    4.9997 C.ar      1 <0>         0.1167
     24 C16        -0.8107    7.3491    5.7234 C.ar      1 <0>        -0.1536
     25 C17        -1.7268    6.3715    6.0524 C.ar      1 <0>        -0.0517
     26 F4          1.2193    7.9832    4.6803 F         1 <0>        -0.1334
     27 H1         -3.0824    0.9247   -1.0945 H         1 <0>         0.1327
     28 H2         -3.3521    2.6542   -1.4177 H         1 <0>         0.1328
     29 H3         -2.4098    1.6710   -2.5639 H         1 <0>         0.1356
     30 H4         -1.9906    4.5629    0.8132 H         1 <0>         0.1518
     31 H5         -2.7174    4.8963    3.1391 H         1 <0>         0.1397
     32 H6         -2.0686    0.7276    3.9176 H         1 <0>         0.1396
     33 H7         -1.3542    0.4153    1.5851 H         1 <0>         0.1519
     34 H8         -0.1855    3.7069    4.6258 H         1 <0>         0.1335
     35 H9          1.4329    5.4636    4.0391 H         1 <0>         0.1433
     36 H10        -0.9787    8.3708    6.0306 H         1 <0>         0.1429
     37 H11        -2.6114    6.6271    6.6167 H         1 <0>         0.1386
@<TRIPOS>BOND
     1    1    2 1
     2    1   27 1
     3    1   28 1
     4    1   29 1
     5    2    3 2
     6    2    4 2
     7    2    5 1
     8    5   10 ar
     9    5    6 ar
    10    6    7 ar
    11    6   30 1
    12    7    8 ar
    13    7   31 1
    14    8    9 ar
    15    8   11 1
    16    9   10 ar
    17    9   32 1
    18   10   33 1
    19   11   15 1
    20   11   12 2
    21   12   13 1
    22   12   20 1
    23   13   14 2
    24   14   15 1
    25   14   16 1
    26   16   17 1
    27   16   18 1
    28   16   19 1
    29   20   25 ar
    30   20   21 ar
    31   21   22 ar
    32   21   34 1
    33   22   23 ar
    34   22   35 1
    35   23   24 ar
    36   23   26 1
    37   24   25 ar
    38   24   36 1
    39   25   37 1
@<TRIPOS>MOLECULE
ZINC00838584
   42    44     0     0     0
SMALL
USER_CHARGES

@<TRIPOS>ATOM
      1 C1         -2.9920    5.3551    5.0840 C.3       1 <0>        -0.1553
      2 C2         -3.6541    4.0150    5.4105 C.3       1 <0>         0.1288
      3 C3         -2.6771    2.8844    5.1856 C.2       1 <0>        -0.0379
      4 C4         -2.5146    2.2679    6.3889 C.2       1 <0>        -0.1416
      5 C5         -3.3486    2.9448    7.3874 C.2       1 <0>         0.5081
      6 O1         -3.4242    2.6312    8.5595 O.2       1 <0>        -0.4352
      7 O2         -4.0177    3.9634    6.8176 O.3       1 <0>        -0.3067
      8 C6         -1.6375    1.1028    6.6475 C.ar      1 <0>        -0.0076
      9 C7         -0.5358    1.2300    7.4941 C.ar      1 <0>        -0.1008
     10 C8          0.2784    0.1419    7.7318 C.ar      1 <0>        -0.0848
     11 C9          0.0051   -1.0748    7.1329 C.ar      1 <0>        -0.1424
     12 C10        -1.0874   -1.2087    6.2914 C.ar      1 <0>         0.1039
     13 C11        -1.9130   -0.1267    6.0502 C.ar      1 <0>        -0.1365
     14 F1         -1.3490   -2.3998    5.7100 F         1 <0>        -0.1340
     15 C12        -2.0255    2.5249    3.9190 C.ar      1 <0>         0.0108
     16 C13        -2.2985    1.2935    3.3119 C.ar      1 <0>        -0.1143
     17 C14        -1.6831    0.9642    2.1231 C.ar      1 <0>        -0.0177
     18 C15        -0.7978    1.8475    1.5296 C.ar      1 <0>        -0.6503
     19 C16        -0.5180    3.0649    2.1262 C.ar      1 <0>        -0.0187
     20 C17        -1.1287    3.4120    3.3124 C.ar      1 <0>        -0.1177
     21 S1         -0.0172    1.4168    0.0098 S.o2      1 <0>         2.4965
     22 O3          0.0021   -0.0041    0.0020 O.2       1 <0>        -0.9326
     23 O4          1.1953    2.1578    0.0022 O.2       1 <0>        -0.9334
     24 C18        -1.1345    2.0336   -1.2793 C.3       1 <0>        -0.6493
     25 C19        -4.8976    3.8163    4.5414 C.3       1 <0>        -0.1504
     26 H1         -2.6744    5.3590    4.0413 H         1 <0>         0.0884
     27 H2         -3.7052    6.1627    5.2497 H         1 <0>         0.0861
     28 H3         -2.1247    5.4985    5.7286 H         1 <0>         0.0728
     29 H4         -0.3209    2.1788    7.9629 H         1 <0>         0.1320
     30 H5          1.1310    0.2401    8.3874 H         1 <0>         0.1407
     31 H6          0.6456   -1.9235    7.3223 H         1 <0>         0.1410
     32 H7         -2.7669   -0.2322    5.3975 H         1 <0>         0.1360
     33 H8         -2.9895    0.6036    3.7733 H         1 <0>         0.1372
     34 H9         -1.8925    0.0145    1.6534 H         1 <0>         0.1501
     35 H10         0.1775    3.7463    1.6590 H         1 <0>         0.1505
     36 H11        -0.9127    4.3640    3.7743 H         1 <0>         0.1412
     37 H12        -2.1080    1.5544   -1.1761 H         1 <0>         0.1326
     38 H13        -1.2479    3.1127   -1.1759 H         1 <0>         0.1326
     39 H14        -0.7188    1.8043   -2.2605 H         1 <0>         0.1354
     40 H15        -5.3764    2.8726    4.8027 H         1 <0>         0.0714
     41 H16        -5.5947    4.6368    4.7116 H         1 <0>         0.0851
     42 H17        -4.6075    3.7980    3.4909 H         1 <0>         0.0861
@<TRIPOS>BOND
     1    1    2 1
     2    1   26 1
     3    1   27 1
     4    1   28 1
     5    2    7 1
     6    2    3 1
     7    2   25 1
     8    3    4 2
     9    3   15 1
    10    4    5 1
    11    4    8 1
    12    5    6 2
    13    5    7 1
    14    8   13 ar
    15    8    9 ar
    16    9   10 ar
    17    9   29 1
    18   10   11 ar
    19   10   30 1
    20   11   12 ar
    21   11   31 1
    22   12   13 ar
    23   12   14 1
    24   13   32 1
    25   15   20 ar
    26   15   16 ar
    27   16   17 ar
    28   16   33 1
    29   17   18 ar
    30   17   34 1
    31   18   19 ar
    32   18   21 1
    33   19   20 ar
    34   19   35 1
    35   20   36 1
    36   21   22 2
    37   21   23 2
    38   21   24 1
    39   24   37 1
    40   24   38 1
    41   24   39 1
    42   25   40 1
    43   25   41 1
    44   25   42 1
@<TRIPOS>MOLECULE
ZINC00838696
   41    44     0     0     0
SMALL
USER_CHARGES

@<TRIPOS>ATOM
      1 C1         -1.2981   -0.7660    0.0108 C.3       1 <0>        -0.1137
      2 C2          0.0021   -0.0041    0.0020 C.2       1 <0>         0.0591
      3 C3          1.1553   -0.6710   -0.0126 C.2       1 <0>        -0.1770
      4 S1          2.3495    0.6570   -0.0168 S.3       1 <0>         0.1422
      5 C4          1.1962    2.0108    0.0014 C.2       1 <0>         0.1873
      6 N1         -0.0166    1.3730    0.0096 N.pl3     1 <0>        -0.4172
      7 C5         -0.9662    2.3995    0.0295 C.2       1 <0>         0.0150
      8 C6         -0.2727    3.5933    0.0246 C.2       1 <0>         0.1170
      9 N2          1.0409    3.3044    0.0102 N.2       1 <0>        -0.4287
     10 C7         -0.8686    4.9495    0.0380 C.ar      1 <0>        -0.0174
     11 C8         -2.0588    5.1981   -0.6453 C.ar      1 <0>        -0.0980
     12 C9         -2.6117    6.4622   -0.6247 C.ar      1 <0>        -0.1199
     13 C10        -1.9821    7.4845    0.0627 C.ar      1 <0>        -0.1081
     14 C11        -0.7986    7.2453    0.7380 C.ar      1 <0>        -0.1195
     15 C12        -0.2387    5.9842    0.7292 C.ar      1 <0>        -0.0841
     16 C13        -2.4320    2.2373    0.0506 C.ar      1 <0>         0.0389
     17 C14        -3.0493    1.3198   -0.8038 C.ar      1 <0>        -0.1323
     18 C15        -4.4200    1.1705   -0.7754 C.ar      1 <0>        -0.0203
     19 C16        -5.1848    1.9338    0.0893 C.ar      1 <0>        -0.6557
     20 C17        -4.5810    2.8479    0.9349 C.ar      1 <0>        -0.0171
     21 C18        -3.2109    3.0046    0.9211 C.ar      1 <0>        -0.1094
     22 S2         -6.9360    1.7405    0.1141 S.o2      1 <0>         2.4981
     23 O1         -7.1606    0.4120   -0.3375 O.2       1 <0>        -0.9358
     24 O2         -7.3261    2.1368    1.4218 O.2       1 <0>        -0.9344
     25 C19        -7.5536    2.9291   -1.1092 C.3       1 <0>        -0.6498
     26 H1         -1.6218   -0.9441   -1.0146 H         1 <0>         0.0872
     27 H2         -1.1566   -1.7203    0.5182 H         1 <0>         0.0937
     28 H3         -2.0564   -0.1846    0.5354 H         1 <0>         0.0803
     29 H4          1.3242   -1.7377   -0.0202 H         1 <0>         0.2199
     30 H5         -2.5486    4.4020   -1.1863 H         1 <0>         0.1219
     31 H6         -3.5352    6.6550   -1.1503 H         1 <0>         0.1264
     32 H7         -2.4166    8.4732    0.0725 H         1 <0>         0.1256
     33 H8         -0.3118    8.0474    1.2729 H         1 <0>         0.1279
     34 H9          0.6853    5.7987    1.2567 H         1 <0>         0.1291
     35 H10        -2.4540    0.7264   -1.4820 H         1 <0>         0.1336
     36 H11        -4.8981    0.4589   -1.4322 H         1 <0>         0.1477
     37 H12        -5.1841    3.4401    1.6070 H         1 <0>         0.1492
     38 H13        -2.7410    3.7188    1.5810 H         1 <0>         0.1387
     39 H14        -7.1357    2.6933   -2.0880 H         1 <0>         0.1322
     40 H15        -8.6411    2.8714   -1.1550 H         1 <0>         0.1346
     41 H16        -7.2550    3.9366   -0.8198 H         1 <0>         0.1329
@<TRIPOS>BOND
     1    1    2 1
     2    1   26 1
     3    1   27 1
     4    1   28 1
     5    2    6 1
     6    2    3 2
     7    3    4 1
     8    3   29 1
     9    4    5 1
    10    5    9 2
    11    5    6 1
    12    6    7 1
    13    7    8 2
    14    7   16 1
    15    8    9 1
    16    8   10 1
    17   10   15 ar
    18   10   11 ar
    19   11   12 ar
    20   11   30 1
    21   12   13 ar
    22   12   31 1
    23   13   14 ar
    24   13   32 1
    25   14   15 ar
    26   14   33 1
    27   15   34 1
    28   16   21 ar
    29   16   17 ar
    30   17   18 ar
    31   17   35 1
    32   18   19 ar
    33   18   36 1
    34   19   20 ar
    35   19   22 1
    36   20   21 ar
    37   20   37 1
    38   21   38 1
    39   22   23 2
    40   22   24 2
    41   22   25 1
    42   25   39 1
    43   25   40 1
    44   25   41 1
@<TRIPOS>MOLECULE
ZINC00838698
   38    41     0     0     0
SMALL
USER_CHARGES

@<TRIPOS>ATOM
      1 C1         -7.6847    1.4432   -1.2006 C.3       1 <0>        -0.6503
      2 S1         -6.8513    0.4031    0.0300 S.o2      1 <0>         2.4984
      3 O1         -6.7928   -0.9418   -0.4248 O.2       1 <0>        -0.9329
      4 O2         -7.3305    0.7070    1.3328 O.2       1 <0>        -0.9347
      5 C2         -5.1769    0.9519    0.0274 C.ar      1 <0>        -0.6562
      6 C3         -4.7841    1.9680    0.8809 C.ar      1 <0>        -0.0164
      7 C4         -3.4755    2.4034    0.8838 C.ar      1 <0>        -0.1319
      8 C5         -2.5453    1.8155    0.0224 C.ar      1 <0>         0.0381
      9 C6         -2.9505    0.7933   -0.8401 C.ar      1 <0>        -0.1120
     10 C7         -4.2613    0.3651   -0.8284 C.ar      1 <0>        -0.0164
     11 C8         -1.1441    2.2759    0.0192 C.2       1 <0>         0.0167
     12 C9         -0.0180    1.4772    0.0102 C.2       1 <0>         0.1183
     13 N1          1.0575    2.2849    0.0042 N.2       1 <0>        -0.4280
     14 C10         0.6626    3.5266    0.0139 C.2       1 <0>         0.1859
     15 N2         -0.7053    3.6042    0.0268 N.pl3     1 <0>        -0.4203
     16 C11        -1.2592    4.8651    0.0380 C.2       1 <0>         0.0224
     17 C12        -0.4861    5.9502    0.0362 C.2       1 <0>        -0.1676
     18 S2          1.1510    5.2368    0.0177 S.3       1 <0>         0.1465
     19 C13         0.0021   -0.0041    0.0020 C.ar      1 <0>        -0.0293
     20 C14        -0.9670   -0.7208    0.7038 C.ar      1 <0>        -0.0684
     21 C15        -0.9469   -2.1001    0.6892 C.ar      1 <0>        -0.1511
     22 C16         0.0398   -2.7734   -0.0129 C.ar      1 <0>         0.1117
     23 C17         1.0079   -2.0659   -0.7074 C.ar      1 <0>        -0.1532
     24 C18         0.9935   -0.6864   -0.7028 C.ar      1 <0>        -0.0549
     25 F1          0.0584   -4.1243   -0.0200 F         1 <0>        -0.1351
     26 H1         -7.2153    1.3011   -2.1740 H         1 <0>         0.1322
     27 H2         -8.7365    1.1636   -1.2601 H         1 <0>         0.1349
     28 H3         -7.6029    2.4897   -0.9070 H         1 <0>         0.1314
     29 H4         -5.5041    2.4213    1.5461 H         1 <0>         0.1479
     30 H5         -3.1705    3.1969    1.5499 H         1 <0>         0.1311
     31 H6         -2.2379    0.3372   -1.5115 H         1 <0>         0.1394
     32 H7         -4.5750   -0.4276   -1.4915 H         1 <0>         0.1499
     33 H8         -2.3334    4.9756    0.0484 H         1 <0>         0.1753
     34 H9         -0.7746    6.9909    0.0439 H         1 <0>         0.2215
     35 H10        -1.7340   -0.1968    1.2547 H         1 <0>         0.1327
     36 H11        -1.6990   -2.6560    1.2292 H         1 <0>         0.1420
     37 H12         1.7752   -2.5952   -1.2528 H         1 <0>         0.1420
     38 H13         1.7488   -0.1358   -1.2438 H         1 <0>         0.1405
@<TRIPOS>BOND
     1    1    2 1
     2    1   26 1
     3    1   27 1
     4    1   28 1
     5    2    3 2
     6    2    4 2
     7    2    5 1
     8    5   10 ar
     9    5    6 ar
    10    6    7 ar
    11    6   29 1
    12    7    8 ar
    13    7   30 1
    14    8    9 ar
    15    8   11 1
    16    9   10 ar
    17    9   31 1
    18   10   32 1
    19   11   15 1
    20   11   12 2
    21   12   13 1
    22   12   19 1
    23   13   14 2
    24   14   18 1
    25   14   15 1
    26   15   16 1
    27   16   17 2
    28   16   33 1
    29   17   18 1
    30   17   34 1
    31   19   24 ar
    32   19   20 ar
    33   20   21 ar
    34   20   35 1
    35   21   22 ar
    36   21   36 1
    37   22   23 ar
    38   22   25 1
    39   23   24 ar
    40   23   37 1
    41   24   38 1
@<TRIPOS>MOLECULE
ZINC00838704
   43    46     0     0     0
SMALL
USER_CHARGES

@<TRIPOS>ATOM
      1 C1         -4.9381    5.6570   10.8458 C.3       1 <0>        -0.1469
      2 C2         -3.8114    4.6242   10.7784 C.3       1 <0>        -0.0305
      3 C3         -3.6444    4.1550    9.3560 C.2       1 <0>         0.2622
      4 N1         -4.2767    3.1204    8.8063 N.2       1 <0>        -0.4855
      5 C4         -3.8987    2.9947    7.5633 C.2       1 <0>         0.2225
      6 N2         -2.9920    3.9622    7.2619 N.pl3     1 <0>        -0.3441
      7 N3         -2.8567    4.6990    8.4680 N.2       1 <0>        -0.2876
      8 C5         -2.4826    3.9796    5.9813 C.2       1 <0>         0.1676
      9 C6         -2.8935    3.0475    5.0755 C.2       1 <0>        -0.1379
     10 S1         -4.0549    2.0934    6.0403 S.3       1 <0>         0.1994
     11 C7         -2.4893    2.8757    3.6652 C.ar      1 <0>         0.0544
     12 C8         -2.1340    1.6130    3.1863 C.ar      1 <0>        -0.1176
     13 C9         -1.7580    1.4597    1.8680 C.ar      1 <0>        -0.0180
     14 C10        -1.7325    2.5534    1.0208 C.ar      1 <0>        -0.6506
     15 C11        -2.0779    3.8084    1.4902 C.ar      1 <0>        -0.0176
     16 C12        -2.4613    3.9750    2.8048 C.ar      1 <0>        -0.1045
     17 S2         -1.2509    2.3483   -0.6616 S.o2      1 <0>         2.4979
     18 O1         -0.4104    1.2026   -0.6612 O.2       1 <0>        -0.9339
     19 O2         -0.7450    3.6178   -1.0513 O.2       1 <0>        -0.9338
     20 C13        -2.7931    1.9915   -1.5477 C.3       1 <0>        -0.6498
     21 C14        -1.4950    5.0051    5.5916 C.ar      1 <0>        -0.0600
     22 C15        -0.2680    4.6250    5.0427 C.ar      1 <0>        -0.0815
     23 C16         0.6475    5.5889    4.6751 C.ar      1 <0>        -0.1175
     24 C17         0.3577    6.9294    4.8600 C.ar      1 <0>        -0.0967
     25 C18        -0.8533    7.3129    5.4089 C.ar      1 <0>        -0.1183
     26 C19        -1.7808    6.3601    5.7753 C.ar      1 <0>        -0.0782
     27 H1         -4.6907    6.5068   10.2096 H         1 <0>         0.0583
     28 H2         -5.8676    5.2037   10.5013 H         1 <0>         0.0621
     29 H3         -5.0589    5.9963   11.8746 H         1 <0>         0.0741
     30 H4         -4.0588    3.7744   11.4146 H         1 <0>         0.1005
     31 H5         -2.8819    5.0775   11.1229 H         1 <0>         0.0951
     32 H6         -2.1532    0.7586    3.8466 H         1 <0>         0.1408
     33 H7         -1.4833    0.4836    1.4962 H         1 <0>         0.1510
     34 H8         -2.0515    4.6585    0.8247 H         1 <0>         0.1498
     35 H9         -2.7349    4.9544    3.1688 H         1 <0>         0.1371
     36 H10        -3.2428    1.0846   -1.1437 H         1 <0>         0.1328
     37 H11        -3.4840    2.8256   -1.4249 H         1 <0>         0.1326
     38 H12        -2.5790    1.8501   -2.6071 H         1 <0>         0.1348
     39 H13        -0.0388    3.5790    4.9021 H         1 <0>         0.1254
     40 H14         1.5947    5.2967    4.2465 H         1 <0>         0.1314
     41 H15         1.0799    7.6797    4.5742 H         1 <0>         0.1294
     42 H16        -1.0729    8.3609    5.5503 H         1 <0>         0.1298
     43 H17        -2.7258    6.6608    6.2030 H         1 <0>         0.1213
@<TRIPOS>BOND
     1    1    2 1
     2    1   27 1
     3    1   28 1
     4    1   29 1
     5    2    3 1
     6    2   30 1
     7    2   31 1
     8    3    7 2
     9    3    4 1
    10    4    5 2
    11    5   10 1
    12    5    6 1
    13    6    7 1
    14    6    8 1
    15    8    9 2
    16    8   21 1
    17    9   10 1
    18    9   11 1
    19   11   16 ar
    20   11   12 ar
    21   12   13 ar
    22   12   32 1
    23   13   14 ar
    24   13   33 1
    25   14   15 ar
    26   14   17 1
    27   15   16 ar
    28   15   34 1
    29   16   35 1
    30   17   18 2
    31   17   19 2
    32   17   20 1
    33   20   36 1
    34   20   37 1
    35   20   38 1
    36   21   26 ar
    37   21   22 ar
    38   22   23 ar
    39   22   39 1
    40   23   24 ar
    41   23   40 1
    42   24   25 ar
    43   24   41 1
    44   25   26 ar
    45   25   42 1
    46   26   43 1
@<TRIPOS>MOLECULE
ZINC00840871
   36    37     0     0     0
SMALL
USER_CHARGES

@<TRIPOS>ATOM
      1 C1         -5.3253   -1.9088   -2.4271 C.3       1 <0>        -0.6662
      2 S1         -5.6880   -2.2600   -0.6848 S.o2      1 <0>         2.5989
      3 O1         -5.5954   -3.6562   -0.4374 O.2       1 <0>        -0.9341
      4 O2         -6.8284   -1.5238   -0.2643 O.2       1 <0>        -0.9396
      5 N1         -4.4240   -1.5973    0.1550 N.pl3     1 <0>        -1.0529
      6 C2         -4.1650   -0.2249    0.0623 C.ar      1 <0>         0.2663
      7 C3         -5.2096    0.6694   -0.1147 C.ar      1 <0>        -0.2083
      8 C4         -4.9515    2.0248   -0.2065 C.ar      1 <0>         0.0488
      9 C5         -3.6531    2.4930   -0.1220 C.ar      1 <0>        -0.7065
     10 C6         -2.6057    1.6093    0.0597 C.ar      1 <0>         0.0684
     11 C7         -2.8548    0.2472    0.1472 C.ar      1 <0>        -0.2082
     12 S2         -1.5212   -0.8823    0.3719 S.3       1 <0>         0.0596
     13 C8         -1.6193   -1.3242    2.0748 C.ar      1 <0>        -0.1119
     14 C9         -2.5372   -0.6939    2.9059 C.ar      1 <0>        -0.1068
     15 C10        -2.6115   -1.0419    4.2401 C.ar      1 <0>        -0.0839
     16 C11        -1.7727   -2.0173    4.7506 C.ar      1 <0>        -0.0261
     17 C12        -0.8574   -2.6478    3.9260 C.ar      1 <0>        -0.0816
     18 C13        -0.7780   -2.3041    2.5899 C.ar      1 <0>        -0.0081
     19 Cl1         0.3710   -3.0944    1.5559 Cl        1 <0>        -0.0333
     20 Cl2        -1.8692   -2.4512    6.4287 Cl        1 <0>        -0.0472
     21 S3         -3.3334    4.2217   -0.2394 S.o2      1 <0>         2.7035
     22 O3         -1.9883    4.3572   -0.6773 O.2       1 <0>        -0.9565
     23 O4         -4.4261    4.7896   -0.9484 O.2       1 <0>        -0.9567
     24 N2         -3.3952    4.8366    1.2970 N.pl3     1 <0>        -1.2489
     25 H1         -4.3751   -2.3678   -2.7001 H         1 <0>         0.1382
     26 H2         -6.1190   -2.3169   -3.0529 H         1 <0>         0.1421
     27 H3         -5.2639   -0.8306   -2.5753 H         1 <0>         0.1333
     28 H4         -3.8630   -2.1602    0.7113 H         1 <0>         0.4338
     29 H5         -6.2251    0.3075   -0.1804 H         1 <0>         0.1812
     30 H6         -5.7665    2.7199   -0.3443 H         1 <0>         0.1608
     31 H7         -1.5933    1.9788    0.1298 H         1 <0>         0.1620
     32 H8         -3.1889    0.0708    2.5097 H         1 <0>         0.1404
     33 H9         -3.3247   -0.5518    4.8864 H         1 <0>         0.1459
     34 H10        -0.2044   -3.4088    4.3271 H         1 <0>         0.1528
     35 H11        -3.5825    4.2504    2.0468 H         1 <0>         0.4171
     36 H12        -3.2440    5.7829    1.4471 H         1 <0>         0.4237
@<TRIPOS>BOND
     1    1    2 1
     2    1   25 1
     3    1   26 1
     4    1   27 1
     5    2    3 2
     6    2    4 2
     7    2    5 1
     8    5    6 1
     9    5   28 1
    10    6   11 ar
    11    6    7 ar
    12    7    8 ar
    13    7   29 1
    14    8    9 ar
    15    8   30 1
    16    9   10 ar
    17    9   21 1
    18   10   11 ar
    19   10   31 1
    20   11   12 1
    21   12   13 1
    22   13   18 ar
    23   13   14 ar
    24   14   15 ar
    25   14   32 1
    26   15   16 ar
    27   15   33 1
    28   16   17 ar
    29   16   20 1
    30   17   18 ar
    31   17   34 1
    32   18   19 1
    33   21   22 2
    34   21   23 2
    35   21   24 1
    36   24   35 1
    37   24   36 1
@<TRIPOS>MOLECULE
ZINC00841379
   41    43     0     0     0
SMALL
USER_CHARGES

@<TRIPOS>ATOM
      1 C1          3.6631    3.6964    7.0579 C.3       1 <0>        -0.1263
      2 C2          2.1747    3.5776    6.8541 C.ar      1 <0>        -0.0538
      3 C3          1.3069    4.0552    7.8200 C.ar      1 <0>        -0.1064
      4 C4         -0.0567    3.9492    7.6400 C.ar      1 <0>        -0.0607
      5 C5         -0.5612    3.3584    6.4804 C.ar      1 <0>        -0.0246
      6 C6          0.3184    2.8732    5.5122 C.ar      1 <0>        -0.0955
      7 C7          1.6814    2.9904    5.7015 C.ar      1 <0>        -0.0374
      8 Cl1         2.7782    2.3940    4.4952 Cl        1 <0>        -0.0520
      9 C8         -2.0218    3.2419    6.2816 C.2       1 <0>         0.2797
     10 N1         -2.9342    3.2948    7.2267 N.2       1 <0>        -0.4255
     11 C9         -4.1469    3.1535    6.6793 C.2       1 <0>        -0.0822
     12 C10        -3.9993    3.0117    5.3462 C.2       1 <0>         0.0378
     13 N2         -2.6548    3.0611    5.0840 N.pl3     1 <0>        -0.4123
     14 C11        -2.0456    2.9530    3.8265 C.ar      1 <0>         0.1559
     15 C12        -2.2769    1.8358    3.0353 C.ar      1 <0>        -0.1278
     16 C13        -1.6755    1.7323    1.7963 C.ar      1 <0>        -0.0042
     17 C14        -0.8437    2.7400    1.3436 C.ar      1 <0>        -0.6500
     18 C15        -0.6070    3.8513    2.1317 C.ar      1 <0>        -0.0048
     19 C16        -1.2100    3.9631    3.3693 C.ar      1 <0>        -0.1225
     20 S1         -0.0783    2.6043   -0.2377 S.o2      1 <0>         2.4961
     21 O1          0.0036    1.2069   -0.4822 O.2       1 <0>        -0.9296
     22 O2          1.0998    3.3928   -0.1391 O.2       1 <0>        -0.9279
     23 C17        -1.2497    3.3727   -1.3901 C.3       1 <0>        -0.6490
     24 C18        -5.4563    3.1583    7.4252 C.3       1 <0>         0.5565
     25 F1         -5.2235    3.4472    8.7741 F         1 <0>        -0.1621
     26 F2         -6.3006    4.1309    6.8790 F         1 <0>        -0.1713
     27 F3         -6.0604    1.9012    7.3150 F         1 <0>        -0.1710
     28 H1          4.0319    2.8075    7.5697 H         1 <0>         0.0819
     29 H2          4.1560    3.7892    6.0901 H         1 <0>         0.0778
     30 H3          3.8780    4.5784    7.6611 H         1 <0>         0.0766
     31 H4          1.6979    4.5125    8.7169 H         1 <0>         0.1436
     32 H5         -0.7327    4.3222    8.3952 H         1 <0>         0.1451
     33 H6         -0.0657    2.4111    4.6148 H         1 <0>         0.1356
     34 H7         -4.7905    2.8818    4.6226 H         1 <0>         0.1987
     35 H8         -2.9267    1.0486    3.3882 H         1 <0>         0.1466
     36 H9         -1.8552    0.8637    1.1802 H         1 <0>         0.1581
     37 H10         0.0469    4.6345    1.7774 H         1 <0>         0.1581
     38 H11        -1.0279    4.8332    3.9826 H         1 <0>         0.1448
     39 H12        -2.1986    2.8376   -1.3542 H         1 <0>         0.1334
     40 H13        -1.4084    4.4132   -1.1069 H         1 <0>         0.1335
     41 H14        -0.8459    3.3290   -2.4016 H         1 <0>         0.1372
@<TRIPOS>BOND
     1    1    2 1
     2    1   28 1
     3    1   29 1
     4    1   30 1
     5    2    7 ar
     6    2    3 ar
     7    3    4 ar
     8    3   31 1
     9    4    5 ar
    10    4   32 1
    11    5    6 ar
    12    5    9 1
    13    6    7 ar
    14    6   33 1
    15    7    8 1
    16    9   13 1
    17    9   10 2
    18   10   11 1
    19   11   12 2
    20   11   24 1
    21   12   13 1
    22   12   34 1
    23   13   14 1
    24   14   19 ar
    25   14   15 ar
    26   15   16 ar
    27   15   35 1
    28   16   17 ar
    29   16   36 1
    30   17   18 ar
    31   17   20 1
    32   18   19 ar
    33   18   37 1
    34   19   38 1
    35   20   21 2
    36   20   22 2
    37   20   23 1
    38   23   39 1
    39   23   40 1
    40   23   41 1
    41   24   25 1
    42   24   26 1
    43   24   27 1
@<TRIPOS>MOLECULE
ZINC00841379
   41    43     0     0     0
SMALL
USER_CHARGES

@<TRIPOS>ATOM
      1 C1          3.6631    3.6964    7.0579 C.3       1 <0>        -0.1263
      2 C2          2.1747    3.5776    6.8541 C.ar      1 <0>        -0.0538
      3 C3          1.3069    4.0552    7.8200 C.ar      1 <0>        -0.1064
      4 C4         -0.0567    3.9492    7.6400 C.ar      1 <0>        -0.0607
      5 C5         -0.5612    3.3584    6.4804 C.ar      1 <0>        -0.0246
      6 C6          0.3184    2.8732    5.5122 C.ar      1 <0>        -0.0955
      7 C7          1.6814    2.9904    5.7015 C.ar      1 <0>        -0.0374
      8 Cl1         2.7782    2.3940    4.4952 Cl        1 <0>        -0.0520
      9 C8         -2.0218    3.2419    6.2816 C.2       1 <0>         0.2797
     10 N1         -2.9342    3.2948    7.2267 N.2       1 <0>        -0.4255
     11 C9         -4.1469    3.1535    6.6793 C.2       1 <0>        -0.0822
     12 C10        -3.9993    3.0117    5.3462 C.2       1 <0>         0.0378
     13 N2         -2.6548    3.0611    5.0840 N.pl3     1 <0>        -0.4123
     14 C11        -2.0456    2.9530    3.8265 C.ar      1 <0>         0.1559
     15 C12        -2.2769    1.8358    3.0353 C.ar      1 <0>        -0.1278
     16 C13        -1.6755    1.7323    1.7963 C.ar      1 <0>        -0.0042
     17 C14        -0.8437    2.7400    1.3436 C.ar      1 <0>        -0.6500
     18 C15        -0.6070    3.8513    2.1317 C.ar      1 <0>        -0.0048
     19 C16        -1.2100    3.9631    3.3693 C.ar      1 <0>        -0.1225
     20 S1         -0.0783    2.6043   -0.2377 S.o2      1 <0>         2.4961
     21 O1          0.0036    1.2069   -0.4822 O.2       1 <0>        -0.9296
     22 O2          1.0998    3.3928   -0.1391 O.2       1 <0>        -0.9279
     23 C17        -1.2497    3.3727   -1.3901 C.3       1 <0>        -0.6490
     24 C18        -5.4563    3.1583    7.4252 C.3       1 <0>         0.5565
     25 F1         -5.2235    3.4472    8.7741 F         1 <0>        -0.1621
     26 F2         -6.3006    4.1309    6.8790 F         1 <0>        -0.1713
     27 F3         -6.0604    1.9012    7.3150 F         1 <0>        -0.1710
     28 H1          4.0319    2.8075    7.5697 H         1 <0>         0.0819
     29 H2          4.1560    3.7892    6.0901 H         1 <0>         0.0778
     30 H3          3.8780    4.5784    7.6611 H         1 <0>         0.0766
     31 H4          1.6979    4.5125    8.7169 H         1 <0>         0.1436
     32 H5         -0.7327    4.3222    8.3952 H         1 <0>         0.1451
     33 H6         -0.0657    2.4111    4.6148 H         1 <0>         0.1356
     34 H7         -4.7905    2.8818    4.6226 H         1 <0>         0.1987
     35 H8         -2.9267    1.0486    3.3882 H         1 <0>         0.1466
     36 H9         -1.8552    0.8637    1.1802 H         1 <0>         0.1581
     37 H10         0.0469    4.6345    1.7774 H         1 <0>         0.1581
     38 H11        -1.0279    4.8332    3.9826 H         1 <0>         0.1448
     39 H12        -2.1986    2.8376   -1.3542 H         1 <0>         0.1334
     40 H13        -1.4084    4.4132   -1.1069 H         1 <0>         0.1335
     41 H14        -0.8459    3.3290   -2.4016 H         1 <0>         0.1372
@<TRIPOS>BOND
     1    1    2 1
     2    1   28 1
     3    1   29 1
     4    1   30 1
     5    2    7 ar
     6    2    3 ar
     7    3    4 ar
     8    3   31 1
     9    4    5 ar
    10    4   32 1
    11    5    6 ar
    12    5    9 1
    13    6    7 ar
    14    6   33 1
    15    7    8 1
    16    9   13 1
    17    9   10 2
    18   10   11 1
    19   11   12 2
    20   11   24 1
    21   12   13 1
    22   12   34 1
    23   13   14 1
    24   14   19 ar
    25   14   15 ar
    26   15   16 ar
    27   15   35 1
    28   16   17 ar
    29   16   36 1
    30   17   18 ar
    31   17   20 1
    32   18   19 ar
    33   18   37 1
    34   19   38 1
    35   20   21 2
    36   20   22 2
    37   20   23 1
    38   23   39 1
    39   23   40 1
    40   23   41 1
    41   24   25 1
    42   24   26 1
    43   24   27 1
@<TRIPOS>MOLECULE
ZINC00841383
   39    41     0     0     0
SMALL
USER_CHARGES

@<TRIPOS>ATOM
      1 C1         -7.2154    3.1080    1.8907 C.3       1 <0>        -0.1204
      2 C2         -5.9875    3.1748    2.7619 C.ar      1 <0>        -0.0363
      3 C3         -6.0776    3.5862    4.0845 C.ar      1 <0>        -0.1570
      4 C4         -4.9331    3.6368    4.8592 C.ar      1 <0>         0.1106
      5 N1         -3.7628    3.2956    4.3606 N.ar      1 <0>        -0.4803
      6 C5         -3.6321    2.9015    3.0990 C.ar      1 <0>         0.1846
      7 C6         -4.7454    2.8270    2.2612 C.ar      1 <0>        -0.1203
      8 C7         -2.2976    2.5329    2.5801 C.2       1 <0>         0.2785
      9 N2         -2.0314    2.1285    1.3577 N.2       1 <0>        -0.4204
     10 C8         -0.7223    1.8808    1.2496 C.2       1 <0>        -0.0829
     11 C9         -0.1382    2.1453    2.4375 C.2       1 <0>         0.0391
     12 N3         -1.1283    2.5593    3.2874 N.pl3     1 <0>        -0.3970
     13 C10        -0.9727    2.9376    4.6277 C.ar      1 <0>         0.1684
     14 C11        -1.5103    4.1355    5.0793 C.ar      1 <0>        -0.0687
     15 C12        -1.3594    4.5034    6.4020 C.ar      1 <0>        -0.0088
     16 C13        -0.6647    3.6851    7.2737 C.ar      1 <0>        -0.6656
     17 C14        -0.1236    2.4940    6.8257 C.ar      1 <0>        -0.0128
     18 C15        -0.2757    2.1182    5.5054 C.ar      1 <0>        -0.1286
     19 S1         -0.4690    4.1609    8.9589 S.o2      1 <0>         2.7023
     20 O1         -1.5339    5.0540    9.2551 O.2       1 <0>        -0.9578
     21 O2         -0.2500    2.9656    9.6956 O.2       1 <0>        -0.9560
     22 N4          0.9296    5.0419    9.0598 N.pl3     1 <0>        -1.2470
     23 C16        -0.0169    1.3948    0.0097 C.3       1 <0>         0.5584
     24 F1          0.0021   -0.0041    0.0020 F         1 <0>        -0.1698
     25 F2          1.2956    1.8790   -0.0002 F         1 <0>        -0.1707
     26 F3         -0.6935    1.8582   -1.1237 F         1 <0>        -0.1640
     27 H1         -7.6660    2.1189    1.9731 H         1 <0>         0.0821
     28 H2         -7.9325    3.8621    2.2150 H         1 <0>         0.0763
     29 H3         -6.9358    3.2946    0.8538 H         1 <0>         0.0766
     30 H4         -7.0329    3.8640    4.5049 H         1 <0>         0.1429
     31 H5         -5.0005    3.9569    5.8885 H         1 <0>         0.1661
     32 H6         -4.6391    2.5028    1.2365 H         1 <0>         0.1501
     33 H7          0.9114    2.0489    2.6727 H         1 <0>         0.2011
     34 H8         -2.0492    4.7771    4.3978 H         1 <0>         0.1386
     35 H9         -1.7812    5.4329    6.7549 H         1 <0>         0.1523
     36 H10         0.4188    1.8572    7.5088 H         1 <0>         0.1536
     37 H11         0.1474    1.1880    5.1560 H         1 <0>         0.1415
     38 H12         1.0171    5.7379    9.7297 H         1 <0>         0.4235
     39 H13         1.6612    4.8619    8.4489 H         1 <0>         0.4177
@<TRIPOS>BOND
     1    1    2 1
     2    1   27 1
     3    1   28 1
     4    1   29 1
     5    2    7 ar
     6    2    3 ar
     7    3    4 ar
     8    3   30 1
     9    4    5 ar
    10    4   31 1
    11    5    6 ar
    12    6    7 ar
    13    6    8 1
    14    7   32 1
    15    8   12 1
    16    8    9 2
    17    9   10 1
    18   10   11 2
    19   10   23 1
    20   11   12 1
    21   11   33 1
    22   12   13 1
    23   13   18 ar
    24   13   14 ar
    25   14   15 ar
    26   14   34 1
    27   15   16 ar
    28   15   35 1
    29   16   17 ar
    30   16   19 1
    31   17   18 ar
    32   17   36 1
    33   18   37 1
    34   19   20 2
    35   19   21 2
    36   19   22 1
    37   22   38 1
    38   22   39 1
    39   23   24 1
    40   23   25 1
    41   23   26 1
@<TRIPOS>MOLECULE
ZINC00841383
   39    41     0     0     0
SMALL
USER_CHARGES

@<TRIPOS>ATOM
      1 C1         -7.2154    3.1080    1.8907 C.3       1 <0>        -0.1204
      2 C2         -5.9875    3.1748    2.7619 C.ar      1 <0>        -0.0363
      3 C3         -6.0776    3.5862    4.0845 C.ar      1 <0>        -0.1570
      4 C4         -4.9331    3.6368    4.8592 C.ar      1 <0>         0.1106
      5 N1         -3.7628    3.2956    4.3606 N.ar      1 <0>        -0.4803
      6 C5         -3.6321    2.9015    3.0990 C.ar      1 <0>         0.1846
      7 C6         -4.7454    2.8270    2.2612 C.ar      1 <0>        -0.1203
      8 C7         -2.2976    2.5329    2.5801 C.2       1 <0>         0.2785
      9 N2         -2.0314    2.1285    1.3577 N.2       1 <0>        -0.4204
     10 C8         -0.7223    1.8808    1.2496 C.2       1 <0>        -0.0829
     11 C9         -0.1382    2.1453    2.4375 C.2       1 <0>         0.0391
     12 N3         -1.1283    2.5593    3.2874 N.pl3     1 <0>        -0.3970
     13 C10        -0.9727    2.9376    4.6277 C.ar      1 <0>         0.1684
     14 C11        -1.5103    4.1355    5.0793 C.ar      1 <0>        -0.0687
     15 C12        -1.3594    4.5034    6.4020 C.ar      1 <0>        -0.0088
     16 C13        -0.6647    3.6851    7.2737 C.ar      1 <0>        -0.6656
     17 C14        -0.1236    2.4940    6.8257 C.ar      1 <0>        -0.0128
     18 C15        -0.2757    2.1182    5.5054 C.ar      1 <0>        -0.1286
     19 S1         -0.4690    4.1609    8.9589 S.o2      1 <0>         2.7023
     20 O1         -1.5339    5.0540    9.2551 O.2       1 <0>        -0.9578
     21 O2         -0.2500    2.9656    9.6956 O.2       1 <0>        -0.9560
     22 N4          0.9296    5.0419    9.0598 N.pl3     1 <0>        -1.2470
     23 C16        -0.0169    1.3948    0.0097 C.3       1 <0>         0.5584
     24 F1          0.0021   -0.0041    0.0020 F         1 <0>        -0.1698
     25 F2          1.2956    1.8790   -0.0002 F         1 <0>        -0.1707
     26 F3         -0.6935    1.8582   -1.1237 F         1 <0>        -0.1640
     27 H1         -7.6660    2.1189    1.9731 H         1 <0>         0.0821
     28 H2         -7.9325    3.8621    2.2150 H         1 <0>         0.0763
     29 H3         -6.9358    3.2946    0.8538 H         1 <0>         0.0766
     30 H4         -7.0329    3.8640    4.5049 H         1 <0>         0.1429
     31 H5         -5.0005    3.9569    5.8885 H         1 <0>         0.1661
     32 H6         -4.6391    2.5028    1.2365 H         1 <0>         0.1501
     33 H7          0.9114    2.0489    2.6727 H         1 <0>         0.2011
     34 H8         -2.0492    4.7771    4.3978 H         1 <0>         0.1386
     35 H9         -1.7812    5.4329    6.7549 H         1 <0>         0.1523
     36 H10         0.4188    1.8572    7.5088 H         1 <0>         0.1536
     37 H11         0.1474    1.1880    5.1560 H         1 <0>         0.1415
     38 H12         1.0171    5.7379    9.7297 H         1 <0>         0.4235
     39 H13         1.6612    4.8619    8.4489 H         1 <0>         0.4177
@<TRIPOS>BOND
     1    1    2 1
     2    1   27 1
     3    1   28 1
     4    1   29 1
     5    2    7 ar
     6    2    3 ar
     7    3    4 ar
     8    3   30 1
     9    4    5 ar
    10    4   31 1
    11    5    6 ar
    12    6    7 ar
    13    6    8 1
    14    7   32 1
    15    8   12 1
    16    8    9 2
    17    9   10 1
    18   10   11 2
    19   10   23 1
    20   11   12 1
    21   11   33 1
    22   12   13 1
    23   13   18 ar
    24   13   14 ar
    25   14   15 ar
    26   14   34 1
    27   15   16 ar
    28   15   35 1
    29   16   17 ar
    30   16   19 1
    31   17   18 ar
    32   17   36 1
    33   18   37 1
    34   19   20 2
    35   19   21 2
    36   19   22 1
    37   22   38 1
    38   22   39 1
    39   23   24 1
    40   23   25 1
    41   23   26 1
@<TRIPOS>MOLECULE
ZINC00841385
   35    37     0     0     0
SMALL
USER_CHARGES

@<TRIPOS>ATOM
      1 C1          8.1722    2.7408   -0.9058 C.3       1 <0>        -0.6488
      2 S1          6.7407    2.0364   -1.7690 S.o2      1 <0>         2.4989
      3 O1          6.4170    0.7649   -1.2233 O.2       1 <0>        -0.9297
      4 O2          6.8826    2.2075   -3.1725 O.2       1 <0>        -0.9301
      5 C2          5.3880    3.0742   -1.3241 C.ar      1 <0>        -0.6536
      6 C3          5.0842    4.1806   -2.0958 C.ar      1 <0>         0.0002
      7 C4          4.0245    4.9960   -1.7497 C.ar      1 <0>        -0.1271
      8 C5          3.2636    4.7034   -0.6257 C.ar      1 <0>         0.1638
      9 C6          3.5744    3.5947    0.1502 C.ar      1 <0>        -0.1332
     10 C7          4.6321    2.7802   -0.2041 C.ar      1 <0>         0.0061
     11 N1          2.1880    5.5286   -0.2719 N.pl3     1 <0>        -0.4141
     12 C8          2.2105    6.8967   -0.1553 C.2       1 <0>         0.0378
     13 C9          0.9713    7.2830    0.2079 C.2       1 <0>        -0.0785
     14 N2          0.1991    6.1942    0.3090 N.2       1 <0>        -0.4213
     15 C10         0.9130    5.1255    0.0202 C.2       1 <0>         0.3238
     16 C11         0.4255    3.7374    0.0181 C.2       1 <0>        -0.1287
     17 C12        -0.8664    3.2744    0.0279 C.2       1 <0>        -0.0822
     18 C13        -1.0810    1.9154    0.0167 C.2       1 <0>        -0.1647
     19 C14        -0.0126    1.0758    0.0080 C.2       1 <0>        -0.1657
     20 S2          1.3606    2.2166    0.0010 S.3       1 <0>         0.0897
     21 C15         0.5296    8.7018    0.4583 C.3       1 <0>         0.5569
     22 F1         -0.7891    8.7041    0.9255 F         1 <0>        -0.1616
     23 F2          1.3645    9.2881    1.4157 F         1 <0>        -0.1706
     24 F3          0.6033    9.4305   -0.7336 F         1 <0>        -0.1703
     25 H1          7.9908    2.7281    0.1689 H         1 <0>         0.1336
     26 H2          9.0597    2.1495   -1.1315 H         1 <0>         0.1371
     27 H3          8.3264    3.7680   -1.2362 H         1 <0>         0.1334
     28 H4          5.6764    4.4077   -2.9700 H         1 <0>         0.1585
     29 H5          3.7882    5.8604   -2.3524 H         1 <0>         0.1469
     30 H6          2.9874    3.3673    1.0278 H         1 <0>         0.1508
     31 H7          4.8718    1.9153    0.3967 H         1 <0>         0.1592
     32 H8          3.0616    7.5410   -0.3191 H         1 <0>         0.2010
     33 H9         -1.6982    3.9632    0.0396 H         1 <0>         0.1472
     34 H10        -2.0863    1.5207    0.0181 H         1 <0>         0.1433
     35 H11         0.0021   -0.0041    0.0020 H         1 <0>         0.1918
@<TRIPOS>BOND
     1    1    2 1
     2    1   25 1
     3    1   26 1
     4    1   27 1
     5    2    3 2
     6    2    4 2
     7    2    5 1
     8    5   10 ar
     9    5    6 ar
    10    6    7 ar
    11    6   28 1
    12    7    8 ar
    13    7   29 1
    14    8    9 ar
    15    8   11 1
    16    9   10 ar
    17    9   30 1
    18   10   31 1
    19   11   15 1
    20   11   12 1
    21   12   13 2
    22   12   32 1
    23   13   14 1
    24   13   21 1
    25   14   15 2
    26   15   16 1
    27   16   20 1
    28   16   17 2
    29   17   18 1
    30   17   33 1
    31   18   19 2
    32   18   34 1
    33   19   20 1
    34   19   35 1
    35   21   22 1
    36   21   23 1
    37   21   24 1
@<TRIPOS>MOLECULE
ZINC00841385
   35    37     0     0     0
SMALL
USER_CHARGES

@<TRIPOS>ATOM
      1 C1          8.1722    2.7408   -0.9058 C.3       1 <0>        -0.6488
      2 S1          6.7407    2.0364   -1.7690 S.o2      1 <0>         2.4989
      3 O1          6.4170    0.7649   -1.2233 O.2       1 <0>        -0.9297
      4 O2          6.8826    2.2075   -3.1725 O.2       1 <0>        -0.9301
      5 C2          5.3880    3.0742   -1.3241 C.ar      1 <0>        -0.6536
      6 C3          5.0842    4.1806   -2.0958 C.ar      1 <0>         0.0002
      7 C4          4.0245    4.9960   -1.7497 C.ar      1 <0>        -0.1271
      8 C5          3.2636    4.7034   -0.6257 C.ar      1 <0>         0.1638
      9 C6          3.5744    3.5947    0.1502 C.ar      1 <0>        -0.1332
     10 C7          4.6321    2.7802   -0.2041 C.ar      1 <0>         0.0061
     11 N1          2.1880    5.5286   -0.2719 N.pl3     1 <0>        -0.4141
     12 C8          2.2105    6.8967   -0.1553 C.2       1 <0>         0.0378
     13 C9          0.9713    7.2830    0.2079 C.2       1 <0>        -0.0785
     14 N2          0.1991    6.1942    0.3090 N.2       1 <0>        -0.4213
     15 C10         0.9130    5.1255    0.0202 C.2       1 <0>         0.3238
     16 C11         0.4255    3.7374    0.0181 C.2       1 <0>        -0.1287
     17 C12        -0.8664    3.2744    0.0279 C.2       1 <0>        -0.0822
     18 C13        -1.0810    1.9154    0.0167 C.2       1 <0>        -0.1647
     19 C14        -0.0126    1.0758    0.0080 C.2       1 <0>        -0.1657
     20 S2          1.3606    2.2166    0.0010 S.3       1 <0>         0.0897
     21 C15         0.5296    8.7018    0.4583 C.3       1 <0>         0.5569
     22 F1         -0.7891    8.7041    0.9255 F         1 <0>        -0.1616
     23 F2          1.3645    9.2881    1.4157 F         1 <0>        -0.1706
     24 F3          0.6033    9.4305   -0.7336 F         1 <0>        -0.1703
     25 H1          7.9908    2.7281    0.1689 H         1 <0>         0.1336
     26 H2          9.0597    2.1495   -1.1315 H         1 <0>         0.1371
     27 H3          8.3264    3.7680   -1.2362 H         1 <0>         0.1334
     28 H4          5.6764    4.4077   -2.9700 H         1 <0>         0.1585
     29 H5          3.7882    5.8604   -2.3524 H         1 <0>         0.1469
     30 H6          2.9874    3.3673    1.0278 H         1 <0>         0.1508
     31 H7          4.8718    1.9153    0.3967 H         1 <0>         0.1592
     32 H8          3.0616    7.5410   -0.3191 H         1 <0>         0.2010
     33 H9         -1.6982    3.9632    0.0396 H         1 <0>         0.1472
     34 H10        -2.0863    1.5207    0.0181 H         1 <0>         0.1433
     35 H11         0.0021   -0.0041    0.0020 H         1 <0>         0.1918
@<TRIPOS>BOND
     1    1    2 1
     2    1   25 1
     3    1   26 1
     4    1   27 1
     5    2    3 2
     6    2    4 2
     7    2    5 1
     8    5   10 ar
     9    5    6 ar
    10    6    7 ar
    11    6   28 1
    12    7    8 ar
    13    7   29 1
    14    8    9 ar
    15    8   11 1
    16    9   10 ar
    17    9   30 1
    18   10   31 1
    19   11   15 1
    20   11   12 1
    21   12   13 2
    22   12   32 1
    23   13   14 1
    24   13   21 1
    25   14   15 2
    26   15   16 1
    27   16   20 1
    28   16   17 2
    29   17   18 1
    30   17   33 1
    31   18   19 2
    32   18   34 1
    33   19   20 1
    34   19   35 1
    35   21   22 1
    36   21   23 1
    37   21   24 1
@<TRIPOS>MOLECULE
ZINC01485832
   46    49     0     0     0
SMALL
USER_CHARGES

@<TRIPOS>ATOM
      1 C1          4.5493    0.6607   -5.9272 C.3       1 <0>        -0.6498
      2 S1          4.0566   -1.0581   -6.2331 S.o2      1 <0>         2.4976
      3 O1          5.2067   -1.8694   -6.4291 O.2       1 <0>        -0.9340
      4 O2          2.9746   -1.1007   -7.1532 O.2       1 <0>        -0.9340
      5 C2          3.3711   -1.6111   -4.7070 C.ar      1 <0>        -0.6516
      6 C3          2.0177   -1.4532   -4.4631 C.ar      1 <0>        -0.0170
      7 C4          1.4733   -1.8830   -3.2718 C.ar      1 <0>        -0.1105
      8 C5          2.2933   -2.4806   -2.3075 C.ar      1 <0>         0.0173
      9 C6          3.6619   -2.6311   -2.5598 C.ar      1 <0>        -0.1210
     10 C7          4.1891   -2.2005   -3.7585 C.ar      1 <0>        -0.0180
     11 C8          1.7218   -2.9416   -1.0352 C.2       1 <0>        -0.0413
     12 C9          1.2269   -2.1634   -0.0307 C.2       1 <0>        -0.1370
     13 C10         0.7632   -3.0304    1.0584 C.2       1 <0>         0.5041
     14 O3          0.2735   -2.6388    2.1000 O.2       1 <0>        -0.4370
     15 O4          0.9558   -4.3238    0.7343 O.3       1 <0>        -0.3037
     16 C11         1.5656   -4.3683   -0.5791 C.3       1 <0>         0.1276
     17 C12         2.9331   -5.0686   -0.5199 C.3       1 <0>        -0.1274
     18 C13         2.6319   -6.5218   -0.9674 C.3       1 <0>        -0.1227
     19 C14         1.5668   -6.3264   -2.0755 C.3       1 <0>        -0.1228
     20 C15         0.6942   -5.1610   -1.5611 C.3       1 <0>        -0.1214
     21 C16         1.1723   -0.6834   -0.0356 C.ar      1 <0>        -0.0367
     22 C17        -0.0591   -0.0280   -0.0341 C.ar      1 <0>        -0.0914
     23 C18        -0.1034    1.3510   -0.0383 C.ar      1 <0>        -0.1161
     24 C19         1.0702    2.0837   -0.0438 C.ar      1 <0>        -0.1086
     25 C20         2.2946    1.4395   -0.0453 C.ar      1 <0>        -0.1184
     26 C21         2.3520    0.0609   -0.0412 C.ar      1 <0>        -0.0957
     27 H1          5.2827    0.6906   -5.1214 H         1 <0>         0.1324
     28 H2          4.9875    1.0798   -6.8330 H         1 <0>         0.1352
     29 H3          3.6737    1.2447   -5.6433 H         1 <0>         0.1324
     30 H4          1.3865   -0.9916   -5.2081 H         1 <0>         0.1490
     31 H5          0.4172   -1.7588   -3.0829 H         1 <0>         0.1370
     32 H6          4.3021   -3.0871   -1.8192 H         1 <0>         0.1402
     33 H7          5.2442   -2.3193   -3.9564 H         1 <0>         0.1496
     34 H8          3.6347   -4.5952   -1.2067 H         1 <0>         0.0932
     35 H9          3.3251   -5.0557    0.4971 H         1 <0>         0.0884
     36 H10         2.2261   -7.1043   -0.1403 H         1 <0>         0.0773
     37 H11         3.5258   -6.9977   -1.3707 H         1 <0>         0.0797
     38 H12         0.9674   -7.2292   -2.1919 H         1 <0>         0.0792
     39 H13         2.0427   -6.0590   -3.0190 H         1 <0>         0.0740
     40 H14        -0.1862   -5.5504   -1.0498 H         1 <0>         0.0915
     41 H15         0.3924   -4.5235   -2.3921 H         1 <0>         0.0837
     42 H16        -0.9758   -0.5989   -0.0301 H         1 <0>         0.1235
     43 H17        -1.0561    1.8595   -0.0416 H         1 <0>         0.1283
     44 H18         1.0304    3.1629   -0.0471 H         1 <0>         0.1261
     45 H19         3.2073    2.0168   -0.0497 H         1 <0>         0.1271
     46 H20         3.3084   -0.4408   -0.0420 H         1 <0>         0.1216
@<TRIPOS>BOND
     1    1    2 1
     2    1   27 1
     3    1   28 1
     4    1   29 1
     5    2    3 2
     6    2    4 2
     7    2    5 1
     8    5   10 ar
     9    5    6 ar
    10    6    7 ar
    11    6   30 1
    12    7    8 ar
    13    7   31 1
    14    8    9 ar
    15    8   11 1
    16    9   10 ar
    17    9   32 1
    18   10   33 1
    19   11   16 1
    20   11   12 2
    21   12   13 1
    22   12   21 1
    23   13   14 2
    24   13   15 1
    25   15   16 1
    26   16   20 1
    27   16   17 1
    28   17   18 1
    29   17   34 1
    30   17   35 1
    31   18   19 1
    32   18   36 1
    33   18   37 1
    34   19   20 1
    35   19   38 1
    36   19   39 1
    37   20   40 1
    38   20   41 1
    39   21   26 ar
    40   21   22 ar
    41   22   23 ar
    42   22   42 1
    43   23   24 ar
    44   23   43 1
    45   24   25 ar
    46   24   44 1
    47   25   26 ar
    48   25   45 1
    49   26   46 1
@<TRIPOS>MOLECULE
ZINC01486412
   51    54     0     0     0
SMALL
USER_CHARGES

@<TRIPOS>ATOM
      1 C1         -0.1713    3.8688    1.3194 C.3       1 <0>        -0.0983
      2 C2          0.3988    2.7963    0.4273 C.2       1 <0>         0.0924
      3 C3          1.5696    2.8779   -0.2244 C.2       1 <0>        -0.1474
      4 C4          1.7344    1.6268   -0.9685 C.ar      1 <0>        -0.0536
      5 C5          2.7260    1.1259   -1.8150 C.ar      1 <0>        -0.1009
      6 C6          2.5760   -0.1270   -2.3745 C.ar      1 <0>         0.0909
      7 C7          1.4437   -0.8888   -2.0970 C.ar      1 <0>        -0.1825
      8 C8          0.4602   -0.4053   -1.2636 C.ar      1 <0>        -0.0953
      9 C9          0.5922    0.8552   -0.6902 C.ar      1 <0>         0.0737
     10 N1         -0.2024    1.5974    0.1578 N.pl3     1 <0>        -0.4796
     11 C10        -1.4965    1.1657    0.6919 C.3       1 <0>         0.1517
     12 C11        -1.2851    0.4399    1.9955 C.ar      1 <0>        -0.0933
     13 C12        -1.0931   -0.9291    2.0010 C.ar      1 <0>        -0.0938
     14 C13        -0.8943   -1.5945    3.1960 C.ar      1 <0>        -0.0916
     15 C14        -0.8980   -0.8919    4.3875 C.ar      1 <0>        -0.0844
     16 C15        -1.0954    0.4772    4.3821 C.ar      1 <0>        -0.0894
     17 C16        -1.2888    1.1425    3.1861 C.ar      1 <0>        -0.0953
     18 Br1        -0.6327   -1.8027    6.0234 Br        1 <0>        -0.0518
     19 O1          3.5381   -0.6197   -3.1998 O.3       1 <0>        -0.3196
     20 C17         3.3205   -1.9228   -3.7446 C.3       1 <0>         0.0311
     21 C18         2.5322    4.0371   -0.1960 C.3       1 <0>        -0.0087
     22 C19         2.2552    4.9593   -1.3850 C.3       1 <0>        -0.0736
     23 C20         0.7926    5.2387   -1.7366 C.3       1 <0>        -0.1583
     24 C21         1.6367    4.3324   -2.6362 C.3       1 <0>        -0.1947
     25 C22         3.2598    6.0955   -1.5869 C.3       1 <0>        -0.1261
     26 C23         3.1536    7.0693   -0.4418 C.2       1 <0>         0.4638
     27 O2          2.2586    6.9607    0.3626 O.co2     1 <0>        -0.6317
     28 H1         -0.7875    4.5448    0.7266 H         1 <0>         0.0801
     29 H2         -0.7812    3.4085    2.0967 H         1 <0>         0.0594
     30 H3          0.6426    4.4288    1.7800 H         1 <0>         0.0964
     31 H4          3.6049    1.7154   -2.0305 H         1 <0>         0.1308
     32 H5          1.3363   -1.8682   -2.5392 H         1 <0>         0.1256
     33 H6         -0.4140   -1.0044   -1.0555 H         1 <0>         0.1149
     34 H7         -2.1293    2.0373    0.8597 H         1 <0>         0.0993
     35 H8         -1.9796    0.4980   -0.0215 H         1 <0>         0.0946
     36 H9         -1.0943   -1.4781    1.0710 H         1 <0>         0.1299
     37 H10        -0.7399   -2.6634    3.1998 H         1 <0>         0.1331
     38 H11        -1.0980    1.0262    5.3121 H         1 <0>         0.1355
     39 H12        -1.4426    2.2115    3.1817 H         1 <0>         0.1364
     40 H13         3.2321   -2.6456   -2.9335 H         1 <0>         0.0504
     41 H14         2.4025   -1.9222   -4.3324 H         1 <0>         0.0508
     42 H15         4.1608   -2.1945   -4.3834 H         1 <0>         0.0948
     43 H16         2.4040    4.5931    0.7327 H         1 <0>         0.0893
     44 H17         3.5540    3.6624   -0.2571 H         1 <0>         0.0630
     45 H18         0.0277    4.7655   -1.1208 H         1 <0>         0.0851
     46 H19         0.5461    6.2318   -2.1121 H         1 <0>         0.0805
     47 H20         1.9452    4.7297   -3.6032 H         1 <0>         0.0787
     48 H21         1.4275    3.2629   -2.6124 H         1 <0>         0.0933
     49 H22         4.2692    5.6858   -1.6231 H         1 <0>         0.0651
     50 H23         3.0428    6.6102   -2.5229 H         1 <0>         0.0619
     51 O3          4.0533    8.0574   -0.3154 O.co2     1 <0>        -0.7825
@<TRIPOS>BOND
     1    1    2 1
     2    1   28 1
     3    1   29 1
     4    1   30 1
     5    2   10 1
     6    2    3 2
     7    3    4 1
     8    3   21 1
     9    4    9 ar
    10    4    5 ar
    11    5    6 ar
    12    5   31 1
    13    6    7 ar
    14    6   19 1
    15    7    8 ar
    16    7   32 1
    17    8    9 ar
    18    8   33 1
    19    9   10 1
    20   10   11 1
    21   11   12 1
    22   11   34 1
    23   11   35 1
    24   12   17 ar
    25   12   13 ar
    26   13   14 ar
    27   13   36 1
    28   14   15 ar
    29   14   37 1
    30   15   16 ar
    31   15   18 1
    32   16   17 ar
    33   16   38 1
    34   17   39 1
    35   19   20 1
    36   20   40 1
    37   20   41 1
    38   20   42 1
    39   21   22 1
    40   21   43 1
    41   21   44 1
    42   22   24 1
    43   22   23 1
    44   22   25 1
    45   23   24 1
    46   23   45 1
    47   23   46 1
    48   24   47 1
    49   24   48 1
    50   25   26 1
    51   25   49 1
    52   25   50 1
    53   26   27 2
    54   26   51 1
@<TRIPOS>MOLECULE
ZINC01489152
   39    42     0     0     0
SMALL
USER_CHARGES

@<TRIPOS>ATOM
      1 C1          2.6445    6.1636    8.0420 C.ar      1 <0>        -0.0854
      2 C2          1.3327    5.8340    8.1812 C.ar      1 <0>        -0.0574
      3 C3          0.6286    5.1954    7.1317 C.ar      1 <0>         0.1008
      4 C4          1.3686    4.9302    5.9552 C.ar      1 <0>        -0.1964
      5 C5          2.6951    5.2669    5.8241 C.ar      1 <0>         0.1508
      6 C6          3.3454    5.8906    6.8758 C.ar      1 <0>        -0.1147
      7 F1          3.3584    4.9914    4.6799 F         1 <0>        -0.1253
      8 S1          0.1619    4.1401    4.9181 S.3       1 <0>         0.0576
      9 C7         -1.2051    4.2166    6.0671 C.2       1 <0>         0.1953
     10 N1         -0.6606    4.8065    7.1113 N.2       1 <0>        -0.4599
     11 C8         -2.5865    3.7365    5.8931 C.2       1 <0>         0.1471
     12 C9         -3.6384    3.9317    6.7640 C.2       1 <0>        -0.1439
     13 C10        -4.7603    3.3096    6.2189 C.2       1 <0>         0.0045
     14 N2         -4.4267    2.7653    5.0754 N.2       1 <0>        -0.2091
     15 N3         -3.0698    3.0156    4.8357 N.pl3     1 <0>        -0.3122
     16 C11        -2.3377    2.5976    3.7174 C.ar      1 <0>         0.1928
     17 C12        -2.8521    2.7814    2.4406 C.ar      1 <0>        -0.1165
     18 C13        -2.1279    2.3678    1.3397 C.ar      1 <0>         0.0053
     19 C14        -0.8918    1.7711    1.5079 C.ar      1 <0>        -0.6711
     20 C15        -0.3793    1.5815    2.7782 C.ar      1 <0>         0.0128
     21 C16        -1.0960    1.9981    3.8828 C.ar      1 <0>        -0.1413
     22 S2          0.0290    1.2447    0.1009 S.o2      1 <0>         2.7028
     23 O1         -0.9106    1.0352   -0.9443 O.2       1 <0>        -0.9552
     24 O2          0.9090    0.2234    0.5502 O.2       1 <0>        -0.9552
     25 N4          0.9802    2.5174   -0.3659 N.pl3     1 <0>        -1.2482
     26 C17        -6.1317    3.2702    6.8425 C.3       1 <0>         0.3605
     27 F2         -6.0591    2.6397    8.0892 F         1 <0>        -0.1832
     28 F3         -6.6068    4.5757    7.0070 F         1 <0>        -0.1833
     29 H1          3.1543    6.6500    8.8604 H         1 <0>         0.1507
     30 H2          0.8209    6.0628    9.1043 H         1 <0>         0.1458
     31 H3          4.3873    6.1614    6.7894 H         1 <0>         0.1561
     32 H4         -3.5986    4.4661    7.7016 H         1 <0>         0.1788
     33 H5         -3.8176    3.2471    2.3086 H         1 <0>         0.1506
     34 H6         -2.5272    2.5108    0.3465 H         1 <0>         0.1604
     35 H7          0.5844    1.1112    2.9064 H         1 <0>         0.1603
     36 H8         -0.6935    1.8534    4.8745 H         1 <0>         0.1465
     37 H9          0.9485    3.3527    0.1263 H         1 <0>         0.4177
     38 H10         1.5689    2.4276   -1.1316 H         1 <0>         0.4240
     39 H11        -6.8100    2.7157    6.1939 H         1 <0>         0.1372
@<TRIPOS>BOND
     1    1    6 ar
     2    1    2 ar
     3    1   29 1
     4    2    3 ar
     5    2   30 1
     6    3   10 1
     7    3    4 ar
     8    4    5 ar
     9    4    8 1
    10    5    6 ar
    11    5    7 1
    12    6   31 1
    13    8    9 1
    14    9   10 2
    15    9   11 1
    16   11   15 1
    17   11   12 2
    18   12   13 1
    19   12   32 1
    20   13   14 2
    21   13   26 1
    22   14   15 1
    23   15   16 1
    24   16   21 ar
    25   16   17 ar
    26   17   18 ar
    27   17   33 1
    28   18   19 ar
    29   18   34 1
    30   19   20 ar
    31   19   22 1
    32   20   21 ar
    33   20   35 1
    34   21   36 1
    35   22   23 2
    36   22   24 2
    37   22   25 1
    38   25   37 1
    39   25   38 1
    40   26   27 1
    41   26   28 1
    42   26   39 1
@<TRIPOS>MOLECULE
ZINC01490272
   44    48     0     0     0
SMALL
USER_CHARGES

@<TRIPOS>ATOM
      1 C1         -2.1326    7.4725    3.5778 C.ar      1 <0>        -0.1172
      2 C2         -3.1401    6.5276    3.6590 C.ar      1 <0>        -0.1167
      3 C3         -2.9025    5.2261    3.2685 C.ar      1 <0>        -0.1127
      4 C4         -1.6418    4.8631    2.7907 C.ar      1 <0>        -0.0213
      5 C5         -0.6282    5.8204    2.7164 C.ar      1 <0>        -0.0970
      6 C6         -0.8811    7.1197    3.1047 C.ar      1 <0>        -0.1162
      7 C7         -1.3798    3.4707    2.3711 C.2       1 <0>         0.0933
      8 C8         -0.7445    3.0929    1.2665 C.2       1 <0>        -0.1526
      9 C9         -0.7095    1.6399    1.2305 C.2       1 <0>        -0.1496
     10 C10        -1.3253    1.2286    2.3409 C.2       1 <0>         0.0957
     11 N1         -1.7519    2.3305    3.0579 N.pl3     1 <0>        -0.5757
     12 H1         -2.2315    2.3074    3.9008 H         1 <0>         0.4149
     13 C11        -1.5191   -0.1857    2.7225 C.ar      1 <0>        -0.0231
     14 C12        -0.4636   -1.0929    2.6117 C.ar      1 <0>        -0.0967
     15 C13        -0.6499   -2.4106    2.9746 C.ar      1 <0>        -0.1163
     16 C14        -1.8826   -2.8365    3.4368 C.ar      1 <0>        -0.1174
     17 C15        -2.9344   -1.9439    3.5442 C.ar      1 <0>        -0.1168
     18 C16        -2.7602   -0.6221    3.1901 C.ar      1 <0>        -0.1132
     19 C17        -0.0127    1.0858    0.0080 C.3       1 <0>        -0.0058
     20 C18        -0.7363    1.6643   -1.2239 C.3       1 <0>        -0.1086
     21 C19        -0.7730    3.1888   -1.1861 C.3       1 <0>        -0.1085
     22 C20        -0.0766    3.7397    0.0738 C.3       1 <0>        -0.0113
     23 C21         1.3686    3.2099    0.0355 C.3       1 <0>        -0.1086
     24 C22         1.4053    1.6858   -0.0023 C.3       1 <0>        -0.1087
     25 H2         -2.3240    8.4901    3.8848 H         1 <0>         0.1238
     26 H3         -4.1147    6.8096    4.0291 H         1 <0>         0.1242
     27 H4         -3.6898    4.4896    3.3320 H         1 <0>         0.1188
     28 H5          0.3505    5.5452    2.3518 H         1 <0>         0.1263
     29 H6         -0.0991    7.8621    3.0439 H         1 <0>         0.1263
     30 H7          0.4977   -0.7628    2.2465 H         1 <0>         0.1263
     31 H8          0.1668   -3.1125    2.8933 H         1 <0>         0.1262
     32 H9         -2.0244   -3.8703    3.7154 H         1 <0>         0.1236
     33 H10        -3.8940   -2.2829    3.9056 H         1 <0>         0.1241
     34 H11        -3.5819    0.0737    3.2746 H         1 <0>         0.1187
     35 H12         0.0021   -0.0041    0.0020 H         1 <0>         0.0838
     36 H13        -0.2160    1.3429   -2.1261 H         1 <0>         0.0634
     37 H14        -1.7574    1.2840   -1.2484 H         1 <0>         0.0581
     38 H15        -1.8113    3.5203   -1.1929 H         1 <0>         0.0577
     39 H16        -0.2699    3.5792   -2.0707 H         1 <0>         0.0629
     40 H17        -0.1143    4.8280    0.1218 H         1 <0>         0.0830
     41 H18         1.8987    3.5570    0.9224 H         1 <0>         0.0580
     42 H19         1.8675    3.6002   -0.8516 H         1 <0>         0.0631
     43 H20         1.9526    1.3212    0.8670 H         1 <0>         0.0583
     44 H21         1.9214    1.3644   -0.9070 H         1 <0>         0.0636
@<TRIPOS>BOND
     1    1    6 ar
     2    1    2 ar
     3    1   25 1
     4    2    3 ar
     5    2   26 1
     6    3    4 ar
     7    3   27 1
     8    4    5 ar
     9    4    7 1
    10    5    6 ar
    11    5   28 1
    12    6   29 1
    13    7   11 1
    14    7    8 2
    15    8   22 1
    16    8    9 1
    17    9   10 2
    18    9   19 1
    19   10   11 1
    20   10   13 1
    21   11   12 1
    22   13   18 ar
    23   13   14 ar
    24   14   15 ar
    25   14   30 1
    26   15   16 ar
    27   15   31 1
    28   16   17 ar
    29   16   32 1
    30   17   18 ar
    31   17   33 1
    32   18   34 1
    33   19   24 1
    34   19   20 1
    35   19   35 1
    36   20   21 1
    37   20   36 1
    38   20   37 1
    39   21   22 1
    40   21   38 1
    41   21   39 1
    42   22   23 1
    43   22   40 1
    44   23   24 1
    45   23   41 1
    46   23   42 1
    47   24   43 1
    48   24   44 1
@<TRIPOS>MOLECULE
ZINC01532333
   35    37     0     0     0
SMALL
USER_CHARGES

@<TRIPOS>ATOM
      1 C1         -1.1988    3.0081   -1.3806 C.3       1 <0>        -0.6505
      2 S1         -0.0551    2.2597   -0.1879 S.o2      1 <0>         2.4982
      3 O1         -0.0084    0.8515   -0.3719 O.2       1 <0>        -0.9362
      4 O2          1.1427    3.0208   -0.1146 O.2       1 <0>        -0.9358
      5 C2         -0.8264    2.4830    1.3805 C.ar      1 <0>        -0.6586
      6 C3         -0.5643    3.6217    2.1212 C.ar      1 <0>        -0.0195
      7 C4         -1.1696    3.8048    3.3476 C.ar      1 <0>        -0.1193
      8 C5         -2.0387    2.8340    3.8449 C.ar      1 <0>         0.0267
      9 C6         -2.2946    1.6857    3.0961 C.ar      1 <0>        -0.1277
     10 C7         -1.6872    1.5163    1.8687 C.ar      1 <0>        -0.0197
     11 C8         -2.6880    3.0222    5.1632 C.2       1 <0>        -0.0917
     12 C9         -4.0700    2.9786    5.2937 C.2       1 <0>        -0.0921
     13 C10        -4.6245    3.1497    6.5169 C.2       1 <0>        -0.1819
     14 S2         -3.1978    3.3988    7.5592 S.3       1 <0>         0.1459
     15 C11        -1.9330    3.2538    6.3080 C.2       1 <0>        -0.0784
     16 C12        -0.4673    3.3532    6.4512 C.ar      1 <0>        -0.0345
     17 C13         0.3610    2.3911    5.8686 C.ar      1 <0>        -0.0547
     18 C14         1.7299    2.4920    6.0017 C.ar      1 <0>        -0.1494
     19 C15         2.2836    3.5397    6.7202 C.ar      1 <0>         0.1171
     20 C16         1.4667    4.4944    7.3049 C.ar      1 <0>        -0.1504
     21 C17         0.0966    4.4066    7.1746 C.ar      1 <0>        -0.0671
     22 F1          3.6252    3.6305    6.8516 F         1 <0>        -0.1328
     23 Br1        -6.4531    3.1362    6.9986 Br        1 <0>         0.0472
     24 H1         -2.1617    2.4998   -1.3288 H         1 <0>         0.1317
     25 H2         -1.3319    4.0636   -1.1433 H         1 <0>         0.1317
     26 H3         -0.7901    2.9105   -2.3864 H         1 <0>         0.1338
     27 H4          0.1124    4.3706    1.7370 H         1 <0>         0.1449
     28 H5         -0.9674    4.6960    3.9232 H         1 <0>         0.1330
     29 H6         -2.9669    0.9307    3.4759 H         1 <0>         0.1355
     30 H7         -1.8845    0.6274    1.2879 H         1 <0>         0.1455
     31 H8         -4.6949    2.8061    4.4300 H         1 <0>         0.1470
     32 H9         -0.0697    1.5720    5.3119 H         1 <0>         0.1358
     33 H10         2.3714    1.7507    5.5485 H         1 <0>         0.1438
     34 H11         1.9038    5.3084    7.8640 H         1 <0>         0.1439
     35 H12        -0.5391    5.1508    7.6313 H         1 <0>         0.1382
@<TRIPOS>BOND
     1    1    2 1
     2    1   24 1
     3    1   25 1
     4    1   26 1
     5    2    3 2
     6    2    4 2
     7    2    5 1
     8    5   10 ar
     9    5    6 ar
    10    6    7 ar
    11    6   27 1
    12    7    8 ar
    13    7   28 1
    14    8    9 ar
    15    8   11 1
    16    9   10 ar
    17    9   29 1
    18   10   30 1
    19   11   15 2
    20   11   12 1
    21   12   13 2
    22   12   31 1
    23   13   14 1
    24   13   23 1
    25   14   15 1
    26   15   16 1
    27   16   21 ar
    28   16   17 ar
    29   17   18 ar
    30   17   32 1
    31   18   19 ar
    32   18   33 1
    33   19   20 ar
    34   19   22 1
    35   20   21 ar
    36   20   34 1
    37   21   35 1
@<TRIPOS>MOLECULE
ZINC01544144
   44    47     0     0     0
SMALL
USER_CHARGES

@<TRIPOS>ATOM
      1 C1          3.5017    3.0882    2.9310 C.3       1 <0>        -0.6503
      2 S1          3.8688    2.0652    1.4786 S.o2      1 <0>         2.4983
      3 O1          4.7869    1.0370    1.8236 O.2       1 <0>        -0.9341
      4 O2          4.0974    2.8899    0.3442 O.2       1 <0>        -0.9349
      5 C2          2.3620    1.2227    1.1257 C.ar      1 <0>        -0.6549
      6 C3          2.1086   -0.0075    1.7065 C.ar      1 <0>        -0.0182
      7 C4          0.9315   -0.6729    1.4344 C.ar      1 <0>        -0.1102
      8 C5         -0.0059   -0.1020    0.5702 C.ar      1 <0>         0.0538
      9 C6          0.2567    1.1401   -0.0126 C.ar      1 <0>        -0.1234
     10 C7          1.4380    1.7941    0.2686 C.ar      1 <0>        -0.0181
     11 C8         -1.2675   -0.8081    0.2738 C.2       1 <0>        -0.1722
     12 C9         -1.4798   -2.1367   -0.0940 C.2       1 <0>         0.1231
     13 N1         -2.7135   -2.5455   -0.3063 N.2       1 <0>        -0.4774
     14 C10        -3.7458   -1.7253   -0.1886 C.2       1 <0>         0.1368
     15 S2         -2.9477   -0.1960    0.2788 S.3       1 <0>         0.1093
     16 C11        -5.1833   -2.0019   -0.3913 C.ar      1 <0>        -0.0071
     17 C12        -5.6062   -3.2803   -0.7597 C.ar      1 <0>        -0.0582
     18 C13        -6.9494   -3.5320   -0.9468 C.ar      1 <0>        -0.1118
     19 C14        -7.8778   -2.5210   -0.7704 C.ar      1 <0>        -0.0861
     20 C15        -7.4667   -1.2517   -0.4060 C.ar      1 <0>        -0.1051
     21 C16        -6.1255   -0.9870   -0.2096 C.ar      1 <0>        -0.0233
     22 Cl1        -5.6115    0.6048    0.2549 Cl        1 <0>        -0.0343
     23 C17        -0.3394   -3.0712   -0.2391 C.ar      1 <0>        -0.0397
     24 C18         0.8268   -2.6574   -0.8824 C.ar      1 <0>        -0.0661
     25 C19         1.8877   -3.5297   -1.0108 C.ar      1 <0>        -0.1513
     26 C20         1.7922   -4.8186   -0.5111 C.ar      1 <0>         0.1104
     27 C21         0.6337   -5.2361    0.1242 C.ar      1 <0>        -0.1545
     28 C22        -0.4307   -4.3695    0.2622 C.ar      1 <0>        -0.0564
     29 F1          2.8318   -5.6711   -0.6442 F         1 <0>        -0.1357
     30 H1          3.1944    2.4481    3.7580 H         1 <0>         0.1322
     31 H2          4.3928    3.6474    3.2161 H         1 <0>         0.1344
     32 H3          2.6973    3.7837    2.6916 H         1 <0>         0.1320
     33 H4          2.8340   -0.4474    2.3748 H         1 <0>         0.1484
     34 H5          0.7330   -1.6308    1.8919 H         1 <0>         0.1364
     35 H6         -0.4638    1.5874   -0.6814 H         1 <0>         0.1365
     36 H7          1.6422    2.7546   -0.1809 H         1 <0>         0.1486
     37 H8         -4.8832   -4.0705   -0.8982 H         1 <0>         0.1469
     38 H9         -7.2774   -4.5208   -1.2315 H         1 <0>         0.1410
     39 H10        -8.9281   -2.7240   -0.9184 H         1 <0>         0.1415
     40 H11        -8.1964   -0.4671   -0.2703 H         1 <0>         0.1443
     41 H12         0.9005   -1.6544   -1.2761 H         1 <0>         0.1316
     42 H13         2.7927   -3.2089   -1.5052 H         1 <0>         0.1409
     43 H14         0.5639   -6.2418    0.5117 H         1 <0>         0.1403
     44 H15        -1.3333   -4.6960    0.7572 H         1 <0>         0.1366
@<TRIPOS>BOND
     1    1    2 1
     2    1   30 1
     3    1   31 1
     4    1   32 1
     5    2    3 2
     6    2    4 2
     7    2    5 1
     8    5   10 ar
     9    5    6 ar
    10    6    7 ar
    11    6   33 1
    12    7    8 ar
    13    7   34 1
    14    8    9 ar
    15    8   11 1
    16    9   10 ar
    17    9   35 1
    18   10   36 1
    19   11   15 1
    20   11   12 2
    21   12   13 1
    22   12   23 1
    23   13   14 2
    24   14   15 1
    25   14   16 1
    26   16   21 ar
    27   16   17 ar
    28   17   18 ar
    29   17   37 1
    30   18   19 ar
    31   18   38 1
    32   19   20 ar
    33   19   39 1
    34   20   21 ar
    35   20   40 1
    36   21   22 1
    37   23   28 ar
    38   23   24 ar
    39   24   25 ar
    40   24   41 1
    41   25   26 ar
    42   25   42 1
    43   26   27 ar
    44   26   29 1
    45   27   28 ar
    46   27   43 1
    47   28   44 1
@<TRIPOS>MOLECULE
ZINC01544146
   47    50     0     0     0
SMALL
USER_CHARGES

@<TRIPOS>ATOM
      1 C1          0.6720    2.5215   -0.5884 C.3       1 <0>        -0.6500
      2 S1         -1.1196    2.2384   -0.6083 S.o2      1 <0>         2.4982
      3 O1         -1.7704    3.2719   -1.3345 O.2       1 <0>        -0.9345
      4 O2         -1.3962    0.8726   -0.8867 O.2       1 <0>        -0.9351
      5 C2         -1.6332    2.4698    1.0612 C.ar      1 <0>        -0.6544
      6 C3         -1.6575    1.3930    1.9298 C.ar      1 <0>        -0.0181
      7 C4         -2.0530    1.5681    3.2396 C.ar      1 <0>        -0.1229
      8 C5         -2.4405    2.8336    3.6853 C.ar      1 <0>         0.0531
      9 C6         -2.4190    3.9149    2.8017 C.ar      1 <0>        -0.1096
     10 C7         -2.0158    3.7265    1.4960 C.ar      1 <0>        -0.0181
     11 C8         -2.8704    3.0277    5.0844 C.2       1 <0>        -0.1644
     12 C9         -2.4878    3.9983    6.0070 C.2       1 <0>         0.1278
     13 N1         -3.0350    3.9406    7.2086 N.2       1 <0>        -0.4930
     14 C10        -3.9028    3.0114    7.5271 C.2       1 <0>         0.1057
     15 S2         -4.0325    2.0873    6.0634 S.3       1 <0>         0.0927
     16 C11        -4.6167    2.8015    8.8375 C.3       1 <0>         0.0083
     17 C12        -5.9135    3.5693    8.8317 C.ar      1 <0>        -0.0917
     18 C13        -5.9474    4.8720    9.2930 C.ar      1 <0>        -0.1000
     19 C14        -7.1359    5.5779    9.2831 C.ar      1 <0>        -0.1193
     20 C15        -8.2925    4.9777    8.8218 C.ar      1 <0>        -0.1142
     21 C16        -8.2596    3.6732    8.3655 C.ar      1 <0>        -0.1186
     22 C17        -7.0701    2.9691    8.3704 C.ar      1 <0>        -0.1097
     23 C18        -1.5074    5.0519    5.6559 C.ar      1 <0>        -0.0365
     24 C19        -0.3602    4.7270    4.9322 C.ar      1 <0>        -0.0667
     25 C20         0.5471    5.7126    4.6032 C.ar      1 <0>        -0.1533
     26 C21         0.3256    7.0218    4.9995 C.ar      1 <0>         0.1101
     27 C22        -0.8097    7.3486    5.7235 C.ar      1 <0>        -0.1540
     28 C23        -1.7257    6.3710    6.0529 C.ar      1 <0>        -0.0542
     29 F1          1.2197    7.9826    4.6793 F         1 <0>        -0.1359
     30 H1          0.8760    3.5342   -0.2405 H         1 <0>         0.1325
     31 H2          1.1457    1.8046    0.0823 H         1 <0>         0.1323
     32 H3          1.0709    2.3959   -1.5950 H         1 <0>         0.1346
     33 H4         -1.3617    0.4140    1.5826 H         1 <0>         0.1489
     34 H5         -2.0675    0.7276    3.9176 H         1 <0>         0.1367
     35 H6         -2.7171    4.8963    3.1399 H         1 <0>         0.1360
     36 H7         -1.9984    4.5618    0.8117 H         1 <0>         0.1485
     37 H8         -4.8237    1.7399    8.9726 H         1 <0>         0.1047
     38 H9         -3.9883    3.1560    9.6545 H         1 <0>         0.1128
     39 H10        -5.0447    5.3395    9.6575 H         1 <0>         0.1256
     40 H11        -7.1617    6.5969    9.6400 H         1 <0>         0.1244
     41 H12        -9.2220    5.5277    8.8183 H         1 <0>         0.1237
     42 H13        -9.1633    3.2041    8.0054 H         1 <0>         0.1249
     43 H14        -7.0444    1.9498    8.0142 H         1 <0>         0.1229
     44 H15        -0.1845    3.7061    4.6267 H         1 <0>         0.1322
     45 H16         1.4337    5.4628    4.0393 H         1 <0>         0.1400
     46 H17        -0.9776    8.3702    6.0308 H         1 <0>         0.1405
     47 H18        -2.6101    6.6267    6.6176 H         1 <0>         0.1368
@<TRIPOS>BOND
     1    1    2 1
     2    1   30 1
     3    1   31 1
     4    1   32 1
     5    2    3 2
     6    2    4 2
     7    2    5 1
     8    5   10 ar
     9    5    6 ar
    10    6    7 ar
    11    6   33 1
    12    7    8 ar
    13    7   34 1
    14    8    9 ar
    15    8   11 1
    16    9   10 ar
    17    9   35 1
    18   10   36 1
    19   11   15 1
    20   11   12 2
    21   12   13 1
    22   12   23 1
    23   13   14 2
    24   14   15 1
    25   14   16 1
    26   16   17 1
    27   16   37 1
    28   16   38 1
    29   17   22 ar
    30   17   18 ar
    31   18   19 ar
    32   18   39 1
    33   19   20 ar
    34   19   40 1
    35   20   21 ar
    36   20   41 1
    37   21   22 ar
    38   21   42 1
    39   22   43 1
    40   23   28 ar
    41   23   24 ar
    42   24   25 ar
    43   24   44 1
    44   25   26 ar
    45   25   45 1
    46   26   27 ar
    47   26   29 1
    48   27   28 ar
    49   27   46 1
    50   28   47 1
@<TRIPOS>MOLECULE
ZINC01544679
   49    50     0     0     0
SMALL
USER_CHARGES

@<TRIPOS>ATOM
      1 C1          8.5138   -4.7723    3.2393 C.3       1 <0>        -0.1423
      2 C2          7.2827   -3.9260    3.5693 C.3       1 <0>        -0.1203
      3 S1          6.4933   -3.3845    2.0332 S.3       1 <0>         0.0603
      4 C3          5.1465   -2.4584    2.6912 C.2       1 <0>         0.0202
      5 N1          4.8080   -2.2244    3.9539 N.2       1 <0>        -0.2770
      6 N2          3.8019   -1.5258    4.2549 N.2       1 <0>        -0.2658
      7 C4          3.0155   -0.9927    3.3287 C.2       1 <0>         0.1134
      8 S2          3.8444   -1.5641    1.8481 S.3       1 <0>         0.0336
      9 C5          1.8041   -0.1592    3.4769 C.ar      1 <0>        -0.0227
     10 C6          1.3306    0.1676    4.7489 C.ar      1 <0>        -0.0600
     11 C7          0.2001    0.9449    4.8829 C.ar      1 <0>        -0.0922
     12 C8         -0.4676    1.4028    3.7547 C.ar      1 <0>         0.1438
     13 C9          0.0000    1.0800    2.4877 C.ar      1 <0>        -0.0905
     14 C10         1.1269    0.2988    2.3452 C.ar      1 <0>        -0.0816
     15 C11        -0.7288    1.5792    1.2668 C.3       1 <0>        -0.0205
     16 C12        -0.0127    1.0858    0.0080 C.3       1 <0>        -0.1500
     17 C13        -0.7496    3.1091    1.2752 C.3       1 <0>        -0.1428
     18 C14        -2.1642    1.0497    1.2777 C.3       1 <0>        -0.1431
     19 O1         -1.5819    2.1683    3.8910 O.3       1 <0>        -0.4825
     20 C15        -0.3122    1.2978    6.2555 C.3       1 <0>        -0.0203
     21 C16         0.5976    0.6736    7.3154 C.3       1 <0>        -0.1496
     22 C17        -0.3198    2.8187    6.4215 C.3       1 <0>        -0.1426
     23 C18        -1.7345    0.7594    6.4230 C.3       1 <0>        -0.1428
     24 H1          8.2106   -5.6442    2.6596 H         1 <0>         0.0685
     25 H2          9.2188   -4.1773    2.6587 H         1 <0>         0.0685
     26 H3          8.9892   -5.0984    4.1643 H         1 <0>         0.0833
     27 H4          7.5859   -3.0541    4.1489 H         1 <0>         0.1006
     28 H5          6.5778   -4.5210    4.1499 H         1 <0>         0.1006
     29 H6          1.8496   -0.1879    5.6269 H         1 <0>         0.1454
     30 H7          1.4874    0.0446    1.3594 H         1 <0>         0.1347
     31 H8          0.0021   -0.0041    0.0020 H         1 <0>         0.0583
     32 H9          1.0099    1.4631    0.0003 H         1 <0>         0.0590
     33 H10        -0.5399    1.4469   -0.8751 H         1 <0>         0.0634
     34 H11        -1.2768    3.4701    0.3922 H         1 <0>         0.0567
     35 H12        -1.2598    3.4606    2.1720 H         1 <0>         0.0762
     36 H13         0.2730    3.4864    1.2675 H         1 <0>         0.0522
     37 H14        -2.1494   -0.0402    1.2717 H         1 <0>         0.0555
     38 H15        -2.6744    1.4012    2.1745 H         1 <0>         0.0591
     39 H16        -2.6914    1.4107    0.3946 H         1 <0>         0.0633
     40 H17        -2.4046    1.6618    3.9313 H         1 <0>         0.3869
     41 H18         1.6109    1.0572    7.1961 H         1 <0>         0.0604
     42 H19         0.2271    0.9288    8.3083 H         1 <0>         0.0620
     43 H20         0.6030   -0.4100    7.1971 H         1 <0>         0.0597
     44 H21        -0.9679    3.2635    5.6664 H         1 <0>         0.0755
     45 H22        -0.6903    3.0740    7.4144 H         1 <0>         0.0566
     46 H23         0.6935    3.2023    6.3022 H         1 <0>         0.0522
     47 H24        -1.7291   -0.3242    6.3047 H         1 <0>         0.0555
     48 H25        -2.1050    1.0146    7.4159 H         1 <0>         0.0631
     49 H26        -2.3827    1.2041    5.6679 H         1 <0>         0.0583
@<TRIPOS>BOND
     1    1    2 1
     2    1   24 1
     3    1   25 1
     4    1   26 1
     5    2    3 1
     6    2   27 1
     7    2   28 1
     8    3    4 1
     9    4    8 1
    10    4    5 2
    11    5    6 1
    12    6    7 2
    13    7    8 1
    14    7    9 1
    15    9   14 ar
    16    9   10 ar
    17   10   11 ar
    18   10   29 1
    19   11   12 ar
    20   11   20 1
    21   12   13 ar
    22   12   19 1
    23   13   14 ar
    24   13   15 1
    25   14   30 1
    26   15   16 1
    27   15   17 1
    28   15   18 1
    29   16   31 1
    30   16   32 1
    31   16   33 1
    32   17   34 1
    33   17   35 1
    34   17   36 1
    35   18   37 1
    36   18   38 1
    37   18   39 1
    38   19   40 1
    39   20   21 1
    40   20   22 1
    41   20   23 1
    42   21   41 1
    43   21   42 1
    44   21   43 1
    45   22   44 1
    46   22   45 1
    47   22   46 1
    48   23   47 1
    49   23   48 1
    50   23   49 1
@<TRIPOS>MOLECULE
ZINC01546537
   45    47     0     0     0
SMALL
USER_CHARGES

@<TRIPOS>ATOM
      1 C1          3.8005   -0.2877   -3.1181 C.3       1 <0>        -0.1550
      2 C2          3.5274    0.1147   -1.6674 C.3       1 <0>        -0.1247
      3 C3          2.2353    0.9312   -1.5992 C.3       1 <0>        -0.1172
      4 C4          1.9622    1.3335   -0.1486 C.3       1 <0>        -0.0648
      5 C5          0.6403    2.0525   -0.0670 C.2       1 <0>         0.1168
      6 C6         -0.5569    1.4539    0.0472 C.2       1 <0>        -0.1629
      7 C7         -1.5634    2.5157    0.0866 C.ar      1 <0>         0.0389
      8 C8         -0.8504    3.7301   -0.0039 C.ar      1 <0>         0.2890
      9 N1          0.4825    3.4106   -0.0989 N.pl3     1 <0>        -0.4520
     10 C9          1.5735    4.3812   -0.2165 C.3       1 <0>         0.1488
     11 C10         2.0020    4.8243    1.1587 C.ar      1 <0>        -0.1351
     12 C11         1.3322    5.8543    1.7924 C.ar      1 <0>        -0.0629
     13 C12         1.7212    6.2582    3.0555 C.ar      1 <0>        -0.1544
     14 C13         2.7890    5.6381    3.6819 C.ar      1 <0>         0.1135
     15 C14         3.4624    4.6102    3.0439 C.ar      1 <0>        -0.1552
     16 C15         3.0683    4.2044    1.7831 C.ar      1 <0>        -0.0704
     17 F1          3.1731    6.0353    4.9147 F         1 <0>        -0.1346
     18 N2         -1.5139    4.8779    0.0111 N.ar      1 <0>        -0.4538
     19 C16        -2.8298    4.8759    0.1152 C.ar      1 <0>         0.1595
     20 C17        -3.5298    3.6823    0.2091 C.ar      1 <0>        -0.5040
     21 N3         -2.8880    2.5295    0.1964 N.ar      1 <0>        -0.3002
     22 S1         -5.2863    3.7054    0.3466 S.o2      1 <0>         2.5163
     23 O1         -5.6135    2.4957    1.0167 O.2       1 <0>        -0.9133
     24 O2         -5.5874    4.9635    0.9345 O.2       1 <0>        -0.9273
     25 C18        -5.8885    3.6548   -1.3638 C.3       1 <0>        -0.6454
     26 H1          4.7210   -0.8694   -3.1666 H         1 <0>         0.0566
     27 H2          2.9709   -0.8885   -3.4908 H         1 <0>         0.0557
     28 H3          3.9041    0.6082   -3.7302 H         1 <0>         0.0536
     29 H4          4.3570    0.7155   -1.2946 H         1 <0>         0.0630
     30 H5          3.4237   -0.7812   -1.0552 H         1 <0>         0.0665
     31 H6          1.4057    0.3304   -1.9720 H         1 <0>         0.0733
     32 H7          2.3389    1.8271   -2.2114 H         1 <0>         0.0636
     33 H8          2.7565    1.9928    0.2014 H         1 <0>         0.0803
     34 H9          1.9294    0.4408    0.4760 H         1 <0>         0.1014
     35 H10        -0.7419    0.3910    0.0960 H         1 <0>         0.1673
     36 H11         2.4174    3.9191   -0.7287 H         1 <0>         0.1081
     37 H12         1.2314    5.2451   -0.7864 H         1 <0>         0.1077
     38 H13         0.5019    6.3406    1.3020 H         1 <0>         0.1393
     39 H14         1.1951    7.0601    3.5522 H         1 <0>         0.1401
     40 H15         4.2952    4.1255    3.5317 H         1 <0>         0.1406
     41 H16         3.5932    3.4024    1.2854 H         1 <0>         0.1346
     42 H17        -3.3667    5.8129    0.1271 H         1 <0>         0.1926
     43 H18        -5.5339    2.7444   -1.8471 H         1 <0>         0.1346
     44 H19        -6.9785    3.6662   -1.3657 H         1 <0>         0.1390
     45 H20        -5.5151    4.5233   -1.9063 H         1 <0>         0.1322
@<TRIPOS>BOND
     1    1    2 1
     2    1   26 1
     3    1   27 1
     4    1   28 1
     5    2    3 1
     6    2   29 1
     7    2   30 1
     8    3    4 1
     9    3   31 1
    10    3   32 1
    11    4    5 1
    12    4   33 1
    13    4   34 1
    14    5    9 1
    15    5    6 2
    16    6    7 1
    17    6   35 1
    18    7   21 ar
    19    7    8 ar
    20    8    9 1
    21    8   18 ar
    22    9   10 1
    23   10   11 1
    24   10   36 1
    25   10   37 1
    26   11   16 ar
    27   11   12 ar
    28   12   13 ar
    29   12   38 1
    30   13   14 ar
    31   13   39 1
    32   14   15 ar
    33   14   17 1
    34   15   16 ar
    35   15   40 1
    36   16   41 1
    37   18   19 ar
    38   19   20 ar
    39   19   42 1
    40   20   21 ar
    41   20   22 1
    42   22   23 2
    43   22   24 2
    44   22   25 1
    45   25   43 1
    46   25   44 1
    47   25   45 1
@<TRIPOS>MOLECULE
ZINC01722325
   35    38     0     0     0
SMALL
USER_CHARGES

@<TRIPOS>ATOM
      1 C1          0.0090   -0.0059   -0.2695 C.ar      1 <0>        -0.1119
      2 C2          0.9999   -0.4000    0.6128 C.ar      1 <0>        -0.1155
      3 C3          2.1878    0.2970    0.6772 C.ar      1 <0>        -0.1036
      4 C4          2.3899    1.4050   -0.1520 C.ar      1 <0>        -0.0074
      5 C5          1.3839    1.7967   -1.0412 C.ar      1 <0>        -0.0964
      6 C6          0.2016    1.0893   -1.0938 C.ar      1 <0>        -0.1162
      7 C7          3.6556    2.1555   -0.0891 C.2       1 <0>        -0.1428
      8 C8          3.8366    3.5549   -0.0192 C.ar      1 <0>        -0.0686
      9 C9          2.7907    4.5234    0.0162 C.ar      1 <0>        -0.0932
     10 C10         3.0772    5.8423    0.0897 C.ar      1 <0>        -0.1152
     11 C11         4.3960    6.2963    0.1383 C.ar      1 <0>        -0.1151
     12 C12         5.4368    5.4344    0.1132 C.ar      1 <0>        -0.0933
     13 C13         5.2125    4.0283    0.0367 C.ar      1 <0>        -0.0685
     14 C14         6.2199    3.0383    0.0044 C.2       1 <0>        -0.1429
     15 S1          5.3128    1.5127   -0.0913 S.3       1 <0>         0.1807
     16 C15         7.6801    3.2264    0.0414 C.ar      1 <0>        -0.0074
     17 C16         8.2880    4.1741   -0.7883 C.ar      1 <0>        -0.0963
     18 C17         9.6551    4.3479   -0.7440 C.ar      1 <0>        -0.1162
     19 C18        10.4268    3.5795    0.1103 C.ar      1 <0>        -0.1118
     20 C19         9.8332    2.6358    0.9308 C.ar      1 <0>        -0.1156
     21 C20         8.4667    2.4541    0.9023 C.ar      1 <0>        -0.1036
     22 H1         -0.9193   -0.5560   -0.3154 H         1 <0>         0.1259
     23 H2          0.8405   -1.2531    1.2557 H         1 <0>         0.1277
     24 H3          2.9601   -0.0118    1.3662 H         1 <0>         0.1244
     25 H4          1.5327    2.6512   -1.6847 H         1 <0>         0.1267
     26 H5         -0.5763    1.3907   -1.7796 H         1 <0>         0.1281
     27 H6          1.7607    4.2006   -0.0201 H         1 <0>         0.1242
     28 H7          2.2695    6.5590    0.1109 H         1 <0>         0.1234
     29 H8          4.5887    7.3574    0.1967 H         1 <0>         0.1234
     30 H9          6.4472    5.8140    0.1517 H         1 <0>         0.1242
     31 H10         7.6877    4.7713   -1.4586 H         1 <0>         0.1268
     32 H11        10.1256    5.0822   -1.3811 H         1 <0>         0.1280
     33 H12        11.4976    3.7171    0.1372 H         1 <0>         0.1259
     34 H13        10.4419    2.0405    1.5952 H         1 <0>         0.1277
     35 H14         8.0049    1.7177    1.5433 H         1 <0>         0.1244
@<TRIPOS>BOND
     1    1    6 ar
     2    1    2 ar
     3    1   22 1
     4    2    3 ar
     5    2   23 1
     6    3    4 ar
     7    3   24 1
     8    4    5 ar
     9    4    7 1
    10    5    6 ar
    11    5   25 1
    12    6   26 1
    13    7   15 1
    14    7    8 2
    15    8   13 ar
    16    8    9 ar
    17    9   10 ar
    18    9   27 1
    19   10   11 ar
    20   10   28 1
    21   11   12 ar
    22   11   29 1
    23   12   13 ar
    24   12   30 1
    25   13   14 2
    26   14   15 1
    27   14   16 1
    28   16   21 ar
    29   16   17 ar
    30   17   18 ar
    31   17   31 1
    32   18   19 ar
    33   18   32 1
    34   19   20 ar
    35   19   33 1
    36   20   21 ar
    37   20   34 1
    38   21   35 1
@<TRIPOS>MOLECULE
ZINC02047040
   37    39     0     0     0
SMALL
USER_CHARGES

@<TRIPOS>ATOM
      1 C1          2.5020    3.1608   -2.2448 C.ar      1 <0>        -0.0987
      2 C2          2.6258    4.2474   -3.0857 C.ar      1 <0>        -0.0863
      3 C3          3.8738    4.7891   -3.3421 C.ar      1 <0>        -0.0754
      4 C4          5.0037    4.2479   -2.7530 C.ar      1 <0>        -0.0855
      5 C5          4.8917    3.1646   -1.9062 C.ar      1 <0>        -0.0760
      6 C6          3.6366    2.6144   -1.6440 C.ar      1 <0>        -0.0327
      7 C7          3.5099    1.4524   -0.7373 C.2       1 <0>         0.1381
      8 C8          4.4706    0.5141   -0.4838 C.2       1 <0>        -0.1955
      9 C9          3.9411   -0.4069    0.4206 C.2       1 <0>        -0.0047
     10 N1          2.7159   -0.0495    0.7130 N.2       1 <0>        -0.2109
     11 N2          2.4121    1.1197    0.0038 N.pl3     1 <0>        -0.3146
     12 C10         1.1987    1.8184    0.0431 C.ar      1 <0>         0.1948
     13 C11        -0.0041    1.1288   -0.0347 C.ar      1 <0>        -0.1224
     14 C12        -1.1987    1.8211   -0.0020 C.ar      1 <0>         0.0038
     15 C13        -1.1981    3.1987    0.1192 C.ar      1 <0>        -0.6729
     16 C14        -0.0020    3.8882    0.1973 C.ar      1 <0>        -0.0032
     17 C15         1.1961    3.2022    0.1593 C.ar      1 <0>        -0.1329
     18 S1         -2.7244    4.0777    0.1674 S.o2      1 <0>         2.7027
     19 O1         -3.7073    3.1599    0.6266 O.2       1 <0>        -0.9555
     20 O2         -2.4636    5.3084    0.8282 O.2       1 <0>        -0.9530
     21 N3         -3.1220    4.4544   -1.3953 N.pl3     1 <0>        -1.2461
     22 C16         4.6598   -1.6125    0.9695 C.3       1 <0>         0.5574
     23 F1          3.7792   -2.3617    1.7572 F         1 <0>        -0.1626
     24 F2          5.1243   -2.4005   -0.0890 F         1 <0>        -0.1615
     25 F3          5.7430   -1.1944    1.7499 F         1 <0>        -0.1620
     26 Br1         4.0358    6.2737   -4.5021 Br        1 <0>        -0.0349
     27 H1          1.5284    2.7363   -2.0490 H         1 <0>         0.1340
     28 H2          1.7479    4.6741   -3.5479 H         1 <0>         0.1418
     29 H3          5.9747    4.6744   -2.9570 H         1 <0>         0.1446
     30 H4          5.7739    2.7430   -1.4474 H         1 <0>         0.1440
     31 H5          5.4623    0.4880   -0.9108 H         1 <0>         0.1745
     32 H6         -0.0053    0.0526   -0.1252 H         1 <0>         0.1483
     33 H7         -2.1344    1.2858   -0.0673 H         1 <0>         0.1579
     34 H8         -0.0047    4.9644    0.2878 H         1 <0>         0.1583
     35 H9          2.1299    3.7413    0.2197 H         1 <0>         0.1453
     36 H10        -4.0538    4.5311   -1.6537 H         1 <0>         0.4245
     37 H11        -2.4231    4.5984   -2.0524 H         1 <0>         0.4176
@<TRIPOS>BOND
     1    1    6 ar
     2    1    2 ar
     3    1   27 1
     4    2    3 ar
     5    2   28 1
     6    3    4 ar
     7    3   26 1
     8    4    5 ar
     9    4   29 1
    10    5    6 ar
    11    5   30 1
    12    6    7 1
    13    7   11 1
    14    7    8 2
    15    8    9 1
    16    8   31 1
    17    9   10 2
    18    9   22 1
    19   10   11 1
    20   11   12 1
    21   12   17 ar
    22   12   13 ar
    23   13   14 ar
    24   13   32 1
    25   14   15 ar
    26   14   33 1
    27   15   16 ar
    28   15   18 1
    29   16   17 ar
    30   16   34 1
    31   17   35 1
    32   18   19 2
    33   18   20 2
    34   18   21 1
    35   21   36 1
    36   21   37 1
    37   22   23 1
    38   22   24 1
    39   22   25 1
@<TRIPOS>MOLECULE
ZINC02383046
   30    31     0     0     0
SMALL
USER_CHARGES

@<TRIPOS>ATOM
      1 C1          3.6313    6.1118   -1.2344 C.ar      1 <0>        -0.1691
      2 C2          2.4290    5.4365   -1.1278 C.ar      1 <0>        -0.0959
      3 C3          2.4109    4.1141   -0.7312 C.ar      1 <0>        -0.1838
      4 C4          3.6017    3.4649   -0.4283 C.ar      1 <0>         0.2273
      5 C5          4.8074    4.1463   -0.5365 C.ar      1 <0>        -0.0874
      6 C6          4.8185    5.4675   -0.9389 C.ar      1 <0>        -0.0781
      7 C7          6.1018    3.4449   -0.2147 C.3       1 <0>        -0.1262
      8 C8          6.5827    2.6952   -1.4303 C.2       1 <0>         0.4637
      9 O1          5.9402    2.7271   -2.4531 O.co2     1 <0>        -0.6181
     10 N1          3.5868    2.1288   -0.0216 N.pl3     1 <0>        -0.6946
     11 C9          2.3778    1.4221    0.0179 C.ar      1 <0>         0.1674
     12 C10         1.5686    1.4911    1.1452 C.ar      1 <0>        -0.0137
     13 C11         0.3759    0.7938    1.1827 C.ar      1 <0>        -0.1352
     14 C12        -0.0132    0.0249    0.0958 C.ar      1 <0>         0.1265
     15 C13         0.7940   -0.0452   -1.0300 C.ar      1 <0>        -0.1330
     16 C14         1.9870    0.6516   -1.0702 C.ar      1 <0>        -0.0175
     17 Cl1         2.9964    0.5645   -2.4799 Cl        1 <0>        -0.0094
     18 O2         -1.1867   -0.6611    0.1341 O.3       1 <0>        -0.4895
     19 Cl2         2.0548    2.4537    2.5055 Cl        1 <0>        -0.0394
     20 H1          3.6429    7.1448   -1.5496 H         1 <0>         0.1107
     21 H2          1.5035    5.9428   -1.3594 H         1 <0>         0.1110
     22 H3          1.4721    3.5860   -0.6524 H         1 <0>         0.1062
     23 H4          5.7555    5.9978   -1.0232 H         1 <0>         0.1150
     24 H5          6.8508    4.1807    0.0782 H         1 <0>         0.0741
     25 H6          5.9414    2.7440    0.6045 H         1 <0>         0.0651
     26 H7          4.4135    1.6902    0.2335 H         1 <0>         0.4155
     27 H8         -0.2556    0.8511    2.0570 H         1 <0>         0.1454
     28 H9          0.4900   -0.6442   -1.8757 H         1 <0>         0.1464
     29 H10        -1.9452   -0.1618   -0.1983 H         1 <0>         0.3943
     30 O3          7.7247    1.9919   -1.3768 O.co2     1 <0>        -0.7777
@<TRIPOS>BOND
     1    1    6 ar
     2    1    2 ar
     3    1   20 1
     4    2    3 ar
     5    2   21 1
     6    3    4 ar
     7    3   22 1
     8    4    5 ar
     9    4   10 1
    10    5    6 ar
    11    5    7 1
    12    6   23 1
    13    7    8 1
    14    7   24 1
    15    7   25 1
    16    8    9 2
    17    8   30 1
    18   10   11 1
    19   10   26 1
    20   11   16 ar
    21   11   12 ar
    22   12   13 ar
    23   12   19 1
    24   13   14 ar
    25   13   27 1
    26   14   15 ar
    27   14   18 1
    28   15   16 ar
    29   15   28 1
    30   16   17 1
    31   18   29 1
@<TRIPOS>MOLECULE
ZINC02570895
   40    42     0     0     0
SMALL
USER_CHARGES

@<TRIPOS>ATOM
      1 C1          4.0035    5.9730   -4.2650 C.3       1 <0>        -0.1221
      2 C2          3.8742    4.7896   -3.3409 C.ar      1 <0>        -0.0624
      3 C3          5.0033    4.2489   -2.7521 C.ar      1 <0>        -0.1176
      4 C4          4.8918    3.1652   -1.9055 C.ar      1 <0>        -0.0759
      5 C5          3.6367    2.6147   -1.6436 C.ar      1 <0>        -0.0589
      6 C6          2.5025    3.1613   -2.2447 C.ar      1 <0>        -0.0979
      7 C7          2.6269    4.2483   -3.0853 C.ar      1 <0>        -0.1177
      8 C8          3.5099    1.4524   -0.7373 C.2       1 <0>         0.1476
      9 C9          4.4707    0.5143   -0.4837 C.2       1 <0>        -0.2036
     10 C10         3.9412   -0.4069    0.4206 C.2       1 <0>        -0.0038
     11 N1          2.7159   -0.0496    0.7129 N.2       1 <0>        -0.2164
     12 N2          2.4121    1.1195    0.0036 N.pl3     1 <0>        -0.3176
     13 C11         1.1985    1.8181    0.0427 C.ar      1 <0>         0.1993
     14 C12        -0.0042    1.1284   -0.0352 C.ar      1 <0>        -0.1240
     15 C13        -1.1989    1.8206   -0.0027 C.ar      1 <0>         0.0013
     16 C14        -1.1984    3.1981    0.1185 C.ar      1 <0>        -0.6727
     17 C15        -0.0024    3.8878    0.1968 C.ar      1 <0>        -0.0004
     18 C16         1.1957    3.2019    0.1590 C.ar      1 <0>        -0.1312
     19 S1         -2.7249    4.0770    0.1659 S.o2      1 <0>         2.7030
     20 O1         -3.7078    3.1592    0.6250 O.2       1 <0>        -0.9564
     21 O2         -2.4644    5.3079    0.8264 O.2       1 <0>        -0.9566
     22 N3         -3.1220    4.4532   -1.3971 N.pl3     1 <0>        -1.2485
     23 C17         4.6599   -1.6123    0.9697 C.3       1 <0>         0.5574
     24 F1          3.7793   -2.3616    1.7572 F         1 <0>        -0.1631
     25 F2          5.1247   -2.4003   -0.0888 F         1 <0>        -0.1620
     26 F3          5.7430   -1.1941    1.7502 F         1 <0>        -0.1626
     27 H1          4.1466    5.6220   -5.2870 H         1 <0>         0.0766
     28 H2          3.0973    6.5764   -4.2117 H         1 <0>         0.0708
     29 H3          4.8600    6.5766   -3.9648 H         1 <0>         0.0714
     30 H4          5.9742    4.6758   -2.9559 H         1 <0>         0.1331
     31 H5          5.7740    2.7437   -1.4468 H         1 <0>         0.1337
     32 H6          1.5287    2.7369   -2.0495 H         1 <0>         0.1242
     33 H7          1.7492    4.6750   -3.5480 H         1 <0>         0.1304
     34 H8          5.4622    0.4880   -0.9109 H         1 <0>         0.1724
     35 H9         -0.0052    0.0522   -0.1257 H         1 <0>         0.1479
     36 H10        -2.1345    1.2851   -0.0681 H         1 <0>         0.1579
     37 H11        -0.0053    4.9640    0.2873 H         1 <0>         0.1579
     38 H12         2.1295    3.7412    0.2195 H         1 <0>         0.1458
     39 H13        -2.5388    4.1839   -2.1239 H         1 <0>         0.4169
     40 H14        -3.9377    4.9430   -1.5858 H         1 <0>         0.4236
@<TRIPOS>BOND
     1    1    2 1
     2    1   27 1
     3    1   28 1
     4    1   29 1
     5    2    7 ar
     6    2    3 ar
     7    3    4 ar
     8    3   30 1
     9    4    5 ar
    10    4   31 1
    11    5    6 ar
    12    5    8 1
    13    6    7 ar
    14    6   32 1
    15    7   33 1
    16    8   12 1
    17    8    9 2
    18    9   10 1
    19    9   34 1
    20   10   11 2
    21   10   23 1
    22   11   12 1
    23   12   13 1
    24   13   18 ar
    25   13   14 ar
    26   14   15 ar
    27   14   35 1
    28   15   16 ar
    29   15   36 1
    30   16   17 ar
    31   16   19 1
    32   17   18 ar
    33   17   37 1
    34   18   38 1
    35   19   20 2
    36   19   21 2
    37   19   22 1
    38   22   39 1
    39   22   40 1
    40   23   24 1
    41   23   25 1
    42   23   26 1
@<TRIPOS>MOLECULE
ZINC03617632
   32    33     0     0     0
SMALL
USER_CHARGES

@<TRIPOS>ATOM
      1 C1          7.4316    5.0876    0.8202 C.3       1 <0>        -0.1192
      2 C2          7.2848    4.2134   -0.4268 C.3       1 <0>        -0.1124
      3 H1          8.1458    3.5500   -0.5088 H         1 <0>         0.0800
      4 C3          6.0261    3.3917   -0.3189 C.ar      1 <0>        -0.0029
      5 C4          6.1021    2.0100   -0.3351 C.ar      1 <0>        -0.1349
      6 C5          4.9542    1.2518   -0.2367 C.ar      1 <0>        -0.0678
      7 C6          3.7128    1.8818   -0.1211 C.ar      1 <0>        -0.1811
      8 C7          3.6431    3.2768   -0.1112 C.ar      1 <0>        -0.0875
      9 C8          4.7996    4.0225   -0.2045 C.ar      1 <0>        -0.0924
     10 C9          2.4788    1.0762   -0.0158 C.2       1 <0>         0.4440
     11 O1          2.3932    0.0158   -0.6036 O.2       1 <0>        -0.4572
     12 C10         1.3487    1.5597    0.8040 C.ar      1 <0>        -0.1571
     13 C11         0.1262    0.8844    0.7816 C.ar      1 <0>        -0.0648
     14 C12        -0.9263    1.3446    1.5450 C.ar      1 <0>        -0.1358
     15 C13        -0.7700    2.4665    2.3400 C.ar      1 <0>        -0.0933
     16 C14         0.4384    3.1405    2.3670 C.ar      1 <0>        -0.1337
     17 C15         1.4977    2.6945    1.6047 C.ar      1 <0>        -0.0779
     18 C16         7.2085    5.0910   -1.6494 C.2       1 <0>         0.4694
     19 O2          6.2322    5.0532   -2.3603 O.co2     1 <0>        -0.6287
     20 H2          8.3420    5.6819    0.7422 H         1 <0>         0.0659
     21 H3          6.5706    5.7510    0.9023 H         1 <0>         0.0494
     22 H4          7.4868    4.4528    1.7046 H         1 <0>         0.0440
     23 H5          7.0625    1.5243   -0.4245 H         1 <0>         0.1237
     24 H6          5.0150    0.1736   -0.2488 H         1 <0>         0.1236
     25 H7          2.6862    3.7703   -0.0262 H         1 <0>         0.1278
     26 H8          4.7476    5.1012   -0.1926 H         1 <0>         0.1264
     27 H9          0.0040    0.0065    0.1644 H         1 <0>         0.1322
     28 H10        -1.8733    0.8258    1.5255 H         1 <0>         0.1267
     29 H11        -1.5963    2.8204    2.9387 H         1 <0>         0.1249
     30 H12         0.5523    4.0176    2.9869 H         1 <0>         0.1290
     31 H13         2.4401    3.2217    1.6264 H         1 <0>         0.1444
     32 O3          8.2252    5.9148   -1.9488 O.co2     1 <0>        -0.7647
@<TRIPOS>BOND
     1    1    2 1
     2    1   20 1
     3    1   21 1
     4    1   22 1
     5    2    3 1
     6    2    4 1
     7    2   18 1
     8    4    9 ar
     9    4    5 ar
    10    5    6 ar
    11    5   23 1
    12    6    7 ar
    13    6   24 1
    14    7    8 ar
    15    7   10 1
    16    8    9 ar
    17    8   25 1
    18    9   26 1
    19   10   11 2
    20   10   12 1
    21   12   17 ar
    22   12   13 ar
    23   13   14 ar
    24   13   27 1
    25   14   15 ar
    26   14   28 1
    27   15   16 ar
    28   15   29 1
    29   16   17 ar
    30   16   30 1
    31   17   31 1
    32   18   19 2
    33   18   32 1
@<TRIPOS>MOLECULE
ZINC03775137
   41    43     0     0     0
SMALL
USER_CHARGES

@<TRIPOS>ATOM
      1 C1         -0.0313    0.5471    0.8724 C.3       1 <0>        -0.1476
      2 C2         -0.6362    1.0708    2.1765 C.3       1 <0>        -0.0810
      3 C3          0.2838    0.7431    3.3242 C.ar      1 <0>        -0.0830
      4 C4          0.0772   -0.3963    4.0708 C.ar      1 <0>        -0.1155
      5 C5          0.9179   -0.7090    5.1299 C.ar      1 <0>        -0.1507
      6 C6          1.9656    0.1073    5.4494 C.ar      1 <0>        -0.0820
      7 C7          2.1958    1.2675    4.7067 C.ar      1 <0>        -0.0912
      8 C8          1.3462    1.5868    3.6282 C.ar      1 <0>         0.0930
      9 N1          1.7974    2.7725    3.0877 N.pl3     1 <0>        -0.5427
     10 H1          1.3953    3.2290    2.3321 H         1 <0>         0.4323
     11 C9          2.8952    3.2054    3.7702 C.2       1 <0>         0.0980
     12 C10         3.1847    2.3351    4.7603 C.2       1 <0>        -0.2080
     13 C11         4.3444    2.5099    5.7072 C.3       1 <0>        -0.0673
     14 C12         5.2887    3.5594    5.1022 C.3       1 <0>         0.0550
     15 O1          4.5283    4.6912    4.6705 O.3       1 <0>        -0.3685
     16 C13         3.7123    4.4515    3.5170 C.3       1 <0>         0.2002
     17 C14         2.7808    5.6433    3.2865 C.3       1 <0>        -0.1254
     18 C15         3.6142    6.8938    2.9993 C.3       1 <0>        -0.1428
     19 C16         4.6013    4.2457    2.2890 C.3       1 <0>        -0.1818
     20 C17         3.7369    4.0427    1.0713 C.2       1 <0>         0.4799
     21 O2          2.5390    4.1794    1.1512 O.co2     1 <0>        -0.6407
     22 H2          0.0958   -0.5334    0.9390 H         1 <0>         0.0533
     23 H3          0.9380    1.0175    0.7068 H         1 <0>         0.0605
     24 H4         -0.6967    0.7842    0.0422 H         1 <0>         0.0552
     25 H5         -0.7633    2.1513    2.1099 H         1 <0>         0.0643
     26 H6         -1.6055    0.6005    2.3420 H         1 <0>         0.0693
     27 H7         -0.7462   -1.0522    3.8295 H         1 <0>         0.1172
     28 H8          0.7424   -1.6054    5.7062 H         1 <0>         0.1141
     29 H9          2.6152   -0.1442    6.2747 H         1 <0>         0.1126
     30 H10         3.9816    2.8541    6.6758 H         1 <0>         0.0698
     31 H11         4.8706    1.5627    5.8255 H         1 <0>         0.0725
     32 H12         6.0128    3.8733    5.8540 H         1 <0>         0.0932
     33 H13         5.8136    3.1276    4.2500 H         1 <0>         0.0549
     34 H14         2.1304    5.4369    2.4365 H         1 <0>         0.1238
     35 H15         2.1740    5.8076    4.1769 H         1 <0>         0.0535
     36 H16         2.9511    7.7253    2.7602 H         1 <0>         0.0480
     37 H17         4.2085    7.1441    3.8780 H         1 <0>         0.0524
     38 H18         4.2766    6.7030    2.1550 H         1 <0>         0.0563
     39 H19         5.2311    5.1236    2.1451 H         1 <0>         0.0856
     40 H20         5.2301    3.3680    2.4386 H         1 <0>         0.0696
     41 O3          4.2976    3.7099   -0.1019 O.co2     1 <0>        -0.7561
@<TRIPOS>BOND
     1    1    2 1
     2    1   22 1
     3    1   23 1
     4    1   24 1
     5    2    3 1
     6    2   25 1
     7    2   26 1
     8    3    8 ar
     9    3    4 ar
    10    4    5 ar
    11    4   27 1
    12    5    6 ar
    13    5   28 1
    14    6    7 ar
    15    6   29 1
    16    7   12 1
    17    7    8 ar
    18    8    9 1
    19    9   10 1
    20    9   11 1
    21   11   16 1
    22   11   12 2
    23   12   13 1
    24   13   14 1
    25   13   30 1
    26   13   31 1
    27   14   15 1
    28   14   32 1
    29   14   33 1
    30   15   16 1
    31   16   17 1
    32   16   19 1
    33   17   18 1
    34   17   34 1
    35   17   35 1
    36   18   36 1
    37   18   37 1
    38   18   38 1
    39   19   20 1
    40   19   39 1
    41   19   40 1
    42   20   21 2
    43   20   41 1
@<TRIPOS>MOLECULE
ZINC03779977
   30    31     0     0     0
SMALL
USER_CHARGES

@<TRIPOS>ATOM
      1 C1         -0.0886   -6.9768   -0.2852 C.3       1 <0>        -0.1205
      2 C2          1.3244   -6.4414   -0.0451 C.3       1 <0>        -0.1086
      3 H1          1.9842   -6.7874   -0.8408 H         1 <0>         0.0822
      4 C3          1.2958   -4.9347   -0.0360 C.ar      1 <0>        -0.0019
      5 C4          2.0450   -4.2258   -0.9581 C.ar      1 <0>        -0.1344
      6 C5          2.0240   -2.8459   -0.9552 C.ar      1 <0>        -0.0820
      7 C6          1.2461   -2.1651   -0.0210 C.ar      1 <0>        -0.1088
      8 C7          0.4966   -2.8839    0.9109 C.ar      1 <0>         0.1068
      9 C8          0.5214   -4.2664    0.8942 C.ar      1 <0>        -0.1150
     10 F1         -0.2559   -2.2310    1.8235 F         1 <0>        -0.1410
     11 C9          1.2196   -0.6817   -0.0133 C.ar      1 <0>        -0.0314
     12 C10         0.0021   -0.0041    0.0020 C.ar      1 <0>        -0.1029
     13 C11        -0.0166    1.3759    0.0096 C.ar      1 <0>        -0.1203
     14 C12         1.1702    2.0863    0.0021 C.ar      1 <0>        -0.1255
     15 C13         2.3816    1.4189   -0.0132 C.ar      1 <0>        -0.1212
     16 C14         2.4122    0.0391   -0.0209 C.ar      1 <0>        -0.1065
     17 C15         1.8325   -6.9422    1.2823 C.2       1 <0>         0.4688
     18 O1          2.1399   -6.1563    2.1470 O.co2     1 <0>        -0.6287
     19 H2         -0.0679   -8.0666   -0.2919 H         1 <0>         0.0666
     20 H3         -0.7484   -6.6307    0.5104 H         1 <0>         0.0489
     21 H4         -0.4561   -6.6145   -1.2453 H         1 <0>         0.0446
     22 H5          2.6482   -4.7537   -1.6820 H         1 <0>         0.1261
     23 H6          2.6099   -2.2946   -1.6758 H         1 <0>         0.1269
     24 H7         -0.0614   -4.8249    1.6117 H         1 <0>         0.1334
     25 H8         -0.9252   -0.5577    0.0083 H         1 <0>         0.1219
     26 H9         -0.9597    1.9022    0.0169 H         1 <0>         0.1213
     27 H10         1.1509    3.1661    0.0081 H         1 <0>         0.1191
     28 H11         3.3053    1.9785   -0.0190 H         1 <0>         0.1217
     29 H12         3.3586   -0.4811   -0.0324 H         1 <0>         0.1247
     30 O2          1.9436   -8.2614    1.5039 O.co2     1 <0>        -0.7643
@<TRIPOS>BOND
     1    1    2 1
     2    1   19 1
     3    1   20 1
     4    1   21 1
     5    2    3 1
     6    2    4 1
     7    2   17 1
     8    4    9 ar
     9    4    5 ar
    10    5    6 ar
    11    5   22 1
    12    6    7 ar
    13    6   23 1
    14    7    8 ar
    15    7   11 1
    16    8    9 ar
    17    8   10 1
    18    9   24 1
    19   11   16 ar
    20   11   12 ar
    21   12   13 ar
    22   12   25 1
    23   13   14 ar
    24   13   26 1
    25   14   15 ar
    26   14   27 1
    27   15   16 ar
    28   15   28 1
    29   16   29 1
    30   17   18 2
    31   17   30 1
@<TRIPOS>MOLECULE
ZINC03791739
   39    40     0     0     0
SMALL
USER_CHARGES

@<TRIPOS>ATOM
      1 C1         -6.4760    3.5356   -4.0754 C.3       1 <0>        -0.6678
      2 S1         -5.3357    3.1671   -5.4372 S.o2      1 <0>         2.6053
      3 O1         -4.6977    4.3582   -5.8772 O.2       1 <0>        -0.9388
      4 O2         -5.9531    2.2895   -6.3687 O.2       1 <0>        -0.9433
      5 N1         -4.1263    2.2696   -4.7485 N.pl3     1 <0>        -1.0446
      6 C2         -4.4251    1.0495   -4.1312 C.ar      1 <0>         0.1780
      7 C3         -5.4192    0.2326   -4.6498 C.ar      1 <0>        -0.1412
      8 C4         -5.7120   -0.9720   -4.0386 C.ar      1 <0>        -0.0553
      9 C5         -5.0167   -1.3655   -2.9103 C.ar      1 <0>        -0.0219
     10 C6         -4.0206   -0.5591   -2.3910 C.ar      1 <0>        -0.1306
     11 C7         -3.7246    0.6520   -2.9944 C.ar      1 <0>         0.1187
     12 O3         -2.7487    1.4485   -2.4817 O.3       1 <0>        -0.2960
     13 C8         -1.9889    0.9235   -1.3913 C.3       1 <0>         0.0801
     14 C9         -0.6176    1.6010   -1.3522 C.3       1 <0>        -0.1139
     15 C10         0.1959    1.0388   -0.1847 C.3       1 <0>        -0.1175
     16 C11        -0.5431    1.3073    1.1278 C.3       1 <0>        -0.1252
     17 C12        -1.9144    0.6298    1.0888 C.3       1 <0>        -0.1187
     18 C13        -2.7279    1.1920   -0.0788 C.3       1 <0>        -0.1467
     19 N2         -5.3349   -2.6566   -2.2602 N.pl3     1 <0>         0.0278
     20 O4         -6.2082   -3.3707   -2.7194 O.2       1 <0>        -0.1493
     21 O5         -4.7234   -3.0049   -1.2661 O.3       1 <0>        -0.1587
     22 H1         -5.9496    4.0946   -3.3018 H         1 <0>         0.1350
     23 H2         -7.3092    4.1302   -4.4500 H         1 <0>         0.1401
     24 H3         -6.8545    2.6034   -3.6561 H         1 <0>         0.1303
     25 H4         -3.2109    2.5894   -4.7730 H         1 <0>         0.4366
     26 H5         -5.9638    0.5377   -5.5311 H         1 <0>         0.1911
     27 H6         -6.4861   -1.6072   -4.4432 H         1 <0>         0.1658
     28 H7         -3.4764   -0.8716   -1.5121 H         1 <0>         0.1656
     29 H8         -1.8597   -0.1508   -1.5224 H         1 <0>         0.0788
     30 H9         -0.7467    2.6753   -1.2211 H         1 <0>         0.0776
     31 H10        -0.0911    1.4097   -2.2873 H         1 <0>         0.0746
     32 H11         0.3250   -0.0355   -0.3158 H         1 <0>         0.0670
     33 H12         1.1728    1.5215   -0.1568 H         1 <0>         0.0750
     34 H13         0.0364    0.9068    1.9596 H         1 <0>         0.0692
     35 H14        -0.6723    2.3816    1.2589 H         1 <0>         0.0659
     36 H15        -2.4409    0.8211    2.0238 H         1 <0>         0.0724
     37 H16        -1.7853   -0.4445    0.9577 H         1 <0>         0.0680
     38 H17        -2.8570    2.2663    0.0523 H         1 <0>         0.0783
     39 H18        -3.7048    0.7093   -0.1066 H         1 <0>         0.0684
@<TRIPOS>BOND
     1    1    2 1
     2    1   22 1
     3    1   23 1
     4    1   24 1
     5    2    3 2
     6    2    4 2
     7    2    5 1
     8    5    6 1
     9    5   25 1
    10    6   11 ar
    11    6    7 ar
    12    7    8 ar
    13    7   26 1
    14    8    9 ar
    15    8   27 1
    16    9   10 ar
    17    9   19 1
    18   10   11 ar
    19   10   28 1
    20   11   12 1
    21   12   13 1
    22   13   18 1
    23   13   14 1
    24   13   29 1
    25   14   15 1
    26   14   30 1
    27   14   31 1
    28   15   16 1
    29   15   32 1
    30   15   33 1
    31   16   17 1
    32   16   34 1
    33   16   35 1
    34   17   18 1
    35   17   36 1
    36   17   37 1
    37   18   38 1
    38   18   39 1
    39   19   20 2
    40   19   21 1
@<TRIPOS>MOLECULE
ZINC03801048
   40    42     0     0     0
SMALL
USER_CHARGES

@<TRIPOS>ATOM
      1 C1         -0.9067   -2.5770    2.5071 C.3       1 <0>        -0.0907
      2 C2         -0.8294   -3.0383    1.0745 C.2       1 <0>         0.0770
      3 C3         -0.9959   -2.2513    0.0024 C.2       1 <0>        -0.0883
      4 C4         -0.8449   -3.0995   -1.1849 C.ar      1 <0>        -0.0376
      5 C5         -0.9124   -2.8611   -2.5584 C.ar      1 <0>        -0.0950
      6 C6         -0.7182   -3.9046   -3.4427 C.ar      1 <0>         0.0973
      7 C7         -0.4572   -5.1867   -2.9678 C.ar      1 <0>        -0.1798
      8 C8         -0.3804   -5.4305   -1.6137 C.ar      1 <0>        -0.0934
      9 C9         -0.5773   -4.3945   -0.7091 C.ar      1 <0>         0.0801
     10 N1         -0.5773   -4.3278    0.6735 N.am      1 <0>        -0.5115
     11 C10        -0.3621   -5.3698    1.5007 C.2       1 <0>         0.6051
     12 O1          0.7735   -5.6900    1.7920 O.2       1 <0>        -0.4319
     13 C11        -1.5061   -6.1225    2.0531 C.ar      1 <0>        -0.1546
     14 C12        -2.8070   -5.8217    1.6431 C.ar      1 <0>        -0.0429
     15 C13        -3.8706   -6.5314    2.1590 C.ar      1 <0>        -0.1211
     16 C14        -3.6520   -7.5336    3.0900 C.ar      1 <0>        -0.0016
     17 C15        -2.3646   -7.8330    3.5045 C.ar      1 <0>        -0.1240
     18 C16        -1.2922   -7.1342    2.9921 C.ar      1 <0>        -0.0416
     19 Cl1        -4.9970   -8.4184    3.7394 Cl        1 <0>        -0.0609
     20 O2         -0.7828   -3.6785   -4.7820 O.3       1 <0>        -0.3177
     21 C17        -0.5724   -4.8014   -5.6404 C.3       1 <0>         0.0302
     22 C18        -1.2896   -0.7733    0.0145 C.3       1 <0>        -0.0976
     23 C19         0.0059   -0.0035    0.0049 C.2       1 <0>         0.4640
     24 O3          1.0597   -0.5945   -0.0102 O.co2     1 <0>        -0.6275
     25 H1         -1.9334   -2.6656    2.8624 H         1 <0>         0.0747
     26 H2         -0.2543   -3.1953    3.1236 H         1 <0>         0.0602
     27 H3         -0.5884   -1.5365    2.5714 H         1 <0>         0.0944
     28 H4         -1.1149   -1.8667   -2.9278 H         1 <0>         0.1344
     29 H5         -0.3071   -5.9962   -3.6668 H         1 <0>         0.1294
     30 H6         -0.1784   -6.4291   -1.2555 H         1 <0>         0.1166
     31 H7         -2.9790   -5.0378    0.9205 H         1 <0>         0.1452
     32 H8         -4.8766   -6.3028    1.8395 H         1 <0>         0.1436
     33 H9         -2.2005   -8.6157    4.2304 H         1 <0>         0.1433
     34 H10        -0.2889   -7.3687    3.3158 H         1 <0>         0.1467
     35 H11        -0.6508   -4.4836   -6.6801 H         1 <0>         0.0952
     36 H12         0.4198   -5.2152   -5.4608 H         1 <0>         0.0518
     37 H13        -1.3259   -5.5618   -5.4351 H         1 <0>         0.0509
     38 H14        -1.8546   -0.5225    0.9123 H         1 <0>         0.0761
     39 H15        -1.8742   -0.5117   -0.8675 H         1 <0>         0.0771
     40 O4         -0.0107    1.3386    0.0132 O.co2     1 <0>        -0.7753
@<TRIPOS>BOND
     1    1    2 1
     2    1   25 1
     3    1   26 1
     4    1   27 1
     5    2   10 1
     6    2    3 2
     7    3    4 1
     8    3   22 1
     9    4    9 ar
    10    4    5 ar
    11    5    6 ar
    12    5   28 1
    13    6    7 ar
    14    6   20 1
    15    7    8 ar
    16    7   29 1
    17    8    9 ar
    18    8   30 1
    19    9   10 1
    20   10   11 am
    21   11   12 2
    22   11   13 1
    23   13   18 ar
    24   13   14 ar
    25   14   15 ar
    26   14   31 1
    27   15   16 ar
    28   15   32 1
    29   16   17 ar
    30   16   19 1
    31   17   18 ar
    32   17   33 1
    33   18   34 1
    34   20   21 1
    35   21   35 1
    36   21   36 1
    37   21   37 1
    38   22   23 1
    39   22   38 1
    40   22   39 1
    41   23   24 2
    42   23   40 1
@<TRIPOS>MOLECULE
ZINC03812990
   29    30     0     0     0
SMALL
USER_CHARGES

@<TRIPOS>ATOM
      1 C1         -0.0410    5.9557    0.7089 C.3       1 <0>        -0.1142
      2 C2         -0.0254    4.4735    0.4372 C.ar      1 <0>        -0.0403
      3 C3          1.1790    3.8152    0.2666 C.ar      1 <0>        -0.1630
      4 C4          1.1983    2.4555    0.0167 C.ar      1 <0>        -0.0675
      5 C5          0.0130    1.7487   -0.0631 C.ar      1 <0>        -0.1021
      6 C6         -1.1992    2.4076    0.1025 C.ar      1 <0>         0.2818
      7 C7         -1.2144    3.7735    0.3593 C.ar      1 <0>        -0.0672
      8 Cl1        -2.7255    4.6006    0.5747 Cl        1 <0>        -0.0647
      9 N1         -2.4008    1.6970    0.0167 N.pl3     1 <0>        -0.6683
     10 C8         -2.4113    0.3234    0.2210 C.ar      1 <0>         0.1813
     11 C9         -2.6202   -0.5403   -0.8476 C.ar      1 <0>        -0.1381
     12 C10        -2.6248   -1.9045   -0.6428 C.ar      1 <0>        -0.1194
     13 C11        -2.4324   -2.4246    0.6278 C.ar      1 <0>        -0.1448
     14 C12        -2.2295   -1.5849    1.7005 C.ar      1 <0>        -0.0708
     15 C13        -2.2165   -0.2002    1.5094 C.ar      1 <0>        -0.1146
     16 C14        -1.9995    0.7037    2.6518 C.2       1 <0>         0.4864
     17 O1         -2.0943    1.9060    2.5020 O.co2     1 <0>        -0.6079
     18 Cl2         0.0385    0.0415   -0.3768 Cl        1 <0>        -0.0553
     19 H1         -0.0869    6.4977   -0.2356 H         1 <0>         0.0711
     20 H2         -0.9129    6.2050    1.3137 H         1 <0>         0.0729
     21 H3          0.8655    6.2364    1.2452 H         1 <0>         0.0684
     22 H4          2.1067    4.3648    0.3284 H         1 <0>         0.1295
     23 H5          2.1407    1.9451   -0.1166 H         1 <0>         0.1299
     24 H6         -3.2268    2.1635   -0.1856 H         1 <0>         0.4062
     25 H7         -2.7753   -0.1432   -1.8398 H         1 <0>         0.1157
     26 H8         -2.7835   -2.5716   -1.4772 H         1 <0>         0.1136
     27 H9         -2.4421   -3.4942    0.7774 H         1 <0>         0.1137
     28 H10        -2.0809   -1.9958    2.6881 H         1 <0>         0.1285
     29 O2         -1.6959    0.1975    3.8634 O.co2     1 <0>        -0.7609
@<TRIPOS>BOND
     1    1    2 1
     2    1   19 1
     3    1   20 1
     4    1   21 1
     5    2    7 ar
     6    2    3 ar
     7    3    4 ar
     8    3   22 1
     9    4    5 ar
    10    4   23 1
    11    5    6 ar
    12    5   18 1
    13    6    7 ar
    14    6    9 1
    15    7    8 1
    16    9   10 1
    17    9   24 1
    18   10   15 ar
    19   10   11 ar
    20   11   12 ar
    21   11   25 1
    22   12   13 ar
    23   12   26 1
    24   13   14 ar
    25   13   27 1
    26   14   15 ar
    27   14   28 1
    28   15   16 1
    29   16   17 2
    30   16   29 1
@<TRIPOS>MOLECULE
ZINC03814507
   41    43     0     0     0
SMALL
USER_CHARGES

@<TRIPOS>ATOM
      1 C1          9.8855    0.1750    0.6719 C.3       1 <0>        -0.1535
      2 C2          8.3750   -0.0132    0.8260 C.3       1 <0>         0.0519
      3 O1          7.6914    0.8718   -0.0637 O.3       1 <0>        -0.3119
      4 C3          6.3331    0.8307   -0.0519 C.ar      1 <0>         0.1485
      5 C4          5.6079    1.6648   -0.8921 C.ar      1 <0>        -0.1480
      6 C5          4.2297    1.6266   -0.8829 C.ar      1 <0>        -0.0453
      7 C6          3.5635    0.7477   -0.0272 C.ar      1 <0>        -0.0742
      8 C7          4.2962   -0.0852    0.8201 C.ar      1 <0>        -0.0552
      9 C8          5.6743   -0.0449    0.8007 C.ar      1 <0>        -0.2062
     10 C9          2.0857    0.7033   -0.0141 C.2       1 <0>         0.0569
     11 C10         1.2386    1.7692   -0.0003 C.2       1 <0>         0.0700
     12 N1         -0.0156    1.3019    0.0092 N.2       1 <0>        -0.4661
     13 C11         0.0021   -0.0041    0.0020 C.2       1 <0>         0.2200
     14 N2          1.2936   -0.4262   -0.0126 N.pl3     1 <0>        -0.4194
     15 C12         1.7367   -1.7559   -0.0235 C.ar      1 <0>         0.1795
     16 C13         2.6766   -2.1682   -0.9585 C.ar      1 <0>        -0.1260
     17 C14         3.1148   -3.4780   -0.9637 C.ar      1 <0>         0.0018
     18 C15         2.6111   -4.3808   -0.0454 C.ar      1 <0>        -0.6732
     19 C16         1.6710   -3.9744    0.8837 C.ar      1 <0>         0.0016
     20 C17         1.2324   -2.6647    0.8969 C.ar      1 <0>        -0.1358
     21 S1          3.1677   -6.0525   -0.0595 S.o2      1 <0>         2.7022
     22 O2          4.4501   -6.0484   -0.6716 O.2       1 <0>        -0.9572
     23 O3          2.9492   -6.5643    1.2480 O.2       1 <0>        -0.9574
     24 N3          2.1630   -6.8946   -1.0714 N.pl3     1 <0>        -1.2485
     25 Cl1         1.7039    3.4417    0.0038 Cl        1 <0>         0.0053
     26 H1         10.1763   -0.0461   -0.3551 H         1 <0>         0.0678
     27 H2         10.1495    1.2053    0.9104 H         1 <0>         0.0675
     28 H3         10.4069   -0.5001    1.3505 H         1 <0>         0.0806
     29 H4          8.0842    0.2079    1.8529 H         1 <0>         0.0641
     30 H5          8.1110   -1.0435    0.5875 H         1 <0>         0.0648
     31 H6          6.1241    2.3448   -1.5537 H         1 <0>         0.1393
     32 H7          3.6663    2.2760   -1.5365 H         1 <0>         0.1358
     33 H8          3.7844   -0.7631    1.4870 H         1 <0>         0.1204
     34 H9          6.2419   -0.6924    1.4525 H         1 <0>         0.1335
     35 H10        -0.8679   -0.6441    0.0069 H         1 <0>         0.2227
     36 H11         3.0673   -1.4646   -1.6786 H         1 <0>         0.1437
     37 H12         3.8490   -3.7984   -1.6882 H         1 <0>         0.1553
     38 H13         1.2791   -4.6818    1.5995 H         1 <0>         0.1568
     39 H14         0.4977   -2.3480    1.6223 H         1 <0>         0.1469
     40 H15         1.4332   -6.4391   -1.5195 H         1 <0>         0.4175
     41 H16         2.3042   -7.8433   -1.2159 H         1 <0>         0.4236
@<TRIPOS>BOND
     1    1    2 1
     2    1   26 1
     3    1   27 1
     4    1   28 1
     5    2    3 1
     6    2   29 1
     7    2   30 1
     8    3    4 1
     9    4    9 ar
    10    4    5 ar
    11    5    6 ar
    12    5   31 1
    13    6    7 ar
    14    6   32 1
    15    7    8 ar
    16    7   10 1
    17    8    9 ar
    18    8   33 1
    19    9   34 1
    20   10   14 1
    21   10   11 2
    22   11   12 1
    23   11   25 1
    24   12   13 2
    25   13   14 1
    26   13   35 1
    27   14   15 1
    28   15   20 ar
    29   15   16 ar
    30   16   17 ar
    31   16   36 1
    32   17   18 ar
    33   17   37 1
    34   18   19 ar
    35   18   21 1
    36   19   20 ar
    37   19   38 1
    38   20   39 1
    39   21   22 2
    40   21   23 2
    41   21   24 1
    42   24   40 1
    43   24   41 1
@<TRIPOS>MOLECULE
ZINC03814509
   39    42     0     0     0
SMALL
USER_CHARGES

@<TRIPOS>ATOM
      1 C1          1.2814    5.3481    6.5240 C.ar      1 <0>        -0.0917
      2 C2          0.8745    4.9981    5.2484 C.ar      1 <0>        -0.1118
      3 C3         -0.3824    4.4694    5.0539 C.ar      1 <0>        -0.1019
      4 C4         -1.2462    4.2839    6.1394 C.ar      1 <0>        -0.0426
      5 C5         -0.8290    4.6193    7.4262 C.ar      1 <0>        -0.0477
      6 C6          0.4383    5.1595    7.5995 C.ar      1 <0>        -0.1066
      7 C7         -1.6700    4.4269    8.6602 C.3       1 <0>        -0.0793
      8 S1         -3.4273    4.7293    8.3132 S.3       1 <0>        -0.0247
      9 C8         -3.6461    3.8890    6.7785 C.2       1 <0>        -0.2020
     10 C9         -2.5917    3.7371    5.8831 C.2       1 <0>         0.1469
     11 N1         -3.0783    3.0438    4.8203 N.pl3     1 <0>        -0.2943
     12 N2         -4.4379    2.7870    5.0630 N.2       1 <0>        -0.2112
     13 C10        -4.7671    3.2878    6.2334 C.2       1 <0>         0.0314
     14 C11        -6.1320    3.2235    6.8692 C.3       1 <0>         0.5565
     15 F1         -6.8800    4.3405    6.4818 F         1 <0>        -0.1614
     16 F2         -6.7852    2.0580    6.4543 F         1 <0>        -0.1612
     17 F3         -5.9977    3.2123    8.2617 F         1 <0>        -0.1508
     18 C12        -2.3553    2.6595    3.6840 C.ar      1 <0>         0.1897
     19 C13        -2.8986    2.8418    2.4190 C.ar      1 <0>        -0.1191
     20 C14        -2.1834    2.4614    1.3005 C.ar      1 <0>         0.0027
     21 C15        -0.9273    1.9000    1.4391 C.ar      1 <0>        -0.6748
     22 C16        -0.3858    1.7120    2.6976 C.ar      1 <0>        -0.0049
     23 C17        -1.0938    2.0951    3.8199 C.ar      1 <0>        -0.1320
     24 S2         -0.0177    1.4165    0.0096 S.o2      1 <0>         2.7039
     25 O1         -0.9701    1.1905   -1.0205 O.2       1 <0>        -0.9518
     26 O2          0.9003    0.4171    0.4311 O.2       1 <0>        -0.9501
     27 N3          0.8865    2.7220   -0.4601 N.pl3     1 <0>        -1.2420
     28 H1          2.2631    5.7711    6.6781 H         1 <0>         0.1352
     29 H2          1.5396    5.1385    4.4092 H         1 <0>         0.1352
     30 H3         -0.7028    4.1968    4.0593 H         1 <0>         0.1300
     31 H4          0.7686    5.4354    8.5900 H         1 <0>         0.1369
     32 H5         -1.3344    5.1189    9.4326 H         1 <0>         0.1321
     33 H6         -1.5476    3.4049    9.0190 H         1 <0>         0.1075
     34 H7         -3.8796    3.2802    2.3101 H         1 <0>         0.1487
     35 H8         -2.6054    2.6029    0.3165 H         1 <0>         0.1578
     36 H9          0.5935    1.2689    2.8028 H         1 <0>         0.1581
     37 H10        -0.6686    1.9521    4.8023 H         1 <0>         0.1447
     38 H11         0.7610    3.1071   -1.3415 H         1 <0>         0.4248
     39 H12         1.5417    3.1015    0.1462 H         1 <0>         0.4196
@<TRIPOS>BOND
     1    1    6 ar
     2    1    2 ar
     3    1   28 1
     4    2    3 ar
     5    2   29 1
     6    3    4 ar
     7    3   30 1
     8    4   10 1
     9    4    5 ar
    10    5    6 ar
    11    5    7 1
    12    6   31 1
    13    7    8 1
    14    7   32 1
    15    7   33 1
    16    8    9 1
    17    9   13 1
    18    9   10 2
    19   10   11 1
    20   11   12 1
    21   11   18 1
    22   12   13 2
    23   13   14 1
    24   14   15 1
    25   14   16 1
    26   14   17 1
    27   18   23 ar
    28   18   19 ar
    29   19   20 ar
    30   19   34 1
    31   20   21 ar
    32   20   35 1
    33   21   22 ar
    34   21   24 1
    35   22   23 ar
    36   22   36 1
    37   23   37 1
    38   24   25 2
    39   24   26 2
    40   24   27 1
    41   27   38 1
    42   27   39 1
@<TRIPOS>MOLECULE
ZINC03814510
   34    36     0     0     0
SMALL
USER_CHARGES

@<TRIPOS>ATOM
      1 C1          4.6001    4.1286   -0.8816 C.ar      1 <0>        -0.1181
      2 C2          4.6448    5.5090   -0.8819 C.ar      1 <0>         0.0047
      3 C3          3.8336    6.2286   -0.0239 C.ar      1 <0>        -0.6719
      4 C4          2.9712    5.5694    0.8328 C.ar      1 <0>         0.0036
      5 C5          2.9176    4.1893    0.8339 C.ar      1 <0>        -0.1358
      6 C6          3.7310    3.4637   -0.0266 C.ar      1 <0>         0.1905
      7 N1          3.6791    2.0641   -0.0279 N.pl3     1 <0>        -0.3127
      8 C7          2.5456    1.2992   -0.0100 C.2       1 <0>         0.1778
      9 C8          2.9481   -0.0205   -0.0243 C.2       1 <0>        -0.1827
     10 C9          4.3424   -0.0375   -0.0458 C.2       1 <0>        -0.0034
     11 N2          4.7786    1.1969   -0.0450 N.2       1 <0>        -0.2088
     12 C10         5.2049   -1.2731   -0.0662 C.3       1 <0>         0.5589
     13 F1          5.4515   -1.6478   -1.3913 F         1 <0>        -0.1624
     14 F2          6.4185   -1.0053    0.5762 F         1 <0>        -0.1626
     15 F3          4.5454   -2.3131    0.5975 F         1 <0>        -0.1600
     16 C11         1.1578    1.7910    0.0136 C.2       1 <0>        -0.1266
     17 C12         0.0142    1.1332    0.3882 C.2       1 <0>        -0.0980
     18 C13        -1.1867    1.8038    0.3201 C.2       1 <0>        -0.1169
     19 C14        -1.2008    3.0951   -0.1036 C.2       1 <0>        -0.1667
     20 S1          0.5262    3.3986   -0.4386 S.3       1 <0>         0.1472
     21 Br1        -2.6726    4.2667   -0.2964 Br        1 <0>         0.0547
     22 S2          3.8993    7.9894   -0.0217 S.o2      1 <0>         2.7021
     23 O1          4.3900    8.3791   -1.2971 O.2       1 <0>        -0.9554
     24 O2          2.6512    8.4418    0.4851 O.2       1 <0>        -0.9522
     25 N3          5.0487    8.4352    1.0840 N.pl3     1 <0>        -1.2460
     26 H1          5.2374    3.5669   -1.5486 H         1 <0>         0.1489
     27 H2          5.3173    6.0268   -1.5498 H         1 <0>         0.1587
     28 H3          2.3391    6.1342    1.5020 H         1 <0>         0.1596
     29 H4          2.2442    3.6750    1.5035 H         1 <0>         0.1455
     30 H5          2.3001   -0.8846   -0.0199 H         1 <0>         0.1782
     31 H6          0.0540    0.1081    0.7256 H         1 <0>         0.1539
     32 H7         -2.1050    1.3112    0.6040 H         1 <0>         0.1531
     33 H8          5.5507    9.2555    0.9578 H         1 <0>         0.4243
     34 H9          5.2200    7.8759    1.8578 H         1 <0>         0.4183
@<TRIPOS>BOND
     1    1    6 ar
     2    1    2 ar
     3    1   26 1
     4    2    3 ar
     5    2   27 1
     6    3    4 ar
     7    3   22 1
     8    4    5 ar
     9    4   28 1
    10    5    6 ar
    11    5   29 1
    12    6    7 1
    13    7   11 1
    14    7    8 1
    15    8    9 2
    16    8   16 1
    17    9   10 1
    18    9   30 1
    19   10   11 2
    20   10   12 1
    21   12   13 1
    22   12   14 1
    23   12   15 1
    24   16   20 1
    25   16   17 2
    26   17   18 1
    27   17   31 1
    28   18   19 2
    29   18   32 1
    30   19   20 1
    31   19   21 1
    32   22   23 2
    33   22   24 2
    34   22   25 1
    35   25   33 1
    36   25   34 1
@<TRIPOS>MOLECULE
ZINC03814511
   39    41     0     0     0
SMALL
USER_CHARGES

@<TRIPOS>ATOM
      1 C1         -3.1104    4.9425    8.2111 C.3       1 <0>        -0.0968
      2 C2         -3.1610    3.9462    7.0815 C.2       1 <0>         0.0877
      3 C3         -3.8670    2.7941    7.0755 C.2       1 <0>        -0.1669
      4 C4         -3.6460    2.1635    5.8394 C.2       1 <0>        -0.1216
      5 C5         -2.7969    2.9544    5.1249 C.2       1 <0>         0.0449
      6 N1         -2.5010    4.0551    5.8908 N.pl3     1 <0>        -0.3893
      7 C6         -1.6623    5.1135    5.5135 C.ar      1 <0>         0.0946
      8 C7         -0.2982    4.9010    5.3669 C.ar      1 <0>        -0.0731
      9 C8          0.5257    5.9438    4.9909 C.ar      1 <0>        -0.1408
     10 C9         -0.0066    7.2029    4.7700 C.ar      1 <0>         0.1182
     11 C10        -1.3663    7.4179    4.9204 C.ar      1 <0>        -0.1398
     12 C11        -2.1941    6.3765    5.2915 C.ar      1 <0>        -0.0778
     13 F1          0.8016    8.2228    4.4069 F         1 <0>        -0.1283
     14 C12        -2.2895    2.6793    3.7640 C.ar      1 <0>         0.0427
     15 C13        -1.7917    3.7197    2.9778 C.ar      1 <0>        -0.1436
     16 C14        -1.3192    3.4561    1.7088 C.ar      1 <0>        -0.0150
     17 C15        -1.3376    2.1637    1.2151 C.ar      1 <0>        -0.6627
     18 C16        -1.8345    1.1286    1.9872 C.ar      1 <0>        -0.0148
     19 C17        -2.3055    1.3779    3.2597 C.ar      1 <0>        -0.1229
     20 S1         -0.7322    1.8357   -0.4068 S.o2      1 <0>         2.4992
     21 O1         -0.8968    3.0597   -1.1097 O.2       1 <0>        -0.9364
     22 O2         -1.4214    0.6641   -0.8211 O.2       1 <0>        -0.9354
     23 C18         1.0316    1.4764   -0.1822 C.3       1 <0>        -0.6504
     24 Br1        -4.9614    2.1494    8.4764 Br        1 <0>        -0.0197
     25 H1         -3.9040    5.6785    8.0822 H         1 <0>         0.0836
     26 H2         -3.2470    4.4234    9.1598 H         1 <0>         0.0917
     27 H3         -2.1438    5.4461    8.2084 H         1 <0>         0.0725
     28 H4         -4.0694    1.2240    5.5161 H         1 <0>         0.1553
     29 H5          0.1179    3.9202    5.5434 H         1 <0>         0.1414
     30 H6          1.5864    5.7780    4.8731 H         1 <0>         0.1493
     31 H7         -1.7796    8.4006    4.7477 H         1 <0>         0.1502
     32 H8         -3.2544    6.5447    5.4094 H         1 <0>         0.1434
     33 H9         -1.7769    4.7289    3.3621 H         1 <0>         0.1316
     34 H10        -0.9339    4.2602    1.0995 H         1 <0>         0.1438
     35 H11        -1.8501    0.1228    1.5942 H         1 <0>         0.1481
     36 H12        -2.6897    0.5685    3.8627 H         1 <0>         0.1400
     37 H13         1.5242    2.3398    0.2651 H         1 <0>         0.1310
     38 H14         1.1460    0.6130    0.4731 H         1 <0>         0.1321
     39 H15         1.4846    1.2606   -1.1499 H         1 <0>         0.1341
@<TRIPOS>BOND
     1    1    2 1
     2    1   25 1
     3    1   26 1
     4    1   27 1
     5    2    6 1
     6    2    3 2
     7    3    4 1
     8    3   24 1
     9    4    5 2
    10    4   28 1
    11    5    6 1
    12    5   14 1
    13    6    7 1
    14    7   12 ar
    15    7    8 ar
    16    8    9 ar
    17    8   29 1
    18    9   10 ar
    19    9   30 1
    20   10   11 ar
    21   10   13 1
    22   11   12 ar
    23   11   31 1
    24   12   32 1
    25   14   19 ar
    26   14   15 ar
    27   15   16 ar
    28   15   33 1
    29   16   17 ar
    30   16   34 1
    31   17   18 ar
    32   17   20 1
    33   18   19 ar
    34   18   35 1
    35   19   36 1
    36   20   21 2
    37   20   22 2
    38   20   23 1
    39   23   37 1
    40   23   38 1
    41   23   39 1
@<TRIPOS>MOLECULE
ZINC03814512
   41    43     0     0     0
SMALL
USER_CHARGES

@<TRIPOS>ATOM
      1 C1          3.2979    4.9770    8.8654 C.3       1 <0>        -0.1590
      2 S1          3.2847    4.0897    7.2832 S.3       1 <0>        -0.0678
      3 C2          1.5721    3.9112    6.9089 C.ar      1 <0>        -0.0644
      4 C3          0.6142    4.4181    7.7812 C.ar      1 <0>        -0.1230
      5 C4         -0.7253    4.2797    7.4916 C.ar      1 <0>        -0.0424
      6 C5         -1.1222    3.6296    6.3208 C.ar      1 <0>        -0.0262
      7 C6         -0.1592    3.1163    5.4492 C.ar      1 <0>        -0.0797
      8 C7          1.1801    3.2626    5.7410 C.ar      1 <0>        -0.0225
      9 Cl1         2.3785    2.6310    4.6554 Cl        1 <0>        -0.0367
     10 C8         -2.5585    3.4799    6.0078 C.2       1 <0>         0.2813
     11 N1         -3.5474    3.5571    6.8715 N.2       1 <0>        -0.4251
     12 C9         -4.7089    3.3716    6.2324 C.2       1 <0>        -0.0810
     13 C10        -4.4497    3.1763    4.9241 C.2       1 <0>         0.0394
     14 N2         -3.0876    3.2375    4.7709 N.pl3     1 <0>        -0.4140
     15 C11        -2.3750    3.0863    3.5737 C.ar      1 <0>         0.1614
     16 C12        -2.5248    1.9326    2.8160 C.ar      1 <0>        -0.1288
     17 C13        -1.8215    1.7867    1.6363 C.ar      1 <0>         0.0023
     18 C14        -0.9692    2.7885    1.2094 C.ar      1 <0>        -0.6665
     19 C15        -0.8139    3.9364    1.9646 C.ar      1 <0>         0.0016
     20 C16        -1.5181    4.0902    3.1427 C.ar      1 <0>        -0.1249
     21 S2         -0.0737    2.5986   -0.2961 S.o2      1 <0>         2.6997
     22 O1          0.0260    1.2016   -0.5360 O.2       1 <0>        -0.9545
     23 O2          1.0686    3.4381   -0.1979 O.2       1 <0>        -0.9524
     24 N3         -1.0155    3.2209   -1.5078 N.pl3     1 <0>        -1.2482
     25 C17        -6.0756    3.3856    6.8671 C.3       1 <0>         0.5564
     26 F1         -5.9595    3.7358    8.2166 F         1 <0>        -0.1621
     27 F2         -6.8849    4.3193    6.2110 F         1 <0>        -0.1710
     28 F3         -6.6512    2.1148    6.7630 F         1 <0>        -0.1706
     29 H1          2.7725    4.3876    9.6169 H         1 <0>         0.0883
     30 H2          4.3280    5.1367    9.1838 H         1 <0>         0.1153
     31 H3          2.8010    5.9398    8.7461 H         1 <0>         0.0881
     32 H4          0.9212    4.9210    8.6863 H         1 <0>         0.1432
     33 H5         -1.4682    4.6732    8.1695 H         1 <0>         0.1485
     34 H6         -0.4633    2.6090    4.5456 H         1 <0>         0.1395
     35 H7         -5.1765    3.0020    4.1444 H         1 <0>         0.1995
     36 H8         -3.1909    1.1502    3.1485 H         1 <0>         0.1487
     37 H9         -1.9376    0.8895    1.0464 H         1 <0>         0.1597
     38 H10        -0.1444    4.7153    1.6307 H         1 <0>         0.1597
     39 H11        -1.3995    4.9887    3.7300 H         1 <0>         0.1467
     40 H12        -1.8862    3.5955   -1.3015 H         1 <0>         0.4174
     41 H13        -0.6966    3.2107   -2.4238 H         1 <0>         0.4242
@<TRIPOS>BOND
     1    1    2 1
     2    1   29 1
     3    1   30 1
     4    1   31 1
     5    2    3 1
     6    3    8 ar
     7    3    4 ar
     8    4    5 ar
     9    4   32 1
    10    5    6 ar
    11    5   33 1
    12    6    7 ar
    13    6   10 1
    14    7    8 ar
    15    7   34 1
    16    8    9 1
    17   10   14 1
    18   10   11 2
    19   11   12 1
    20   12   13 2
    21   12   25 1
    22   13   14 1
    23   13   35 1
    24   14   15 1
    25   15   20 ar
    26   15   16 ar
    27   16   17 ar
    28   16   36 1
    29   17   18 ar
    30   17   37 1
    31   18   19 ar
    32   18   21 1
    33   19   20 ar
    34   19   38 1
    35   20   39 1
    36   21   22 2
    37   21   23 2
    38   21   24 1
    39   24   40 1
    40   24   41 1
    41   25   26 1
    42   25   27 1
    43   25   28 1
@<TRIPOS>MOLECULE
ZINC03814512
   42    44     0     0     0
SMALL
USER_CHARGES

@<TRIPOS>ATOM
      1 C1          3.2979    4.9770    8.8654 C.3       1 <0>        -0.1720
      2 S1          3.2847    4.0897    7.2832 S.3       1 <0>        -0.0103
      3 C2          1.5721    3.9112    6.9089 C.ar      1 <0>        -0.0331
      4 C3          0.6142    4.4181    7.7812 C.ar      1 <0>        -0.1231
      5 C4         -0.7253    4.2797    7.4916 C.ar      1 <0>        -0.0343
      6 C5         -1.1222    3.6296    6.3208 C.ar      1 <0>        -0.1161
      7 C6         -0.1592    3.1163    5.4492 C.ar      1 <0>        -0.0390
      8 C7          1.1801    3.2626    5.7410 C.ar      1 <0>        -0.0311
      9 Cl1         2.3785    2.6310    4.6554 Cl        1 <0>        -0.0084
     10 C8         -2.5585    3.4799    6.0078 C.cat     1 <0>         0.4257
     11 C9         -4.7089    3.3716    6.2324 C.2       1 <0>        -0.0713
     12 C10        -4.4497    3.1763    4.9241 C.2       1 <0>         0.1216
     13 N1         -3.0876    3.2375    4.7709 N.pl3     1 <0>        -0.3715
     14 C11        -2.3750    3.0863    3.5737 C.ar      1 <0>         0.1118
     15 C12        -2.5248    1.9326    2.8160 C.ar      1 <0>        -0.1072
     16 C13        -1.8215    1.7867    1.6363 C.ar      1 <0>         0.0066
     17 C14        -0.9692    2.7885    1.2094 C.ar      1 <0>        -0.6448
     18 C15        -0.8139    3.9364    1.9646 C.ar      1 <0>         0.0045
     19 C16        -1.5181    4.0902    3.1427 C.ar      1 <0>        -0.1126
     20 S2         -0.0737    2.5986   -0.2961 S.o2      1 <0>         2.6956
     21 O1          0.0260    1.2016   -0.5360 O.2       1 <0>        -0.9438
     22 O2          1.0686    3.4381   -0.1979 O.2       1 <0>        -0.9431
     23 N2         -1.0155    3.2209   -1.5078 N.pl3     1 <0>        -1.2451
     24 C17        -6.0756    3.3856    6.8671 C.3       1 <0>         0.5543
     25 F1         -5.9595    3.7358    8.2166 F         1 <0>        -0.1592
     26 F2         -6.8849    4.3193    6.2110 F         1 <0>        -0.1440
     27 F3         -6.6512    2.1148    6.7630 F         1 <0>        -0.1444
     28 H1          2.7725    4.3876    9.6169 H         1 <0>         0.0949
     29 H2          4.3280    5.1367    9.1838 H         1 <0>         0.1263
     30 H3          2.8010    5.9398    8.7461 H         1 <0>         0.0950
     31 H4          0.9212    4.9210    8.6863 H         1 <0>         0.1570
     32 H5         -1.4682    4.6732    8.1695 H         1 <0>         0.1447
     33 H6         -0.4633    2.6090    4.5456 H         1 <0>         0.1505
     34 H7         -5.1765    3.0020    4.1444 H         1 <0>         0.2431
     35 H8         -3.1909    1.1502    3.1485 H         1 <0>         0.1578
     36 H9         -1.9376    0.8895    1.0464 H         1 <0>         0.1718
     37 H10        -0.1444    4.7153    1.6307 H         1 <0>         0.1708
     38 H11        -1.3995    4.9887    3.7300 H         1 <0>         0.1539
     39 H12        -1.8862    3.5955   -1.3015 H         1 <0>         0.4176
     40 H13        -0.6966    3.2107   -2.4238 H         1 <0>         0.4291
     41 N3         -3.5475    3.5569    6.8705 N.pl3     1 <0>        -0.4649
     42 H14        -3.4447    3.7320    7.8770 H         1 <0>         0.4865
@<TRIPOS>BOND
     1    1    2 1
     2    1   28 1
     3    1   29 1
     4    1   30 1
     5    2    3 1
     6    3    8 ar
     7    3    4 ar
     8    4    5 ar
     9    4   31 1
    10    5    6 ar
    11    5   32 1
    12    6    7 ar
    13    6   10 1
    14    7    8 ar
    15    7   33 1
    16    8    9 1
    17   10   13 1
    18   10   41 2
    19   11   12 2
    20   11   24 1
    21   11   41 1
    22   12   13 1
    23   12   34 1
    24   13   14 1
    25   14   19 ar
    26   14   15 ar
    27   15   16 ar
    28   15   35 1
    29   16   17 ar
    30   16   36 1
    31   17   18 ar
    32   17   20 1
    33   18   19 ar
    34   18   37 1
    35   19   38 1
    36   20   21 2
    37   20   22 2
    38   20   23 1
    39   23   39 1
    40   23   40 1
    41   24   25 1
    42   24   26 1
    43   24   27 1
    44   41   42 1
@<TRIPOS>MOLECULE
ZINC03814513
   49    51     0     0     0
SMALL
USER_CHARGES

@<TRIPOS>ATOM
      1 C1         -5.6532    2.9426    6.4847 C.3       1 <0>        -0.1370
      2 C2         -4.3642    3.7362    6.7070 C.3       1 <0>        -0.0663
      3 C3         -3.3106    2.8826    7.4483 C.3       1 <0>        -0.0796
      4 C4         -2.4848    2.2472    6.3537 C.2       1 <0>        -0.0584
      5 C5         -2.6764    2.8840    5.1908 C.2       1 <0>        -0.1089
      6 C6         -3.6495    4.0268    5.3662 C.3       1 <0>        -0.0734
      7 C7         -2.0242    2.5241    3.9191 C.ar      1 <0>         0.0311
      8 C8         -2.2973    1.2949    3.3132 C.ar      1 <0>        -0.1224
      9 C9         -1.6829    0.9648    2.1234 C.ar      1 <0>        -0.0208
     10 C10        -0.7978    1.8475    1.5296 C.ar      1 <0>        -0.6623
     11 C11        -0.5184    3.0643    2.1265 C.ar      1 <0>        -0.0212
     12 C12        -1.1293    3.4103    3.3136 C.ar      1 <0>        -0.1309
     13 S1         -0.0172    1.4168    0.0098 S.o2      1 <0>         2.4984
     14 O1          0.0021   -0.0041    0.0020 O.2       1 <0>        -0.9375
     15 O2          1.1953    2.1578    0.0022 O.2       1 <0>        -0.9375
     16 C13        -1.1345    2.0336   -1.2793 C.3       1 <0>        -0.6508
     17 C14        -1.5940    1.0885    6.5394 C.ar      1 <0>        -0.0818
     18 C15        -2.1254   -0.1546    6.8948 C.ar      1 <0>        -0.0636
     19 C16        -1.2887   -1.2366    7.0622 C.ar      1 <0>        -0.2072
     20 C17         0.0818   -1.0909    6.8893 C.ar      1 <0>         0.1327
     21 C18         0.6151    0.1437    6.5418 C.ar      1 <0>        -0.1492
     22 C19        -0.2141    1.2301    6.3665 C.ar      1 <0>        -0.0608
     23 O3          0.9032   -2.1594    7.0602 O.3       1 <0>        -0.3163
     24 C20         0.2890   -3.3994    7.4171 C.3       1 <0>         0.0263
     25 C21        -4.6475    5.0349    7.4648 C.3       1 <0>        -0.1391
     26 H1         -6.0773    2.6611    7.4486 H         1 <0>         0.0583
     27 H2         -6.3688    3.5573    5.9386 H         1 <0>         0.0580
     28 H3         -5.4320    2.0441    5.9087 H         1 <0>         0.0565
     29 H4         -3.7990    2.1150    8.0487 H         1 <0>         0.0762
     30 H5         -2.6842    3.5153    8.0770 H         1 <0>         0.0829
     31 H6         -3.1150    4.9755    5.4165 H         1 <0>         0.0810
     32 H7         -4.3703    4.0398    4.5486 H         1 <0>         0.0743
     33 H8         -2.9881    0.6052    3.7753 H         1 <0>         0.1303
     34 H9         -1.8933    0.0153    1.6537 H         1 <0>         0.1416
     35 H10         0.1766    3.7464    1.6594 H         1 <0>         0.1430
     36 H11        -0.9134    4.3621    3.7762 H         1 <0>         0.1331
     37 H12        -2.1080    1.5544   -1.1761 H         1 <0>         0.1312
     38 H13        -1.2479    3.1127   -1.1759 H         1 <0>         0.1314
     39 H14        -0.7188    1.8043   -2.2605 H         1 <0>         0.1330
     40 H15        -3.1904   -0.2679    7.0335 H         1 <0>         0.1254
     41 H16        -1.6988   -2.1986    7.3321 H         1 <0>         0.1301
     42 H17         1.6813    0.2521    6.4084 H         1 <0>         0.1326
     43 H18         0.2014    2.1895    6.0956 H         1 <0>         0.1272
     44 H19        -0.2411   -3.2833    8.3625 H         1 <0>         0.0562
     45 H20        -0.4156   -3.6931    6.6391 H         1 <0>         0.0566
     46 H21         1.0552   -4.1674    7.5221 H         1 <0>         0.1018
     47 H22        -3.7223    5.6006    7.5746 H         1 <0>         0.0579
     48 H23        -5.3729    5.6290    6.9090 H         1 <0>         0.0589
     49 H24        -5.0491    4.8001    8.4505 H         1 <0>         0.0591
@<TRIPOS>BOND
     1    1    2 1
     2    1   26 1
     3    1   27 1
     4    1   28 1
     5    2    6 1
     6    2    3 1
     7    2   25 1
     8    3    4 1
     9    3   29 1
    10    3   30 1
    11    4    5 2
    12    4   17 1
    13    5    6 1
    14    5    7 1
    15    6   31 1
    16    6   32 1
    17    7   12 ar
    18    7    8 ar
    19    8    9 ar
    20    8   33 1
    21    9   10 ar
    22    9   34 1
    23   10   11 ar
    24   10   13 1
    25   11   12 ar
    26   11   35 1
    27   12   36 1
    28   13   14 2
    29   13   15 2
    30   13   16 1
    31   16   37 1
    32   16   38 1
    33   16   39 1
    34   17   22 ar
    35   17   18 ar
    36   18   19 ar
    37   18   40 1
    38   19   20 ar
    39   19   41 1
    40   20   21 ar
    41   20   23 1
    42   21   22 ar
    43   21   42 1
    44   22   43 1
    45   23   24 1
    46   24   44 1
    47   24   45 1
    48   24   46 1
    49   25   47 1
    50   25   48 1
    51   25   49 1
@<TRIPOS>MOLECULE
ZINC03814514
   47    50     0     0     0
SMALL
USER_CHARGES

@<TRIPOS>ATOM
      1 C1          1.8848    1.9226    6.6068 C.3       1 <0>         0.0237
      2 O1          2.7515    1.2077    5.7237 O.3       1 <0>        -0.3034
      3 C2          2.2042    0.7293    4.5757 C.ar      1 <0>         0.1432
      4 C3          0.8588    0.9455    4.3076 C.ar      1 <0>        -0.1951
      5 C4          0.2990    0.4619    3.1450 C.ar      1 <0>        -0.0542
      6 C5          1.0874   -0.2471    2.2340 C.ar      1 <0>        -0.0688
      7 C6          2.4399   -0.4668    2.5096 C.ar      1 <0>        -0.0585
      8 C7          2.9925    0.0246    3.6737 C.ar      1 <0>        -0.0679
      9 Cl1         4.6733   -0.2429    4.0158 Cl        1 <0>        -0.0524
     10 C8          0.4930   -0.7664    0.9898 C.2       1 <0>        -0.0601
     11 C9          0.0021   -0.0041    0.0020 C.2       1 <0>        -0.0989
     12 C10        -0.5229   -0.8671   -1.1256 C.3       1 <0>        -0.0447
     13 C11        -0.6513   -2.2682   -0.5127 C.3       1 <0>        -0.1341
     14 C12         0.3490   -2.2348    0.6507 C.3       1 <0>        -0.0502
     15 C13        -0.8772   -3.5091   -1.3573 C.3       1 <0>        -0.1623
     16 C14        -1.9794   -2.9984   -0.4230 C.3       1 <0>        -0.1628
     17 C15        -0.0179    1.4696    0.0101 C.ar      1 <0>         0.0271
     18 C16        -1.2355    2.1552    0.0196 C.ar      1 <0>        -0.1290
     19 C17        -1.2463    3.5343    0.0335 C.ar      1 <0>        -0.0217
     20 C18        -0.0555    4.2390    0.0259 C.ar      1 <0>        -0.6612
     21 C19         1.1541    3.5669    0.0102 C.ar      1 <0>        -0.0205
     22 C20         1.1806    2.1880    0.0025 C.ar      1 <0>        -0.1221
     23 S1         -0.0793    6.0008    0.0368 S.o2      1 <0>         2.4976
     24 O2         -1.3130    6.3429    0.6536 O.2       1 <0>        -0.9377
     25 O3          1.1560    6.3765    0.6302 O.2       1 <0>        -0.9368
     26 C21        -0.1025    6.4776   -1.7133 C.3       1 <0>        -0.6504
     27 H1          1.0685    1.2718    6.9205 H         1 <0>         0.0586
     28 H2          2.4465    2.2485    7.4822 H         1 <0>         0.1056
     29 H3          1.4782    2.7927    6.0914 H         1 <0>         0.0595
     30 H4          0.2501    1.4933    5.0117 H         1 <0>         0.1398
     31 H5         -0.7473    0.6308    2.9377 H         1 <0>         0.1303
     32 H6          3.0519   -1.0179    1.8109 H         1 <0>         0.1409
     33 H7         -1.4964   -0.5070   -1.4583 H         1 <0>         0.0762
     34 H8          0.1823   -0.8770   -1.9567 H         1 <0>         0.0859
     35 H9         -0.0421   -2.7882    1.5044 H         1 <0>         0.0784
     36 H10         1.3087   -2.6470    0.3388 H         1 <0>         0.0869
     37 H11        -1.0205   -3.3699   -2.4289 H         1 <0>         0.0979
     38 H12        -0.3519   -4.4188   -1.0667 H         1 <0>         0.0983
     39 H13        -2.1787   -3.5723    0.4819 H         1 <0>         0.0970
     40 H14        -2.8476   -2.5229   -0.8793 H         1 <0>         0.0968
     41 H15        -2.1658    1.6065    0.0210 H         1 <0>         0.1339
     42 H16        -2.1866    4.0655    0.0461 H         1 <0>         0.1433
     43 H17         2.0796    4.1236    0.0044 H         1 <0>         0.1430
     44 H18         2.1254    1.6648   -0.0090 H         1 <0>         0.1322
     45 H19        -0.9915    6.0652   -2.1904 H         1 <0>         0.1316
     46 H20        -0.1180    7.5645   -1.7935 H         1 <0>         0.1334
     47 H21         0.7882    6.0895   -2.2073 H         1 <0>         0.1317
@<TRIPOS>BOND
     1    1    2 1
     2    1   27 1
     3    1   28 1
     4    1   29 1
     5    2    3 1
     6    3    8 ar
     7    3    4 ar
     8    4    5 ar
     9    4   30 1
    10    5    6 ar
    11    5   31 1
    12    6    7 ar
    13    6   10 1
    14    7    8 ar
    15    7   32 1
    16    8    9 1
    17   10   14 1
    18   10   11 2
    19   11   12 1
    20   11   17 1
    21   12   13 1
    22   12   33 1
    23   12   34 1
    24   13   16 1
    25   13   14 1
    26   13   15 1
    27   14   35 1
    28   14   36 1
    29   15   16 1
    30   15   37 1
    31   15   38 1
    32   16   39 1
    33   16   40 1
    34   17   22 ar
    35   17   18 ar
    36   18   19 ar
    37   18   41 1
    38   19   20 ar
    39   19   42 1
    40   20   21 ar
    41   20   23 1
    42   21   22 ar
    43   21   43 1
    44   22   44 1
    45   23   24 2
    46   23   25 2
    47   23   26 1
    48   26   45 1
    49   26   46 1
    50   26   47 1
@<TRIPOS>MOLECULE
ZINC03814515
   43    46     0     0     0
SMALL
USER_CHARGES

@<TRIPOS>ATOM
      1 C1          2.2749    3.3288    4.8540 C.3       1 <0>        -0.1177
      2 C2          1.1437    4.0239    5.5669 C.ar      1 <0>        -0.0578
      3 C3         -0.1500    3.5708    5.4096 C.ar      1 <0>        -0.0944
      4 C4         -1.1995    4.2158    6.0643 C.ar      1 <0>        -0.0377
      5 C5         -0.9358    5.3118    6.8873 C.ar      1 <0>        -0.0718
      6 C6          0.3629    5.7579    7.0462 C.ar      1 <0>         0.0424
      7 C7          1.4071    5.1126    6.3844 C.ar      1 <0>         0.0534
      8 O1          2.5775    5.7388    6.7036 O.3       1 <0>        -0.3007
      9 C8          2.2907    6.5124    7.8835 C.3       1 <0>         0.2122
     10 O2          0.8812    6.7869    7.7789 O.3       1 <0>        -0.3027
     11 C9         -2.5877    3.7355    5.8916 C.2       1 <0>         0.1496
     12 C10        -3.6126    3.8819    6.7838 C.2       1 <0>        -0.1983
     13 C11        -4.7465    3.2818    6.2352 C.2       1 <0>        -0.0035
     14 N1         -4.4354    2.7951    5.0601 N.2       1 <0>        -0.2129
     15 N2         -3.0841    3.0660    4.8097 N.pl3     1 <0>        -0.3156
     16 C12        -2.3691    2.7092    3.6592 C.ar      1 <0>         0.1973
     17 C13        -2.4971    1.4324    3.1285 C.ar      1 <0>        -0.1225
     18 C14        -1.7904    1.0835    1.9943 C.ar      1 <0>         0.0020
     19 C15        -0.9561    2.0041    1.3872 C.ar      1 <0>        -0.6726
     20 C16        -0.8222    3.2746    1.9165 C.ar      1 <0>        -0.0003
     21 C17        -1.5305    3.6314    3.0472 C.ar      1 <0>        -0.1326
     22 S1         -0.0563    1.5551   -0.0596 S.o2      1 <0>         2.7025
     23 O3          0.0689    0.1398   -0.0371 O.2       1 <0>        -0.9567
     24 O4          1.0705    2.4186   -0.1214 O.2       1 <0>        -0.9563
     25 N3         -1.0084    1.9254   -1.3629 N.pl3     1 <0>        -1.2487
     26 C18        -6.1034    3.2067    6.8865 C.3       1 <0>         0.5574
     27 F1         -6.9593    2.4349    6.0933 F         1 <0>        -0.1631
     28 F2         -5.9823    2.6189    8.1502 F         1 <0>        -0.1615
     29 F3         -6.6284    4.4965    7.0204 F         1 <0>        -0.1623
     30 H1          2.6657    2.5302    5.4845 H         1 <0>         0.0792
     31 H2          1.9096    2.9068    3.9177 H         1 <0>         0.0749
     32 H3          3.0677    4.0468    4.6440 H         1 <0>         0.0770
     33 H4         -0.3507    2.7197    4.7758 H         1 <0>         0.1398
     34 H5         -1.7454    5.8105    7.3995 H         1 <0>         0.1469
     35 H6          2.5023    5.9329    8.7821 H         1 <0>         0.0898
     36 H7          2.8627    7.4402    7.8815 H         1 <0>         0.1374
     37 H8         -3.5541    4.3712    7.7449 H         1 <0>         0.1743
     38 H9         -3.1483    0.7128    3.6024 H         1 <0>         0.1488
     39 H10        -1.8898    0.0907    1.5809 H         1 <0>         0.1582
     40 H11        -0.1662    3.9899    1.4428 H         1 <0>         0.1585
     41 H12        -1.4289    4.6253    3.4575 H         1 <0>         0.1464
     42 H13        -1.8858    2.3161   -1.2272 H         1 <0>         0.4179
     43 H14        -0.6887    1.7516   -2.2621 H         1 <0>         0.4236
@<TRIPOS>BOND
     1    1    2 1
     2    1   30 1
     3    1   31 1
     4    1   32 1
     5    2    7 ar
     6    2    3 ar
     7    3    4 ar
     8    3   33 1
     9    4    5 ar
    10    4   11 1
    11    5    6 ar
    12    5   34 1
    13    6   10 1
    14    6    7 ar
    15    7    8 1
    16    8    9 1
    17    9   10 1
    18    9   35 1
    19    9   36 1
    20   11   15 1
    21   11   12 2
    22   12   13 1
    23   12   37 1
    24   13   14 2
    25   13   26 1
    26   14   15 1
    27   15   16 1
    28   16   21 ar
    29   16   17 ar
    30   17   18 ar
    31   17   38 1
    32   18   19 ar
    33   18   39 1
    34   19   20 ar
    35   19   22 1
    36   20   21 ar
    37   20   40 1
    38   21   41 1
    39   22   23 2
    40   22   24 2
    41   22   25 1
    42   25   42 1
    43   25   43 1
    44   26   27 1
    45   26   28 1
    46   26   29 1
@<TRIPOS>MOLECULE
ZINC03814517
   37    39     0     0     0
SMALL
USER_CHARGES

@<TRIPOS>ATOM
      1 C1         -9.1432   -6.4407   -1.9907 C.3       1 <0>        -0.0917
      2 C2         -8.3654   -5.2999   -1.3869 C.2       1 <0>         0.0708
      3 C3         -7.2689   -4.7445   -1.9261 C.2       1 <0>        -0.2011
      4 C4         -6.8381   -3.6789   -1.0174 C.ar      1 <0>        -0.1026
      5 C5         -5.7856   -2.7637   -1.0281 C.ar      1 <0>        -0.0686
      6 C6         -5.6569   -1.8607    0.0178 C.ar      1 <0>        -0.0509
      7 C7         -6.5735   -1.8756    1.0745 C.ar      1 <0>        -0.0894
      8 C8         -7.6087   -2.7649    1.0864 C.ar      1 <0>        -0.1293
      9 C9         -7.7574   -3.6806    0.0483 C.ar      1 <0>         0.0895
     10 N1         -8.6721   -4.6775   -0.2076 N.pl3     1 <0>        -0.5954
     11 H1         -9.4223   -4.9052    0.3636 H         1 <0>         0.4108
     12 C10        -4.5417   -0.8818    0.0183 C.ar      1 <0>        -0.0653
     13 C11        -4.4090    0.0264    1.0667 C.ar      1 <0>        -0.1150
     14 C12        -3.3701    0.9350    1.0618 C.ar      1 <0>        -0.1251
     15 C13        -2.4615    0.9450    0.0189 C.ar      1 <0>        -0.0305
     16 C14        -2.5915    0.0491   -1.0270 C.ar      1 <0>        -0.0807
     17 C15        -3.6236   -0.8673   -1.0297 C.ar      1 <0>        -0.1127
     18 C16        -1.3295    1.9397    0.0189 C.3       1 <0>        -0.1077
     19 H2         -1.3915    2.5607    0.9126 H         1 <0>         0.0762
     20 C17        -1.4284    2.8250   -1.2251 C.3       1 <0>        -0.1187
     21 C18        -0.0143    1.2041    0.0087 C.2       1 <0>         0.4689
     22 O1          0.0021   -0.0041    0.0020 O.co2     1 <0>        -0.6291
     23 H3         -9.9206   -6.0449   -2.6441 H         1 <0>         0.0752
     24 H4         -8.4700   -7.0736   -2.5689 H         1 <0>         0.0839
     25 H5         -9.6015   -7.0289   -1.1956 H         1 <0>         0.0656
     26 H6         -6.7947   -5.0285   -2.8540 H         1 <0>         0.1448
     27 H7         -5.0769   -2.7580   -1.8431 H         1 <0>         0.1270
     28 H8         -6.4638   -1.1724    1.8869 H         1 <0>         0.1283
     29 H9         -8.3117   -2.7618    1.9063 H         1 <0>         0.1175
     30 H10        -5.1180    0.0197    1.8813 H         1 <0>         0.1166
     31 H11        -3.2665    1.6396    1.8737 H         1 <0>         0.1165
     32 H12        -1.8818    0.0640   -1.8409 H         1 <0>         0.1192
     33 H13        -3.7218   -1.5690   -1.8448 H         1 <0>         0.1176
     34 H14        -1.3664    2.2040   -2.1188 H         1 <0>         0.0482
     35 H15        -2.3797    3.3571   -1.2177 H         1 <0>         0.0427
     36 H16        -0.6096    3.5445   -1.2251 H         1 <0>         0.0635
     37 O2          1.1389    1.8910    0.0013 O.co2     1 <0>        -0.7688
@<TRIPOS>BOND
     1    1    2 1
     2    1   23 1
     3    1   24 1
     4    1   25 1
     5    2   10 1
     6    2    3 2
     7    3    4 1
     8    3   26 1
     9    4    9 ar
    10    4    5 ar
    11    5    6 ar
    12    5   27 1
    13    6    7 ar
    14    6   12 1
    15    7    8 ar
    16    7   28 1
    17    8    9 ar
    18    8   29 1
    19    9   10 1
    20   10   11 1
    21   12   17 ar
    22   12   13 ar
    23   13   14 ar
    24   13   30 1
    25   14   15 ar
    26   14   31 1
    27   15   16 ar
    28   15   18 1
    29   16   17 ar
    30   16   32 1
    31   17   33 1
    32   18   19 1
    33   18   20 1
    34   18   21 1
    35   20   34 1
    36   20   35 1
    37   20   36 1
    38   21   22 2
    39   21   37 1
@<TRIPOS>MOLECULE
ZINC03814518
   50    53     0     0     0
SMALL
USER_CHARGES

@<TRIPOS>ATOM
      1 C1         -1.1917   -3.5174   -0.0105 C.3       1 <0>        -0.1028
      2 C2         -0.4251   -2.2200   -0.0079 C.2       1 <0>         0.1184
      3 C3          0.9111   -2.1155   -0.0196 C.2       1 <0>        -0.1398
      4 C4          1.2335   -0.6844   -0.0124 C.ar      1 <0>        -0.0353
      5 C5          2.4278    0.0377   -0.0180 C.ar      1 <0>        -0.1097
      6 C6          2.3906    1.4188   -0.0075 C.ar      1 <0>         0.1120
      7 C7          1.1697    2.0871    0.0078 C.ar      1 <0>        -0.1755
      8 C8         -0.0148    1.3830    0.0138 C.ar      1 <0>        -0.0836
      9 C9          0.0028   -0.0062    0.0038 C.ar      1 <0>         0.0767
     10 N1         -0.9920   -0.9688    0.0062 N.am      1 <0>        -0.5048
     11 C10        -2.3159   -0.7166    0.0210 C.2       1 <0>         0.6025
     12 O1         -2.9060   -0.5062   -1.0203 O.2       1 <0>        -0.4280
     13 C11        -3.0493   -0.6961    1.3024 C.ar      1 <0>        -0.1655
     14 C12        -2.3586   -0.8381    2.5081 C.ar      1 <0>        -0.0420
     15 C13        -3.0484   -0.8123    3.7016 C.ar      1 <0>        -0.1207
     16 C14        -4.4250   -0.6575    3.7060 C.ar      1 <0>         0.0037
     17 C15        -5.1164   -0.5219    2.5133 C.ar      1 <0>        -0.1234
     18 C16        -4.4373   -0.5403    1.3135 C.ar      1 <0>        -0.0382
     19 Cl1        -5.2872   -0.6327    5.2125 Cl        1 <0>        -0.0526
     20 O2          3.5508    2.1277   -0.0124 O.3       1 <0>        -0.3166
     21 C17         3.4406    3.5524   -0.0009 C.3       1 <0>         0.0272
     22 C18         1.8975   -3.2547   -0.0373 C.3       1 <0>        -0.0626
     23 C19         2.2400   -3.6446    1.3776 C.2       1 <0>         0.5105
     24 O3          1.7329   -3.0553    2.3088 O.2       1 <0>        -0.5188
     25 N2          3.1097   -4.6480    1.6083 N.am      1 <0>        -0.6460
     26 C20         3.4295   -5.0121    2.9295 C.2       1 <0>         0.0535
     27 C21         4.3182   -6.0369    3.3235 C.2       1 <0>        -0.2195
     28 C22         4.3407   -6.0568    4.6715 C.2       1 <0>         0.0015
     29 N3          3.5014   -5.0853    5.1295 N.pl3     1 <0>        -0.5603
     30 H1          3.3287   -4.8815    6.0620 H         1 <0>         0.4183
     31 C23         2.9472   -4.4416    4.0575 C.2       1 <0>        -0.0249
     32 H2         -1.3670   -3.8379    1.0165 H         1 <0>         0.0863
     33 H3         -2.1475   -3.3737   -0.5144 H         1 <0>         0.0687
     34 H4         -0.6151   -4.2791   -0.5354 H         1 <0>         0.0921
     35 H5          3.3755   -0.4800   -0.0309 H         1 <0>         0.1327
     36 H6          1.1506    3.1669    0.0156 H         1 <0>         0.1351
     37 H7         -0.9568    1.9111    0.0218 H         1 <0>         0.1221
     38 H8         -1.2859   -0.9634    2.5056 H         1 <0>         0.1448
     39 H9         -2.5150   -0.9175    4.6347 H         1 <0>         0.1446
     40 H10        -6.1896   -0.4012    2.5233 H         1 <0>         0.1463
     41 H11        -4.9774   -0.4342    0.3843 H         1 <0>         0.1476
     42 H12         2.8926    3.8816   -0.8837 H         1 <0>         0.0552
     43 H13         2.9081    3.8684    0.8961 H         1 <0>         0.0550
     44 H14         4.4372    3.9939   -0.0064 H         1 <0>         0.1004
     45 H15         1.4576   -4.1082   -0.5530 H         1 <0>         0.1051
     46 H16         2.8032   -2.9431   -0.5576 H         1 <0>         0.1075
     47 H17         3.5151   -5.1192    0.8637 H         1 <0>         0.4101
     48 H18         4.8775   -6.6854    2.6656 H         1 <0>         0.1385
     49 H19         4.9243   -6.7282    5.2840 H         1 <0>         0.1665
     50 H20         2.2449   -3.6223    4.1035 H         1 <0>         0.1877
@<TRIPOS>BOND
     1    1    2 1
     2    1   32 1
     3    1   33 1
     4    1   34 1
     5    2   10 1
     6    2    3 2
     7    3    4 1
     8    3   22 1
     9    4    9 ar
    10    4    5 ar
    11    5    6 ar
    12    5   35 1
    13    6    7 ar
    14    6   20 1
    15    7    8 ar
    16    7   36 1
    17    8    9 ar
    18    8   37 1
    19    9   10 1
    20   10   11 am
    21   11   12 2
    22   11   13 1
    23   13   18 ar
    24   13   14 ar
    25   14   15 ar
    26   14   38 1
    27   15   16 ar
    28   15   39 1
    29   16   17 ar
    30   16   19 1
    31   17   18 ar
    32   17   40 1
    33   18   41 1
    34   20   21 1
    35   21   42 1
    36   21   43 1
    37   21   44 1
    38   22   23 1
    39   22   45 1
    40   22   46 1
    41   23   24 2
    42   23   25 am
    43   25   26 1
    44   25   47 1
    45   26   31 2
    46   26   27 1
    47   27   28 2
    48   27   48 1
    49   28   29 1
    50   28   49 1
    51   29   30 1
    52   29   31 1
    53   31   50 1
@<TRIPOS>MOLECULE
ZINC03814521
   39    41     0     0     0
SMALL
USER_CHARGES

@<TRIPOS>ATOM
      1 C1          5.3797    4.2653   -1.6704 C.3       1 <0>        -0.1453
      2 C2          5.6072    2.9033   -2.3293 C.3       1 <0>        -0.0517
      3 C3          4.4744    1.9763   -1.9709 C.2       1 <0>         0.0700
      4 C4          3.7543    1.3566   -2.9366 C.2       1 <0>        -0.2099
      5 S1          2.6009    0.4210   -1.9431 S.3       1 <0>         0.0675
      6 C5          3.1700    0.9400   -0.3867 C.2       1 <0>         0.0173
      7 N1          4.1611    1.7502   -0.7095 N.2       1 <0>        -0.4750
      8 S2          2.5809    0.4938    1.2128 S.3       1 <0>         0.1711
      9 C6          1.1761   -0.4702    0.7635 C.ar      1 <0>        -0.2216
     10 C7          1.2320   -1.8467    0.8348 C.ar      1 <0>         0.0455
     11 C8          0.1134   -2.6178    0.4717 C.ar      1 <0>        -0.2186
     12 C9         -1.0530   -1.9786    0.0432 C.ar      1 <0>         0.0261
     13 C10        -1.1037   -0.6015   -0.0213 C.ar      1 <0>        -0.1880
     14 C11         0.0016    0.1599    0.3387 C.ar      1 <0>         0.2520
     15 N2         -0.0579    1.5481    0.2712 N.pl3     1 <0>        -1.0514
     16 S3         -1.4689    2.3350    0.6351 S.o2      1 <0>         2.5995
     17 O1         -1.1434    3.7162    0.5602 O.2       1 <0>        -0.9365
     18 O2         -2.4353    1.7700   -0.2401 O.2       1 <0>        -0.9400
     19 C12        -1.8324    1.8709    2.3506 C.3       1 <0>        -0.6654
     20 C13        -2.1030   -3.0126   -0.2877 C.3       1 <0>        -0.0932
     21 C14        -1.4599   -4.3797   -0.0170 C.3       1 <0>        -0.1630
     22 C15        -0.0608   -4.0759    0.4606 C.2       1 <0>         0.4108
     23 O3          0.7754   -4.8947    0.7797 O.2       1 <0>        -0.4355
     24 H1          6.1990    4.9357   -1.9297 H         1 <0>         0.0602
     25 H2          4.4390    4.6874   -2.0241 H         1 <0>         0.0524
     26 H3          5.3389    4.1430   -0.5881 H         1 <0>         0.0643
     27 H4          6.5479    2.4812   -1.9757 H         1 <0>         0.0809
     28 H5          5.6480    3.0256   -3.4117 H         1 <0>         0.0806
     29 H6          3.8532    1.4097   -4.0108 H         1 <0>         0.2001
     30 H7          2.1372   -2.3331    1.1673 H         1 <0>         0.1500
     31 H8         -2.0076   -0.1123   -0.3532 H         1 <0>         0.1785
     32 H9          0.7259    2.0549    0.0072 H         1 <0>         0.4314
     33 H10        -1.0140    2.1918    2.9951 H         1 <0>         0.1378
     34 H11        -2.7565    2.3531    2.6694 H         1 <0>         0.1405
     35 H12        -1.9452    0.7889    2.4182 H         1 <0>         0.1330
     36 H13        -2.9766   -2.8768    0.3499 H         1 <0>         0.1051
     37 H14        -2.3884   -2.9342   -1.3367 H         1 <0>         0.1049
     38 H15        -1.4578   -4.9196   -0.8587 H         1 <0>         0.1023
     39 H16        -2.0148   -4.9133    0.7548 H         1 <0>         0.1134
@<TRIPOS>BOND
     1    1    2 1
     2    1   24 1
     3    1   25 1
     4    1   26 1
     5    2    3 1
     6    2   27 1
     7    2   28 1
     8    3    7 1
     9    3    4 2
    10    4    5 1
    11    4   29 1
    12    5    6 1
    13    6    7 2
    14    6    8 1
    15    8    9 1
    16    9   14 ar
    17    9   10 ar
    18   10   11 ar
    19   10   30 1
    20   11   22 1
    21   11   12 ar
    22   12   13 ar
    23   12   20 1
    24   13   14 ar
    25   13   31 1
    26   14   15 1
    27   15   16 1
    28   15   32 1
    29   16   17 2
    30   16   18 2
    31   16   19 1
    32   19   33 1
    33   19   34 1
    34   19   35 1
    35   20   21 1
    36   20   36 1
    37   20   37 1
    38   21   22 1
    39   21   38 1
    40   21   39 1
    41   22   23 2
@<TRIPOS>MOLECULE
ZINC03814523
   42    43     0     0     0
SMALL
USER_CHARGES

@<TRIPOS>ATOM
      1 C1          0.5324    3.4866    1.2023 C.3       1 <0>        -0.1521
      2 C2          0.1828    2.0821    1.6984 C.3       1 <0>         0.0814
      3 C3          1.4119    1.1787    1.5798 C.3       1 <0>        -0.1781
      4 O1         -0.8795    1.5476    0.9060 O.3       1 <0>        -0.2864
      5 C4         -1.7667    0.7307    1.5333 C.2       1 <0>         0.0145
      6 C5         -1.9604   -0.5779    1.2534 C.2       1 <0>        -0.0920
      7 C6         -3.0331   -1.0684    2.1980 C.3       1 <0>         0.1371
      8 O2         -3.4129    0.0787    3.0079 O.3       1 <0>        -0.3030
      9 C7         -2.6688    1.1295    2.6150 C.2       1 <0>         0.4846
     10 O3         -2.7364    2.2471    3.0893 O.2       1 <0>        -0.4359
     11 C8         -2.4850   -2.1842    3.0899 C.3       1 <0>        -0.1482
     12 C9         -4.2388   -1.5744    1.4037 C.3       1 <0>        -0.1557
     13 C10        -1.2614   -1.3705    0.2294 C.ar      1 <0>         0.0261
     14 C11        -1.9554   -1.8419   -0.8896 C.ar      1 <0>        -0.1190
     15 C12        -1.2922   -2.5803   -1.8468 C.ar      1 <0>        -0.0192
     16 C13         0.0542   -2.8638   -1.6974 C.ar      1 <0>        -0.6528
     17 C14         0.7468   -2.4050   -0.5905 C.ar      1 <0>        -0.0196
     18 C15         0.0990   -1.6613    0.3731 C.ar      1 <0>        -0.1162
     19 S1          0.8908   -3.8144   -2.9226 S.o2      1 <0>         2.4979
     20 O4          0.1543   -3.5942   -4.1178 O.2       1 <0>        -0.9341
     21 O5          2.2509   -3.4144   -2.8257 O.2       1 <0>        -0.9344
     22 C16         0.7060   -5.5364   -2.3831 C.3       1 <0>        -0.6497
     23 H1          0.8468    3.4358    0.1598 H         1 <0>         0.0685
     24 H2         -0.3432    4.1302    1.2867 H         1 <0>         0.0680
     25 H3          1.3427    3.8942    1.8067 H         1 <0>         0.0790
     26 H4         -0.1316    2.1328    2.7409 H         1 <0>         0.0708
     27 H5          1.1949    0.2092    2.0284 H         1 <0>         0.0571
     28 H6          1.6638    1.0441    0.5279 H         1 <0>         0.0724
     29 H7          2.2526    1.6390    2.0987 H         1 <0>         0.0784
     30 H8         -3.2592   -2.5061    3.7863 H         1 <0>         0.0854
     31 H9         -2.1799   -3.0277    2.4705 H         1 <0>         0.0870
     32 H10        -1.6253   -1.8138    3.6482 H         1 <0>         0.0701
     33 H11        -4.6189   -0.7730    0.7701 H         1 <0>         0.0721
     34 H12        -3.9365   -2.4170    0.7817 H         1 <0>         0.0885
     35 H13        -5.0201   -1.8939    2.0933 H         1 <0>         0.0847
     36 H14        -3.0070   -1.6249   -1.0055 H         1 <0>         0.1394
     37 H15        -1.8259   -2.9418   -2.7134 H         1 <0>         0.1492
     38 H16         1.7973   -2.6304   -0.4810 H         1 <0>         0.1483
     39 H17         0.6407   -1.3045    1.2367 H         1 <0>         0.1368
     40 H18        -0.3530   -5.7890   -2.3304 H         1 <0>         0.1324
     41 H19         1.2017   -6.1956   -3.0958 H         1 <0>         0.1348
     42 H20         1.1583   -5.6594   -1.3990 H         1 <0>         0.1322
@<TRIPOS>BOND
     1    1    2 1
     2    1   23 1
     3    1   24 1
     4    1   25 1
     5    2    3 1
     6    2    4 1
     7    2   26 1
     8    3   27 1
     9    3   28 1
    10    3   29 1
    11    4    5 1
    12    5    9 1
    13    5    6 2
    14    6    7 1
    15    6   13 1
    16    7    8 1
    17    7   11 1
    18    7   12 1
    19    8    9 1
    20    9   10 2
    21   11   30 1
    22   11   31 1
    23   11   32 1
    24   12   33 1
    25   12   34 1
    26   12   35 1
    27   13   18 ar
    28   13   14 ar
    29   14   15 ar
    30   14   36 1
    31   15   16 ar
    32   15   37 1
    33   16   17 ar
    34   16   19 1
    35   17   18 ar
    36   17   38 1
    37   18   39 1
    38   19   20 2
    39   19   21 2
    40   19   22 1
    41   22   40 1
    42   22   41 1
    43   22   42 1
@<TRIPOS>MOLECULE
ZINC03814524
   46    49     0     0     0
SMALL
USER_CHARGES

@<TRIPOS>ATOM
      1 C1         -3.3269    5.4107    5.9377 C.3       1 <0>        -0.1549
      2 C2         -3.9085    3.9973    5.8669 C.3       1 <0>         0.1343
      3 C3         -2.8296    3.0095    5.4881 C.2       1 <0>        -0.0582
      4 C4         -2.7349    2.1286    6.5104 C.2       1 <0>        -0.0072
      5 C5         -3.6970    2.4951    7.5511 C.2       1 <0>         0.4867
      6 O1         -3.8517    1.8972    8.5985 O.2       1 <0>        -0.4236
      7 O2         -4.3890    3.5876    7.1774 O.3       1 <0>        -0.2986
      8 O3         -1.8809    1.0727    6.5638 O.3       1 <0>        -0.2161
      9 C6         -0.8947    1.0961    7.4992 C.ar      1 <0>         0.1146
     10 C7         -0.7196    2.2371    8.2794 C.ar      1 <0>        -0.1598
     11 C8          0.2807    2.2630    9.2293 C.ar      1 <0>        -0.0337
     12 C9          1.0942    1.1626    9.3960 C.ar      1 <0>        -0.1391
     13 C10         0.9451   -0.0089    8.6235 C.ar      1 <0>        -0.0506
     14 C11        -0.0928   -0.0079    7.6612 C.ar      1 <0>        -0.0981
     15 C12         1.8928   -1.0683    8.9378 C.2       1 <0>        -0.1457
     16 C13         2.8055   -0.8687    9.8996 C.2       1 <0>        -0.1386
     17 S1          2.4575    0.7848   10.4673 S.3       1 <0>         0.0352
     18 C14        -2.0402    3.0032    4.2465 C.ar      1 <0>         0.0109
     19 C15        -2.1910    1.9637    3.3229 C.ar      1 <0>        -0.1071
     20 C16        -1.4480    1.9653    2.1614 C.ar      1 <0>        -0.0185
     21 C17        -0.5551    2.9920    1.9082 C.ar      1 <0>        -0.6504
     22 C18        -0.3963    4.0215    2.8196 C.ar      1 <0>        -0.0196
     23 C19        -1.1355    4.0368    3.9834 C.ar      1 <0>        -0.1180
     24 S2          0.3898    2.9848    0.4209 S.o2      1 <0>         2.4973
     25 O4          0.4813    1.6145    0.0562 O.2       1 <0>        -0.9332
     26 O5          1.5584    3.7317    0.7302 O.2       1 <0>        -0.9335
     27 C20        -0.6270    3.8849   -0.7818 C.3       1 <0>        -0.6493
     28 C21        -5.0486    3.9483    4.8477 C.3       1 <0>        -0.1516
     29 H1         -2.9173    5.6842    4.9653 H         1 <0>         0.0908
     30 H2         -4.1134    6.1140    6.2114 H         1 <0>         0.0897
     31 H3         -2.5356    5.4409    6.6868 H         1 <0>         0.0728
     32 H4         -1.3616    3.0946    8.1415 H         1 <0>         0.1283
     33 H5          0.4256    3.1418    9.8401 H         1 <0>         0.1395
     34 H6         -0.2532   -0.8809    7.0459 H         1 <0>         0.1399
     35 H7          1.8610   -2.0053    8.4019 H         1 <0>         0.1427
     36 H8          3.5698   -1.5479   10.2473 H         1 <0>         0.1938
     37 H9         -2.8874    1.1618    3.5191 H         1 <0>         0.1396
     38 H10        -1.5633    1.1634    1.4472 H         1 <0>         0.1504
     39 H11         0.3054    4.8169    2.6167 H         1 <0>         0.1505
     40 H12        -1.0133    4.8428    4.6919 H         1 <0>         0.1402
     41 H13        -1.5806    3.3720   -0.9074 H         1 <0>         0.1326
     42 H14        -0.8042    4.8983   -0.4216 H         1 <0>         0.1325
     43 H15        -0.1073    3.9252   -1.7390 H         1 <0>         0.1352
     44 H16        -5.4740    2.9449    4.8265 H         1 <0>         0.0729
     45 H17        -5.8202    4.6642    5.1309 H         1 <0>         0.0867
     46 H18        -4.6637    4.2007    3.8597 H         1 <0>         0.0883
@<TRIPOS>BOND
     1    1    2 1
     2    1   29 1
     3    1   30 1
     4    1   31 1
     5    2    7 1
     6    2    3 1
     7    2   28 1
     8    3    4 2
     9    3   18 1
    10    4    5 1
    11    4    8 1
    12    5    6 2
    13    5    7 1
    14    8    9 1
    15    9   14 ar
    16    9   10 ar
    17   10   11 ar
    18   10   32 1
    19   11   12 ar
    20   11   33 1
    21   12   17 1
    22   12   13 ar
    23   13   14 ar
    24   13   15 1
    25   14   34 1
    26   15   16 2
    27   15   35 1
    28   16   17 1
    29   16   36 1
    30   18   23 ar
    31   18   19 ar
    32   19   20 ar
    33   19   37 1
    34   20   21 ar
    35   20   38 1
    36   21   22 ar
    37   21   24 1
    38   22   23 ar
    39   22   39 1
    40   23   40 1
    41   24   25 2
    42   24   26 2
    43   24   27 1
    44   27   41 1
    45   27   42 1
    46   27   43 1
    47   28   44 1
    48   28   45 1
    49   28   46 1
@<TRIPOS>MOLECULE
ZINC03814526
   44    46     0     0     0
SMALL
USER_CHARGES

@<TRIPOS>ATOM
      1 C1         -4.3710    2.7843   11.6251 C.3       1 <0>        -0.1431
      2 C2         -3.8957    2.6119   10.1811 C.3       1 <0>        -0.1278
      3 S1         -4.4826    4.0027    9.1825 S.3       1 <0>         0.0053
      4 C3         -3.8110    3.5589    7.6151 C.2       1 <0>         0.1273
      5 C4         -4.0279    4.3765    6.5313 C.2       1 <0>        -0.2200
      6 C5         -3.4901    4.0303    5.2816 C.2       1 <0>         0.1122
      7 C6         -2.7490    2.8419    5.1743 C.2       1 <0>        -0.2223
      8 C7         -2.5643    2.0494    6.3239 C.2       1 <0>         0.5103
      9 O1         -1.9199    1.0166    6.2527 O.2       1 <0>        -0.4569
     10 O2         -3.0957    2.4278    7.4998 O.3       1 <0>        -0.2579
     11 C8         -2.1673    2.4326    3.8770 C.ar      1 <0>         0.0441
     12 C9         -2.6406    1.2931    3.2250 C.ar      1 <0>        -0.1176
     13 C10        -2.0942    0.9171    2.0153 C.ar      1 <0>        -0.0203
     14 C11        -1.0793    1.6673    1.4482 C.ar      1 <0>        -0.6577
     15 C12        -0.6019    2.7952    2.0920 C.ar      1 <0>        -0.0201
     16 C13        -1.1431    3.1847    3.2998 C.ar      1 <0>        -0.1175
     17 S2         -0.3869    1.1802   -0.0971 S.o2      1 <0>         2.4984
     18 O3         -0.6007   -0.2230   -0.1640 O.2       1 <0>        -0.9363
     19 O4          0.9306    1.7126   -0.0879 O.2       1 <0>        -0.9368
     20 C14        -1.3939    2.0261   -1.3465 C.3       1 <0>        -0.6502
     21 C15        -3.7037    4.8972    4.1005 C.ar      1 <0>        -0.0730
     22 C16        -3.3331    6.2415    4.1421 C.ar      1 <0>        -0.0915
     23 C17        -3.5295    7.0428    3.0362 C.ar      1 <0>        -0.1182
     24 C18        -4.1030    6.5184    1.8915 C.ar      1 <0>        -0.1025
     25 C19        -4.4778    5.1874    1.8459 C.ar      1 <0>        -0.1189
     26 C20        -4.2815    4.3745    2.9433 C.ar      1 <0>        -0.0853
     27 H1         -4.0176    1.9467   12.2264 H         1 <0>         0.0838
     28 H2         -3.9737    3.7153   12.0296 H         1 <0>         0.0692
     29 H3         -5.4604    2.8139   11.6479 H         1 <0>         0.0692
     30 H4         -4.2930    1.6810    9.7765 H         1 <0>         0.1019
     31 H5         -2.8063    2.5823   10.1582 H         1 <0>         0.1019
     32 H6         -4.6048    5.2827    6.6418 H         1 <0>         0.1649
     33 H7         -3.4328    0.7067    3.6666 H         1 <0>         0.1315
     34 H8         -2.4596    0.0355    1.5097 H         1 <0>         0.1449
     35 H9          0.1933    3.3742    1.6461 H         1 <0>         0.1441
     36 H10        -0.7721    4.0673    3.7995 H         1 <0>         0.1307
     37 H11        -2.4323    1.7086   -1.2520 H         1 <0>         0.1315
     38 H12        -1.3285    3.1038   -1.1971 H         1 <0>         0.1315
     39 H13        -1.0260    1.7741   -2.3411 H         1 <0>         0.1332
     40 H14        -2.8898    6.6532    5.0368 H         1 <0>         0.1283
     41 H15        -3.2393    8.0827    3.0657 H         1 <0>         0.1294
     42 H16        -4.2584    7.1507    1.0298 H         1 <0>         0.1269
     43 H17        -4.9254    4.7840    0.9496 H         1 <0>         0.1280
     44 H18        -4.5742    3.3356    2.9064 H         1 <0>         0.1252
@<TRIPOS>BOND
     1    1    2 1
     2    1   27 1
     3    1   28 1
     4    1   29 1
     5    2    3 1
     6    2   30 1
     7    2   31 1
     8    3    4 1
     9    4   10 1
    10    4    5 2
    11    5    6 1
    12    5   32 1
    13    6    7 2
    14    6   21 1
    15    7    8 1
    16    7   11 1
    17    8    9 2
    18    8   10 1
    19   11   16 ar
    20   11   12 ar
    21   12   13 ar
    22   12   33 1
    23   13   14 ar
    24   13   34 1
    25   14   15 ar
    26   14   17 1
    27   15   16 ar
    28   15   35 1
    29   16   36 1
    30   17   18 2
    31   17   19 2
    32   17   20 1
    33   20   37 1
    34   20   38 1
    35   20   39 1
    36   21   26 ar
    37   21   22 ar
    38   22   23 ar
    39   22   40 1
    40   23   24 ar
    41   23   41 1
    42   24   25 ar
    43   24   42 1
    44   25   26 ar
    45   25   43 1
    46   26   44 1
@<TRIPOS>MOLECULE
ZINC03814529
   43    46     0     0     0
SMALL
USER_CHARGES

@<TRIPOS>ATOM
      1 C1         -1.1573    8.7742    5.6091 C.3       1 <0>        -0.1176
      2 C2         -0.8514    7.3120    5.4108 C.ar      1 <0>        -0.0818
      3 C3          0.3599    6.9283    4.8623 C.ar      1 <0>        -0.0953
      4 C4          0.6496    5.5881    4.6775 C.ar      1 <0>        -0.1119
      5 C5         -0.2669    4.6241    5.0434 C.ar      1 <0>        -0.0853
      6 C6         -1.4935    5.0042    5.5926 C.ar      1 <0>        -0.0610
      7 C7         -1.7790    6.3594    5.7767 C.ar      1 <0>        -0.0802
      8 C8         -2.4811    3.9787    5.9823 C.2       1 <0>         0.1572
      9 C9         -2.8924    3.0469    5.0763 C.2       1 <0>        -0.1188
     10 S1         -4.0538    2.0928    6.0411 S.3       1 <0>         0.2327
     11 C10        -3.8970    2.9937    7.5643 C.2       1 <0>         0.2238
     12 N1         -2.9902    3.9612    7.2630 N.pl3     1 <0>        -0.3275
     13 N2         -2.8551    4.6981    8.4690 N.2       1 <0>        -0.2269
     14 C11        -3.6429    4.1542    9.3570 C.2       1 <0>         0.1724
     15 N3         -4.2752    3.1195    8.8072 N.2       1 <0>        -0.4516
     16 C12        -3.8100    4.6235   10.7793 C.3       1 <0>         0.5812
     17 F1         -4.4505    3.6290   11.5263 F         1 <0>        -0.1449
     18 F2         -2.5531    4.8869   11.3342 F         1 <0>        -0.1529
     19 F3         -4.5817    5.7903   10.7977 F         1 <0>        -0.1542
     20 C13        -2.4886    2.8754    3.6659 C.ar      1 <0>         0.0465
     21 C14        -2.1336    1.6129    3.1866 C.ar      1 <0>        -0.1144
     22 C15        -1.7580    1.4598    1.8682 C.ar      1 <0>        -0.0181
     23 C16        -1.7325    2.5537    1.0212 C.ar      1 <0>        -0.6471
     24 C17        -2.0780    3.8085    1.4909 C.ar      1 <0>        -0.0176
     25 C18        -2.4607    3.9750    2.8057 C.ar      1 <0>        -0.1004
     26 S2         -1.2509    2.3491   -0.6613 S.o2      1 <0>         2.4973
     27 O1         -0.4102    1.2034   -0.6610 O.2       1 <0>        -0.9329
     28 O2         -0.7451    3.6187   -1.0506 O.2       1 <0>        -0.9328
     29 C19        -2.7929    1.9923   -1.5475 C.3       1 <0>        -0.6496
     30 H1         -0.8181    9.0857    6.5970 H         1 <0>         0.0749
     31 H2         -0.6430    9.3596    4.8470 H         1 <0>         0.0718
     32 H3         -2.2323    8.9350    5.5267 H         1 <0>         0.0678
     33 H4          1.0827    7.6786    4.5776 H         1 <0>         0.1303
     34 H5          1.5970    5.2957    4.2493 H         1 <0>         0.1330
     35 H6         -0.0379    3.5782    4.9021 H         1 <0>         0.1264
     36 H7         -2.7238    6.6602    6.2049 H         1 <0>         0.1220
     37 H8         -2.1527    0.7583    3.8467 H         1 <0>         0.1420
     38 H9         -1.4835    0.4838    1.4960 H         1 <0>         0.1523
     39 H10        -2.0520    4.6588    0.8255 H         1 <0>         0.1511
     40 H11        -2.7338    4.9543    3.1701 H         1 <0>         0.1385
     41 H12        -3.2425    1.0852   -1.1437 H         1 <0>         0.1330
     42 H13        -3.4839    2.8262   -1.4245 H         1 <0>         0.1328
     43 H14        -2.5788    1.8511   -2.6069 H         1 <0>         0.1354
@<TRIPOS>BOND
     1    1    2 1
     2    1   30 1
     3    1   31 1
     4    1   32 1
     5    2    7 ar
     6    2    3 ar
     7    3    4 ar
     8    3   33 1
     9    4    5 ar
    10    4   34 1
    11    5    6 ar
    12    5   35 1
    13    6    7 ar
    14    6    8 1
    15    7   36 1
    16    8   12 1
    17    8    9 2
    18    9   10 1
    19    9   20 1
    20   10   11 1
    21   11   15 2
    22   11   12 1
    23   12   13 1
    24   13   14 2
    25   14   15 1
    26   14   16 1
    27   16   17 1
    28   16   18 1
    29   16   19 1
    30   20   25 ar
    31   20   21 ar
    32   21   22 ar
    33   21   37 1
    34   22   23 ar
    35   22   38 1
    36   23   24 ar
    37   23   26 1
    38   24   25 ar
    39   24   39 1
    40   25   40 1
    41   26   27 2
    42   26   28 2
    43   26   29 1
    44   29   41 1
    45   29   42 1
    46   29   43 1
@<TRIPOS>MOLECULE
ZINC03814531
   40    41     0     0     0
SMALL
USER_CHARGES

@<TRIPOS>ATOM
      1 C1         -4.7407    5.9897    0.8100 C.3       1 <0>        -0.1211
      2 C2         -4.1952    4.6829    1.3255 C.ar      1 <0>        -0.0329
      3 C3         -4.3117    4.3670    2.6669 C.ar      1 <0>        -0.1491
      4 C4         -3.8132    3.1690    3.1444 C.ar      1 <0>        -0.0650
      5 C5         -3.1958    2.2824    2.2819 C.ar      1 <0>        -0.1047
      6 C6         -3.0722    2.5987    0.9345 C.ar      1 <0>         0.2577
      7 C7         -3.5797    3.8015    0.4572 C.ar      1 <0>        -0.0711
      8 Cl1        -3.4340    4.1991   -1.2264 Cl        1 <0>        -0.0545
      9 N1         -2.4435    1.7067    0.0599 N.pl3     1 <0>        -0.6835
     10 C8         -2.3492    0.3606    0.3898 C.ar      1 <0>         0.2245
     11 C9         -1.1214   -0.1888    0.7390 C.ar      1 <0>        -0.1290
     12 C10        -1.0315   -1.5245    1.0718 C.ar      1 <0>        -0.0837
     13 C11        -2.1589   -2.3307    1.0499 C.ar      1 <0>        -0.1309
     14 C12        -3.3837   -1.8056    0.7009 C.ar      1 <0>        -0.0766
     15 C13        -3.4927   -0.4533    0.3667 C.ar      1 <0>        -0.1487
     16 C14        -4.8005    0.1154   -0.0073 C.2       1 <0>         0.5562
     17 O1         -4.8742    1.2638   -0.4002 O.2       1 <0>        -0.5107
     18 N2         -5.9143   -0.6377    0.0862 N.am      1 <0>        -0.7298
     19 C15        -7.2139   -0.0727   -0.2854 C.3       1 <0>         0.1242
     20 C16        -8.3041   -1.1278   -0.0879 C.3       1 <0>        -0.1437
     21 C17        -9.6613   -0.5377   -0.4760 C.3       1 <0>        -0.0307
     22 Cl2       -10.9460   -1.7812   -0.2433 Cl        1 <0>        -0.1788
     23 Cl3        -2.5692    0.7791    2.8828 Cl        1 <0>        -0.0531
     24 H1         -3.9672    6.7554    0.8704 H         1 <0>         0.0785
     25 H2         -5.0525    5.8693   -0.2275 H         1 <0>         0.0751
     26 H3         -5.5969    6.2897    1.4142 H         1 <0>         0.0733
     27 H4         -4.7930    5.0579    3.3432 H         1 <0>         0.1366
     28 H5         -3.9060    2.9257    4.1925 H         1 <0>         0.1359
     29 H6         -2.0732    2.0279   -0.7772 H         1 <0>         0.4153
     30 H7         -0.2374    0.4316    0.7538 H         1 <0>         0.1326
     31 H8         -0.0759   -1.9458    1.3468 H         1 <0>         0.1304
     32 H9         -2.0766   -3.3763    1.3076 H         1 <0>         0.1298
     33 H10        -4.2586   -2.4386    0.6852 H         1 <0>         0.1258
     34 H11        -5.8555   -1.5538    0.3997 H         1 <0>         0.3990
     35 H12        -7.4272    0.7921    0.3429 H         1 <0>         0.0712
     36 H13        -7.1908    0.2347   -1.3309 H         1 <0>         0.0715
     37 H14        -8.0908   -1.9926   -0.7162 H         1 <0>         0.0827
     38 H15        -8.3271   -1.4352    0.9576 H         1 <0>         0.0829
     39 H16        -9.8746    0.3271    0.1522 H         1 <0>         0.0972
     40 H17        -9.6382   -0.2304   -1.5216 H         1 <0>         0.0971
@<TRIPOS>BOND
     1    1    2 1
     2    1   24 1
     3    1   25 1
     4    1   26 1
     5    2    7 ar
     6    2    3 ar
     7    3    4 ar
     8    3   27 1
     9    4    5 ar
    10    4   28 1
    11    5    6 ar
    12    5   23 1
    13    6    7 ar
    14    6    9 1
    15    7    8 1
    16    9   10 1
    17    9   29 1
    18   10   15 ar
    19   10   11 ar
    20   11   12 ar
    21   11   30 1
    22   12   13 ar
    23   12   31 1
    24   13   14 ar
    25   13   32 1
    26   14   15 ar
    27   14   33 1
    28   15   16 1
    29   16   17 2
    30   16   18 am
    31   18   19 1
    32   18   34 1
    33   19   20 1
    34   19   35 1
    35   19   36 1
    36   20   21 1
    37   20   37 1
    38   20   38 1
    39   21   22 1
    40   21   39 1
    41   21   40 1
@<TRIPOS>MOLECULE
ZINC03814532
   40    41     0     0     0
SMALL
USER_CHARGES

@<TRIPOS>ATOM
      1 C1         -4.7387    5.9902    0.8125 C.3       1 <0>        -0.1212
      2 C2         -4.1936    4.6829    1.3271 C.ar      1 <0>        -0.0328
      3 C3         -4.3092    4.3666    2.6685 C.ar      1 <0>        -0.1488
      4 C4         -3.8107    3.1683    3.1453 C.ar      1 <0>        -0.0648
      5 C5         -3.1945    2.2817    2.2820 C.ar      1 <0>        -0.1050
      6 C6         -3.0714    2.5985    0.9347 C.ar      1 <0>         0.2565
      7 C7         -3.5793    3.8014    0.4579 C.ar      1 <0>        -0.0712
      8 Cl1        -3.4359    4.1990   -1.2258 Cl        1 <0>        -0.0540
      9 N1         -2.4435    1.7066    0.0593 N.pl3     1 <0>        -0.6837
     10 C8         -2.3493    0.3604    0.3887 C.ar      1 <0>         0.2263
     11 C9         -1.1215   -0.1891    0.7379 C.ar      1 <0>        -0.1294
     12 C10        -1.0316   -1.5252    1.0693 C.ar      1 <0>        -0.0819
     13 C11        -2.1590   -2.3314    1.0469 C.ar      1 <0>        -0.1304
     14 C12        -3.3837   -1.8060    0.6983 C.ar      1 <0>        -0.0744
     15 C13        -3.4927   -0.4534    0.3651 C.ar      1 <0>        -0.1487
     16 C14        -4.8006    0.1155   -0.0084 C.2       1 <0>         0.5625
     17 O1         -4.8743    1.2643   -0.4004 O.2       1 <0>        -0.5087
     18 N2         -5.9144   -0.6376    0.0846 N.am      1 <0>        -0.7241
     19 C15        -7.2140   -0.0723   -0.2865 C.3       1 <0>         0.1310
     20 C16        -8.2878   -1.1118   -0.0927 C.2       1 <0>         0.4595
     21 O2         -7.9973   -2.2119    0.3137 O.2       1 <0>        -0.5041
     22 O3         -9.5669   -0.8154   -0.3717 O.3       1 <0>        -0.3522
     23 C17       -10.5477   -1.8652   -0.1613 C.3       1 <0>         0.0355
     24 Cl2        -2.5690    0.7774    2.8817 Cl        1 <0>        -0.0527
     25 H1         -3.9647    6.7554    0.8725 H         1 <0>         0.0784
     26 H2         -5.0514    5.8704   -0.2248 H         1 <0>         0.0754
     27 H3         -5.5941    6.2905    1.4175 H         1 <0>         0.0734
     28 H4         -4.7898    5.0575    3.3454 H         1 <0>         0.1367
     29 H5         -3.9024    2.9249    4.1935 H         1 <0>         0.1361
     30 H6         -2.0737    2.0281   -0.7779 H         1 <0>         0.4157
     31 H7         -0.2377    0.4314    0.7538 H         1 <0>         0.1334
     32 H8         -0.0759   -1.9467    1.3439 H         1 <0>         0.1309
     33 H9         -2.0766   -3.3772    1.3037 H         1 <0>         0.1307
     34 H10        -4.2587   -2.4389    0.6822 H         1 <0>         0.1278
     35 H11        -5.8556   -1.5539    0.3973 H         1 <0>         0.4098
     36 H12        -7.4272    0.7920    0.3424 H         1 <0>         0.1141
     37 H13        -7.1910    0.2358   -1.3318 H         1 <0>         0.1147
     38 H14       -10.3023   -2.7226   -0.7881 H         1 <0>         0.0663
     39 H15       -10.5386   -2.1664    0.8862 H         1 <0>         0.0664
     40 H16       -11.5385   -1.4947   -0.4242 H         1 <0>         0.1069
@<TRIPOS>BOND
     1    1    2 1
     2    1   25 1
     3    1   26 1
     4    1   27 1
     5    2    7 ar
     6    2    3 ar
     7    3    4 ar
     8    3   28 1
     9    4    5 ar
    10    4   29 1
    11    5    6 ar
    12    5   24 1
    13    6    7 ar
    14    6    9 1
    15    7    8 1
    16    9   10 1
    17    9   30 1
    18   10   15 ar
    19   10   11 ar
    20   11   12 ar
    21   11   31 1
    22   12   13 ar
    23   12   32 1
    24   13   14 ar
    25   13   33 1
    26   14   15 ar
    27   14   34 1
    28   15   16 1
    29   16   17 2
    30   16   18 am
    31   18   19 1
    32   18   35 1
    33   19   20 1
    34   19   36 1
    35   19   37 1
    36   20   21 2
    37   20   22 1
    38   22   23 1
    39   23   38 1
    40   23   39 1
    41   23   40 1
@<TRIPOS>MOLECULE
ZINC03814533
   50    53     0     0     0
SMALL
USER_CHARGES

@<TRIPOS>ATOM
      1 C1          1.6678   -4.9819    0.7013 C.3       1 <0>        -0.6501
      2 S1          0.0655   -4.5346   -0.0220 S.o2      1 <0>         2.4971
      3 O1         -0.9891   -4.9168    0.8504 O.2       1 <0>        -0.9345
      4 O2          0.0329   -4.8905   -1.3973 O.2       1 <0>        -0.9349
      5 C2          0.0405   -2.7728   -0.0128 C.ar      1 <0>        -0.6518
      6 C3          0.5274   -2.0713   -1.1015 C.ar      1 <0>        -0.0195
      7 C4          0.5110   -0.6918   -1.1002 C.ar      1 <0>        -0.1194
      8 C5          0.0021   -0.0041    0.0020 C.ar      1 <0>         0.0005
      9 C6         -0.4826   -0.7173    1.0990 C.ar      1 <0>        -0.1083
     10 C7         -0.4655   -2.0968    1.0832 C.ar      1 <0>        -0.0183
     11 C8         -0.0180    1.4760    0.0102 C.2       1 <0>        -0.0274
     12 C9          1.1889    2.2060    0.0026 C.2       1 <0>         0.0881
     13 N1          1.1756    3.5100    0.0092 N.2       1 <0>        -0.2086
     14 N2         -0.0251    4.2259    0.0240 N.am      1 <0>        -0.4030
     15 C10        -1.2095    3.5829    0.0319 C.2       1 <0>         0.5086
     16 O3         -2.2530    4.2149    0.0448 O.2       1 <0>        -0.5154
     17 C11        -1.2319    2.1658    0.0196 C.2       1 <0>        -0.0676
     18 C12        -2.5165    1.4317    0.0222 C.ar      1 <0>        -0.0444
     19 C13        -2.8799    0.6514   -1.0762 C.ar      1 <0>        -0.0920
     20 C14        -4.0765   -0.0352   -1.0652 C.ar      1 <0>        -0.1180
     21 C15        -4.9210    0.0582    0.0268 C.ar      1 <0>        -0.1057
     22 C16        -4.5690    0.8344    1.1167 C.ar      1 <0>        -0.1178
     23 C17        -3.3726    1.5213    1.1206 C.ar      1 <0>        -0.0839
     24 C18         0.0044    5.6905    0.0316 C.3       1 <0>         0.1660
     25 C19         0.0275    6.1851    1.4550 C.ar      1 <0>        -0.1197
     26 C20        -1.1586    6.4414    2.1170 C.ar      1 <0>        -0.0928
     27 C21        -1.1375    6.8905    3.4242 C.ar      1 <0>        -0.1251
     28 C22         0.0700    7.0933    4.0659 C.ar      1 <0>        -0.1087
     29 C23         1.2562    6.8420    3.4021 C.ar      1 <0>        -0.1262
     30 C24         1.2350    6.3879    2.0967 C.ar      1 <0>        -0.0934
     31 H1          1.7335   -4.5830    1.7136 H         1 <0>         0.1321
     32 H2          1.7624   -6.0674    0.7317 H         1 <0>         0.1343
     33 H3          2.4702   -4.5641    0.0934 H         1 <0>         0.1324
     34 H4          0.9214   -2.6048   -1.9538 H         1 <0>         0.1478
     35 H5          0.8917   -0.1453   -1.9504 H         1 <0>         0.1382
     36 H6         -0.8740   -0.1907    1.9568 H         1 <0>         0.1338
     37 H7         -0.8438   -2.6501    1.9301 H         1 <0>         0.1466
     38 H8          2.1323    1.6804   -0.0085 H         1 <0>         0.1970
     39 H9         -2.2239    0.5818   -1.9314 H         1 <0>         0.1202
     40 H10        -4.3568   -0.6431   -1.9127 H         1 <0>         0.1270
     41 H11        -5.8588   -0.4774    0.0285 H         1 <0>         0.1259
     42 H12        -5.2324    0.9029    1.9662 H         1 <0>         0.1270
     43 H13        -3.0990    2.1269    1.9720 H         1 <0>         0.1204
     44 H14         0.8968    6.0387   -0.4885 H         1 <0>         0.1058
     45 H15        -0.8827    6.0744   -0.4721 H         1 <0>         0.1105
     46 H16        -2.1019    6.2873    1.6141 H         1 <0>         0.1294
     47 H17        -2.0643    7.0872    3.9426 H         1 <0>         0.1242
     48 H18         0.0865    7.4484    5.0857 H         1 <0>         0.1235
     49 H19         2.1996    7.0008    3.9034 H         1 <0>         0.1244
     50 H20         2.1618    6.1919    1.5780 H         1 <0>         0.1255
@<TRIPOS>BOND
     1    1    2 1
     2    1   31 1
     3    1   32 1
     4    1   33 1
     5    2    3 2
     6    2    4 2
     7    2    5 1
     8    5   10 ar
     9    5    6 ar
    10    6    7 ar
    11    6   34 1
    12    7    8 ar
    13    7   35 1
    14    8    9 ar
    15    8   11 1
    16    9   10 ar
    17    9   36 1
    18   10   37 1
    19   11   17 2
    20   11   12 1
    21   12   13 2
    22   12   38 1
    23   13   14 1
    24   14   15 am
    25   14   24 1
    26   15   16 2
    27   15   17 1
    28   17   18 1
    29   18   23 ar
    30   18   19 ar
    31   19   20 ar
    32   19   39 1
    33   20   21 ar
    34   20   40 1
    35   21   22 ar
    36   21   41 1
    37   22   23 ar
    38   22   42 1
    39   23   43 1
    40   24   25 1
    41   24   44 1
    42   24   45 1
    43   25   30 ar
    44   25   26 ar
    45   26   27 ar
    46   26   46 1
    47   27   28 ar
    48   27   47 1
    49   28   29 ar
    50   28   48 1
    51   29   30 ar
    52   29   49 1
    53   30   50 1
@<TRIPOS>MOLECULE
ZINC03814534
   43    46     0     0     0
SMALL
USER_CHARGES

@<TRIPOS>ATOM
      1 C1          0.9277    3.3781   -0.3784 C.3       1 <0>        -0.1222
      2 C2          1.0506    1.8811   -0.2552 C.2       1 <0>         0.1982
      3 C3         -0.0562    1.0982   -0.2654 C.2       1 <0>        -0.2282
      4 C4          0.0822   -0.2920   -0.1494 C.2       1 <0>         0.1897
      5 N1          1.2743   -0.8300   -0.0320 N.2       1 <0>        -0.4619
      6 C5          2.3729   -0.0676   -0.0207 C.2       1 <0>         0.2816
      7 N2          2.2782    1.2959   -0.1319 N.pl3     1 <0>        -0.3054
      8 N3          3.5723    1.8266   -0.0903 N.2       1 <0>        -0.2922
      9 C6          4.4403    0.8413    0.0409 C.2       1 <0>         0.1614
     10 C7          3.7333   -0.3755    0.0897 C.2       1 <0>        -0.1836
     11 C8          4.3196   -1.7274    0.2312 C.ar      1 <0>        -0.0068
     12 C9          4.9746   -2.0864    1.4097 C.ar      1 <0>        -0.0734
     13 C10         5.5142   -3.3495    1.5387 C.ar      1 <0>        -0.1494
     14 C11         5.4166   -4.2569    0.4962 C.ar      1 <0>         0.1007
     15 C12         4.7722   -3.9035   -0.6784 C.ar      1 <0>        -0.1507
     16 C13         4.2241   -2.6449   -0.8154 C.ar      1 <0>        -0.0708
     17 F1          5.9513   -5.4909    0.6256 F         1 <0>        -0.1388
     18 C14         5.9134    0.9906    0.1243 C.ar      1 <0>         0.0353
     19 C15         6.4704    2.0219    0.8785 C.ar      1 <0>        -0.1076
     20 C16         7.8420    2.1534    0.9560 C.ar      1 <0>        -0.0234
     21 C17         8.6635    1.2703    0.2787 C.ar      1 <0>        -0.6501
     22 C18         8.1162    0.2478   -0.4753 C.ar      1 <0>        -0.0216
     23 C19         6.7460    0.1037   -0.5561 C.ar      1 <0>        -0.1051
     24 S1         10.4137    1.4487    0.3763 S.o2      1 <0>         2.4985
     25 O1         10.6427    2.1049    1.6158 O.2       1 <0>        -0.9351
     26 O2         10.9249    0.1437    0.1421 O.2       1 <0>        -0.9339
     27 C20        10.8479    2.5463   -1.0012 C.3       1 <0>        -0.6502
     28 H1          0.8329    3.8178    0.6144 H         1 <0>         0.0961
     29 H2          1.8158    3.7764   -0.8689 H         1 <0>         0.0895
     30 H3          0.0454    3.6227   -0.9699 H         1 <0>         0.0982
     31 H4         -1.0359    1.5414   -0.3665 H         1 <0>         0.1712
     32 H5         -0.7945   -0.9226   -0.1563 H         1 <0>         0.1849
     33 H6          5.0554   -1.3782    2.2210 H         1 <0>         0.1290
     34 H7          6.0172   -3.6301    2.4522 H         1 <0>         0.1374
     35 H8          4.6991   -4.6143   -1.4881 H         1 <0>         0.1372
     36 H9          3.7223   -2.3702   -1.7315 H         1 <0>         0.1292
     37 H10         5.8299    2.7145    1.4044 H         1 <0>         0.1380
     38 H11         8.2748    2.9498    1.5432 H         1 <0>         0.1484
     39 H12         8.7623   -0.4388   -1.0020 H         1 <0>         0.1489
     40 H13         6.3197   -0.6945   -1.1456 H         1 <0>         0.1384
     41 H14        10.3377    3.5017   -0.8792 H         1 <0>         0.1321
     42 H15        11.9257    2.7085   -1.0107 H         1 <0>         0.1343
     43 H16        10.5411    2.0880   -1.9415 H         1 <0>         0.1323
@<TRIPOS>BOND
     1    1    2 1
     2    1   28 1
     3    1   29 1
     4    1   30 1
     5    2    7 1
     6    2    3 2
     7    3    4 1
     8    3   31 1
     9    4    5 2
    10    4   32 1
    11    5    6 1
    12    6   10 2
    13    6    7 1
    14    7    8 1
    15    8    9 2
    16    9   10 1
    17    9   18 1
    18   10   11 1
    19   11   16 ar
    20   11   12 ar
    21   12   13 ar
    22   12   33 1
    23   13   14 ar
    24   13   34 1
    25   14   15 ar
    26   14   17 1
    27   15   16 ar
    28   15   35 1
    29   16   36 1
    30   18   23 ar
    31   18   19 ar
    32   19   20 ar
    33   19   37 1
    34   20   21 ar
    35   20   38 1
    36   21   22 ar
    37   21   24 1
    38   22   23 ar
    39   22   39 1
    40   23   40 1
    41   24   25 2
    42   24   26 2
    43   24   27 1
    44   27   41 1
    45   27   42 1
    46   27   43 1
@<TRIPOS>MOLECULE
ZINC03814535
   50    53     0     0     0
SMALL
USER_CHARGES

@<TRIPOS>ATOM
      1 C1         -6.3697   -1.9911   -0.6917 C.3       1 <0>        -0.6498
      2 S1         -5.1422   -3.1139    0.0317 S.o2      1 <0>         2.4964
      3 O1         -4.9080   -4.2107   -0.8408 O.2       1 <0>        -0.9338
      4 O2         -5.4273   -3.3302    1.4069 O.2       1 <0>        -0.9344
      5 C2         -3.6343   -2.2025    0.0231 C.ar      1 <0>        -0.6512
      6 C3         -3.2971   -1.4183    1.1119 C.ar      1 <0>        -0.0191
      7 C4         -2.1178   -0.7022    1.1113 C.ar      1 <0>        -0.1188
      8 C5         -1.2645   -0.7701    0.0095 C.ar      1 <0>        -0.0032
      9 C6         -1.6128   -1.5586   -1.0877 C.ar      1 <0>        -0.1093
     10 C7         -2.7926   -2.2737   -1.0728 C.ar      1 <0>        -0.0186
     11 C8          0.0021   -0.0041    0.0020 C.2       1 <0>        -0.0218
     12 C9         -0.0171    1.4063    0.0098 C.2       1 <0>         0.0873
     13 N1          1.0965    2.0850    0.0028 N.2       1 <0>        -0.2075
     14 N2          2.3393    1.4450   -0.0125 N.am      1 <0>        -0.4069
     15 C10         2.4204    0.0997   -0.0205 C.2       1 <0>         0.5066
     16 O3          3.5089   -0.4513   -0.0342 O.2       1 <0>        -0.5153
     17 C11         1.2296   -0.6691   -0.0133 C.2       1 <0>        -0.0711
     18 C12         1.2864   -2.1475   -0.0212 C.ar      1 <0>        -0.0553
     19 C13         0.8194   -2.8721    1.0763 C.ar      1 <0>        -0.0629
     20 C14         0.8706   -4.2503    1.0619 C.ar      1 <0>        -0.1515
     21 C15         1.3939   -4.9153   -0.0356 C.ar      1 <0>         0.1137
     22 C16         1.8634   -4.2003   -1.1261 C.ar      1 <0>        -0.1512
     23 C17         1.8124   -2.8221   -1.1240 C.ar      1 <0>        -0.0549
     24 F1          1.4462   -6.2652   -0.0427 F         1 <0>        -0.1346
     25 C18         3.5665    2.2451   -0.0204 C.3       1 <0>         0.1269
     26 C19         3.9794    2.5313   -1.4655 C.3       1 <0>        -0.1012
     27 C20         5.2610    3.3669   -1.4737 C.3       1 <0>        -0.1534
     28 C21         5.1829    4.7744   -2.0685 C.3       1 <0>        -0.1776
     29 C22         5.9040    3.6608   -2.8306 C.3       1 <0>        -0.1771
     30 H1         -6.0658   -1.7240   -1.7038 H         1 <0>         0.1323
     31 H2         -7.3407   -2.4854   -0.7224 H         1 <0>         0.1345
     32 H3         -6.4402   -1.0893   -0.0836 H         1 <0>         0.1325
     33 H4         -3.9587   -1.3663    1.9640 H         1 <0>         0.1485
     34 H5         -1.8559   -0.0902    1.9617 H         1 <0>         0.1390
     35 H6         -0.9586   -1.6118   -1.9454 H         1 <0>         0.1348
     36 H7         -3.0616   -2.8873   -1.9198 H         1 <0>         0.1472
     37 H8         -0.9623    1.9287    0.0171 H         1 <0>         0.1980
     38 H9          0.4152   -2.3547    1.9338 H         1 <0>         0.1320
     39 H10         0.5060   -4.8121    1.9092 H         1 <0>         0.1413
     40 H11         2.2703   -4.7234   -1.9789 H         1 <0>         0.1415
     41 H12         2.1792   -2.2659   -1.9740 H         1 <0>         0.1326
     42 H13         3.3899    3.1863    0.5003 H         1 <0>         0.0994
     43 H14         4.3619    1.6952    0.4827 H         1 <0>         0.1034
     44 H15         4.1559    1.5901   -1.9862 H         1 <0>         0.0720
     45 H16         3.1839    3.0811   -1.9685 H         1 <0>         0.0715
     46 H17         5.9264    3.2155   -0.6238 H         1 <0>         0.1088
     47 H18         4.2184    5.1051   -2.4538 H         1 <0>         0.0948
     48 H19         5.7968    5.5494   -1.6096 H         1 <0>         0.0957
     49 H20         6.9923    3.7033   -2.8732 H         1 <0>         0.0964
     50 H21         5.4141    3.2586   -3.7174 H         1 <0>         0.0937
@<TRIPOS>BOND
     1    1    2 1
     2    1   30 1
     3    1   31 1
     4    1   32 1
     5    2    3 2
     6    2    4 2
     7    2    5 1
     8    5   10 ar
     9    5    6 ar
    10    6    7 ar
    11    6   33 1
    12    7    8 ar
    13    7   34 1
    14    8    9 ar
    15    8   11 1
    16    9   10 ar
    17    9   35 1
    18   10   36 1
    19   11   17 2
    20   11   12 1
    21   12   13 2
    22   12   37 1
    23   13   14 1
    24   14   15 am
    25   14   25 1
    26   15   16 2
    27   15   17 1
    28   17   18 1
    29   18   23 ar
    30   18   19 ar
    31   19   20 ar
    32   19   38 1
    33   20   21 ar
    34   20   39 1
    35   21   22 ar
    36   21   24 1
    37   22   23 ar
    38   22   40 1
    39   23   41 1
    40   25   26 1
    41   25   42 1
    42   25   43 1
    43   26   27 1
    44   26   44 1
    45   26   45 1
    46   27   29 1
    47   27   28 1
    48   27   46 1
    49   28   29 1
    50   28   47 1
    51   28   48 1
    52   29   49 1
    53   29   50 1
@<TRIPOS>MOLECULE
ZINC03814536
   48    51     0     0     0
SMALL
USER_CHARGES

@<TRIPOS>ATOM
      1 C1          3.6186    4.2522    6.9253 C.3       1 <0>        -0.1202
      2 C2          2.1387    4.0168    6.7655 C.ar      1 <0>        -0.0838
      3 C3          1.3952    4.8412    5.9394 C.ar      1 <0>        -0.1136
      4 C4          0.0402    4.6314    5.7893 C.ar      1 <0>        -0.1039
      5 C5         -0.5808    3.5850    6.4728 C.ar      1 <0>        -0.0154
      6 C6          0.1735    2.7607    7.3084 C.ar      1 <0>        -0.1026
      7 C7          1.5292    2.9779    7.4458 C.ar      1 <0>        -0.0849
      8 C8          2.3465    2.0850    8.3435 C.3       1 <0>        -0.1187
      9 C9         -2.0342    3.3545    6.3167 C.2       1 <0>        -0.0984
     10 C10        -3.0656    3.5086    7.3528 C.ar      1 <0>        -0.0933
     11 C11        -3.0334    3.8859    8.6961 C.ar      1 <0>        -0.0648
     12 C12        -4.1942    3.9351    9.4157 C.ar      1 <0>        -0.1431
     13 C13        -5.4058    3.6131    8.8200 C.ar      1 <0>        -0.0921
     14 C14        -5.4598    3.2385    7.4953 C.ar      1 <0>        -0.1310
     15 C15        -4.2896    3.1813    6.7436 C.ar      1 <0>         0.1063
     16 N1         -4.0333    2.8550    5.4290 N.pl3     1 <0>        -0.5826
     17 H1         -4.7056    2.5926    4.7808 H         1 <0>         0.4177
     18 C16        -2.6876    2.9520    5.1710 C.2       1 <0>         0.1114
     19 C17        -2.0437    2.6755    3.8714 C.ar      1 <0>         0.0264
     20 C18        -0.8930    1.8861    3.8125 C.ar      1 <0>        -0.1063
     21 C19        -0.2969    1.6314    2.5949 C.ar      1 <0>        -0.0188
     22 C20        -0.8364    2.1560    1.4336 C.ar      1 <0>        -0.6555
     23 C21        -1.9730    2.9435    1.4852 C.ar      1 <0>        -0.0202
     24 C22        -2.5827    3.2016    2.6953 C.ar      1 <0>        -0.1293
     25 S1         -0.0683    1.8254   -0.1173 S.o2      1 <0>         2.4987
     26 O1          1.2948    1.5778    0.1986 O.2       1 <0>        -0.9343
     27 O2         -0.4326    2.9227   -0.9435 O.2       1 <0>        -0.9356
     28 C23        -0.8576    0.3050   -0.7138 C.3       1 <0>        -0.6505
     29 H2          3.7901    4.9362    7.7564 H         1 <0>         0.0708
     30 H3          4.1177    3.3042    7.1260 H         1 <0>         0.0710
     31 H4          4.0184    4.6864    6.0089 H         1 <0>         0.0660
     32 H5          1.8769    5.6508    5.4113 H         1 <0>         0.1226
     33 H6         -0.5391    5.2757    5.1444 H         1 <0>         0.1180
     34 H7         -0.3020    1.9520    7.8435 H         1 <0>         0.1216
     35 H8          2.3586    2.4972    9.3525 H         1 <0>         0.0708
     36 H9          1.9057    1.0883    8.3634 H         1 <0>         0.0651
     37 H10         3.3664    2.0237    7.9638 H         1 <0>         0.0713
     38 H11        -2.0940    4.1376    9.1656 H         1 <0>         0.1230
     39 H12        -4.1686    4.2269   10.4552 H         1 <0>         0.1251
     40 H13        -6.3153    3.6563    9.4008 H         1 <0>         0.1279
     41 H14        -6.4076    2.9896    7.0413 H         1 <0>         0.1223
     42 H15        -0.4707    1.4764    4.7181 H         1 <0>         0.1381
     43 H16         0.5927    1.0209    2.5478 H         1 <0>         0.1473
     44 H17        -2.3862    3.3533    0.5754 H         1 <0>         0.1466
     45 H18        -3.4723    3.8128    2.7337 H         1 <0>         0.1330
     46 H19        -0.6843   -0.4991    0.0014 H         1 <0>         0.1320
     47 H20        -1.9296    0.4704   -0.8219 H         1 <0>         0.1315
     48 H21        -0.4333    0.0300   -1.6794 H         1 <0>         0.1344
@<TRIPOS>BOND
     1    1    2 1
     2    1   29 1
     3    1   30 1
     4    1   31 1
     5    2    7 ar
     6    2    3 ar
     7    3    4 ar
     8    3   32 1
     9    4    5 ar
    10    4   33 1
    11    5    6 ar
    12    5    9 1
    13    6    7 ar
    14    6   34 1
    15    7    8 1
    16    8   35 1
    17    8   36 1
    18    8   37 1
    19    9   18 2
    20    9   10 1
    21   10   15 ar
    22   10   11 ar
    23   11   12 ar
    24   11   38 1
    25   12   13 ar
    26   12   39 1
    27   13   14 ar
    28   13   40 1
    29   14   15 ar
    30   14   41 1
    31   15   16 1
    32   16   17 1
    33   16   18 1
    34   18   19 1
    35   19   24 ar
    36   19   20 ar
    37   20   21 ar
    38   20   42 1
    39   21   22 ar
    40   21   43 1
    41   22   23 ar
    42   22   25 1
    43   23   24 ar
    44   23   44 1
    45   24   45 1
    46   25   26 2
    47   25   27 2
    48   25   28 1
    49   28   46 1
    50   28   47 1
    51   28   48 1
@<TRIPOS>MOLECULE
ZINC03814537
   46    49     0     0     0
SMALL
USER_CHARGES

@<TRIPOS>ATOM
      1 C1         -3.3539    7.3740    5.7368 C.3       1 <0>        -0.6505
      2 S1         -2.8535    8.1293    4.1652 S.o2      1 <0>         2.4982
      3 O1         -1.6712    8.8967    4.3456 O.2       1 <0>        -0.9372
      4 O2         -3.9840    8.6843    3.5071 O.2       1 <0>        -0.9368
      5 C2         -2.3610    6.7766    3.1492 C.ar      1 <0>        -0.6611
      6 C3         -3.2928    6.1448    2.3446 C.ar      1 <0>        -0.0205
      7 C4         -2.9147    5.0854    1.5467 C.ar      1 <0>        -0.1233
      8 C5         -1.5868    4.6503    1.5521 C.ar      1 <0>         0.0264
      9 C6         -0.6525    5.2897    2.3712 C.ar      1 <0>        -0.1290
     10 C7         -1.0441    6.3516    3.1595 C.ar      1 <0>        -0.0212
     11 C8         -1.1749    3.5184    0.7026 C.2       1 <0>        -0.1007
     12 C9         -1.1874    3.5258   -0.6382 C.2       1 <0>        -0.0667
     13 C10        -0.7019    2.1985   -1.1819 C.3       1 <0>        -0.0733
     14 C11        -0.0186    1.5198    0.0104 C.3       1 <0>        -0.0832
     15 C12        -0.6792    2.1854    1.2227 C.3       1 <0>        -0.0579
     16 C13         1.5055    1.5012   -0.0043 C.3       1 <0>        -0.1261
     17 C14         1.4043    0.1015    0.6307 C.3       1 <0>        -0.1418
     18 C15         0.0021   -0.0041    0.0020 C.3       1 <0>        -0.1270
     19 C16        -1.6149    4.6667   -1.4673 C.ar      1 <0>        -0.0522
     20 C17        -2.7460    4.5581   -2.2807 C.ar      1 <0>        -0.0770
     21 C18        -3.1444    5.6310   -3.0494 C.ar      1 <0>        -0.1514
     22 C19        -2.4184    6.8116   -3.0260 C.ar      1 <0>         0.1021
     23 C20        -1.2922    6.9236   -2.2256 C.ar      1 <0>        -0.1505
     24 C21        -0.8873    5.8597   -1.4477 C.ar      1 <0>        -0.0723
     25 F1         -2.8102    7.8575   -3.7860 F         1 <0>        -0.1376
     26 H1         -2.5096    6.8341    6.1655 H         1 <0>         0.1315
     27 H2         -3.6760    8.1528    6.4279 H         1 <0>         0.1334
     28 H3         -4.1768    6.6811    5.5611 H         1 <0>         0.1314
     29 H4         -4.3187    6.4825    2.3412 H         1 <0>         0.1428
     30 H5         -3.6429    4.5935    0.9190 H         1 <0>         0.1315
     31 H6          0.3746    4.9560    2.3838 H         1 <0>         0.1337
     32 H7         -0.3222    6.8496    3.7897 H         1 <0>         0.1436
     33 H8          0.0125    2.3570   -1.9898 H         1 <0>         0.0784
     34 H9         -1.5421    1.5982   -1.5308 H         1 <0>         0.0844
     35 H10        -1.5140    1.5823    1.5796 H         1 <0>         0.0845
     36 H11         0.0503    2.3353    2.0186 H         1 <0>         0.0777
     37 H12         1.9337    1.4975   -1.0066 H         1 <0>         0.0840
     38 H13         1.9588    2.2467    0.6491 H         1 <0>         0.0691
     39 H14         1.3934    0.1170    1.7205 H         1 <0>         0.0800
     40 H15         2.1188   -0.6149    0.2253 H         1 <0>         0.0686
     41 H16        -0.7400   -0.4556    0.6604 H         1 <0>         0.0704
     42 H17         0.0006   -0.4365   -0.9985 H         1 <0>         0.0849
     43 H18        -3.3096    3.6370   -2.3037 H         1 <0>         0.1338
     44 H19        -4.0214    5.5501   -3.6745 H         1 <0>         0.1381
     45 H20        -0.7311    7.8462   -2.2111 H         1 <0>         0.1377
     46 H21        -0.0099    5.9483   -0.8242 H         1 <0>         0.1309
@<TRIPOS>BOND
     1    1    2 1
     2    1   26 1
     3    1   27 1
     4    1   28 1
     5    2    3 2
     6    2    4 2
     7    2    5 1
     8    5   10 ar
     9    5    6 ar
    10    6    7 ar
    11    6   29 1
    12    7    8 ar
    13    7   30 1
    14    8    9 ar
    15    8   11 1
    16    9   10 ar
    17    9   31 1
    18   10   32 1
    19   11   15 1
    20   11   12 2
    21   12   13 1
    22   12   19 1
    23   13   14 1
    24   13   33 1
    25   13   34 1
    26   14   18 1
    27   14   15 1
    28   14   16 1
    29   15   35 1
    30   15   36 1
    31   16   17 1
    32   16   37 1
    33   16   38 1
    34   17   18 1
    35   17   39 1
    36   17   40 1
    37   18   41 1
    38   18   42 1
    39   19   24 ar
    40   19   20 ar
    41   20   21 ar
    42   20   43 1
    43   21   22 ar
    44   21   44 1
    45   22   23 ar
    46   22   25 1
    47   23   24 ar
    48   23   45 1
    49   24   46 1
@<TRIPOS>MOLECULE
ZINC03814538
   46    50     0     0     0
SMALL
USER_CHARGES

@<TRIPOS>ATOM
      1 C1         -1.1041   -1.2803    7.2965 C.3       1 <0>        -0.6504
      2 S1          0.1532   -0.8084    6.0770 S.o2      1 <0>         2.4977
      3 O1          0.9873   -1.9195    5.7789 O.2       1 <0>        -0.9370
      4 O2          0.7177    0.4503    6.4181 O.2       1 <0>        -0.9369
      5 C2         -0.7463   -0.5100    4.5915 C.ar      1 <0>        -0.6606
      6 C3         -1.2288    0.7586    4.3218 C.ar      1 <0>        -0.0208
      7 C4         -1.9333    0.9997    3.1610 C.ar      1 <0>        -0.1218
      8 C5         -2.1598   -0.0410    2.2563 C.ar      1 <0>         0.0247
      9 C6         -1.6749   -1.3208    2.5384 C.ar      1 <0>        -0.1290
     10 C7         -0.9663   -1.5454    3.7002 C.ar      1 <0>        -0.0212
     11 C8         -2.9117    0.2087    1.0136 C.2       1 <0>        -0.0939
     12 C9         -2.4994    1.0085    0.0194 C.2       1 <0>        -0.0646
     13 C10        -3.5145    1.0280   -1.1037 C.3       1 <0>        -0.0482
     14 C11        -4.7906    0.4450   -0.4817 C.3       1 <0>        -0.1343
     15 C12        -4.2582   -0.3996    0.6837 C.3       1 <0>        -0.0452
     16 C13        -5.9831    0.0185   -1.3186 C.3       1 <0>        -0.1624
     17 C14        -6.0847    1.2337   -0.3903 C.3       1 <0>        -0.1623
     18 C15        -1.2316    1.7591    0.0174 C.ar      1 <0>        -0.0320
     19 C16        -1.2445    3.1567    0.0300 C.ar      1 <0>        -0.0934
     20 C17        -0.0568    3.8567    0.0222 C.ar      1 <0>        -0.0983
     21 C18         1.1538    3.1787    0.0077 C.ar      1 <0>         0.0362
     22 C19         1.1742    1.7842    0.0004 C.ar      1 <0>         0.0360
     23 C20        -0.0126    1.0758    0.0080 C.ar      1 <0>        -0.0838
     24 O3          2.4744    1.3674   -0.0139 O.3       1 <0>        -0.3069
     25 C21         3.2407    2.5138   -0.4282 C.3       1 <0>         0.2127
     26 O4          2.4412    3.6326   -0.0017 O.3       1 <0>        -0.3071
     27 H1         -1.6249   -2.1745    6.9540 H         1 <0>         0.1316
     28 H2         -0.6237   -1.4837    8.2535 H         1 <0>         0.1333
     29 H3         -1.8192   -0.4662    7.4147 H         1 <0>         0.1315
     30 H4         -1.0529    1.5619    5.0220 H         1 <0>         0.1430
     31 H5         -2.3086    1.9905    2.9514 H         1 <0>         0.1328
     32 H6         -1.8500   -2.1309    1.8460 H         1 <0>         0.1341
     33 H7         -0.5861   -2.5328    3.9170 H         1 <0>         0.1437
     34 H8         -3.6885    2.0497   -1.4411 H         1 <0>         0.0792
     35 H9         -3.1758    0.4071   -1.9331 H         1 <0>         0.0875
     36 H10        -4.9290   -0.3314    1.5402 H         1 <0>         0.0771
     37 H11        -4.1393   -1.4388    0.3769 H         1 <0>         0.0859
     38 H12        -5.9388    0.2064   -2.3913 H         1 <0>         0.0984
     39 H13        -6.5092   -0.8884   -1.0206 H         1 <0>         0.0979
     40 H14        -6.6775    1.1256    0.5180 H         1 <0>         0.0968
     41 H15        -6.1068    2.2209   -0.8518 H         1 <0>         0.0975
     42 H16        -2.1846    3.6881    0.0421 H         1 <0>         0.1402
     43 H17        -0.0687    4.9366    0.0277 H         1 <0>         0.1390
     44 H18         0.0021   -0.0041    0.0020 H         1 <0>         0.1335
     45 H19         3.3632    2.5214   -1.5112 H         1 <0>         0.0859
     46 H20         4.2121    2.5268    0.0661 H         1 <0>         0.1342
@<TRIPOS>BOND
     1    1    2 1
     2    1   27 1
     3    1   28 1
     4    1   29 1
     5    2    3 2
     6    2    4 2
     7    2    5 1
     8    5   10 ar
     9    5    6 ar
    10    6    7 ar
    11    6   30 1
    12    7    8 ar
    13    7   31 1
    14    8    9 ar
    15    8   11 1
    16    9   10 ar
    17    9   32 1
    18   10   33 1
    19   11   15 1
    20   11   12 2
    21   12   13 1
    22   12   18 1
    23   13   14 1
    24   13   34 1
    25   13   35 1
    26   14   17 1
    27   14   15 1
    28   14   16 1
    29   15   36 1
    30   15   37 1
    31   16   17 1
    32   16   38 1
    33   16   39 1
    34   17   40 1
    35   17   41 1
    36   18   23 ar
    37   18   19 ar
    38   19   20 ar
    39   19   42 1
    40   20   21 ar
    41   20   43 1
    42   21   26 1
    43   21   22 ar
    44   22   23 ar
    45   22   24 1
    46   23   44 1
    47   24   25 1
    48   25   26 1
    49   25   45 1
    50   25   46 1
@<TRIPOS>MOLECULE
ZINC03814539
   43    46     0     0     0
SMALL
USER_CHARGES

@<TRIPOS>ATOM
      1 C1         -8.8133    7.1130   -0.8951 C.3       1 <0>        -0.6491
      2 S1         -7.7418    8.0524    0.2275 S.o2      1 <0>         2.4971
      3 O1         -8.1926    7.9104    1.5676 O.2       1 <0>        -0.9321
      4 O2         -7.4733    9.3384   -0.3140 O.2       1 <0>        -0.9317
      5 C2         -6.1930    7.2135    0.1829 C.ar      1 <0>        -0.6418
      6 C3         -5.2380    7.5800   -0.7493 C.ar      1 <0>        -0.0228
      7 C4         -4.0239    6.9274   -0.7909 C.ar      1 <0>        -0.0957
      8 C5         -3.7587    5.8938    0.1119 C.ar      1 <0>        -0.0126
      9 C6         -4.7301    5.5258    1.0470 C.ar      1 <0>        -0.0981
     10 C7         -5.9376    6.1911    1.0800 C.ar      1 <0>        -0.0233
     11 C8         -2.4632    5.1913    0.0739 C.2       1 <0>         0.2114
     12 C9         -1.2993    5.9282    0.1927 C.2       1 <0>        -0.2304
     13 C10        -0.0447    5.2536    0.1566 C.2       1 <0>         0.4305
     14 O3          1.0062    5.8633    0.2579 O.2       1 <0>        -0.4512
     15 C11        -0.0685    3.7874   -0.0079 C.ar      1 <0>        -0.2162
     16 C12         1.1132    3.0477   -0.0531 C.ar      1 <0>        -0.0301
     17 C13         1.0544    1.6801   -0.2072 C.ar      1 <0>        -0.1435
     18 C14        -0.1720    1.0410   -0.3174 C.ar      1 <0>        -0.0551
     19 C15        -1.3466    1.7614   -0.2799 C.ar      1 <0>        -0.1364
     20 C16        -1.3101    3.1418   -0.1189 C.ar      1 <0>         0.1407
     21 O4         -2.4523    3.8583   -0.0750 O.3       1 <0>        -0.2094
     22 C17        -1.3558    7.3992    0.3547 C.ar      1 <0>        -0.0569
     23 C18        -1.2183    8.2318   -0.7556 C.ar      1 <0>        -0.0754
     24 C19        -1.2766    9.6015   -0.5992 C.ar      1 <0>        -0.1264
     25 C20        -1.4604   10.1510    0.6573 C.ar      1 <0>        -0.0817
     26 C21        -1.5924    9.3326    1.7642 C.ar      1 <0>        -0.1514
     27 C22        -1.5412    7.9587    1.6208 C.ar      1 <0>         0.1168
     28 F1         -1.6697    7.1595    2.7024 F         1 <0>        -0.1347
     29 H1         -8.9005    6.0863   -0.5397 H         1 <0>         0.1330
     30 H2         -9.8012    7.5727   -0.9239 H         1 <0>         0.1358
     31 H3         -8.3819    7.1157   -1.8961 H         1 <0>         0.1331
     32 H4         -5.4443    8.3788   -1.4463 H         1 <0>         0.1533
     33 H5         -3.2799    7.2140   -1.5194 H         1 <0>         0.1426
     34 H6         -4.5341    4.7248    1.7445 H         1 <0>         0.1421
     35 H7         -6.6878    5.9103    1.8044 H         1 <0>         0.1526
     36 H8          2.0684    3.5442    0.0326 H         1 <0>         0.1446
     37 H9          1.9667    1.1032   -0.2427 H         1 <0>         0.1397
     38 H10        -0.2066   -0.0317   -0.4383 H         1 <0>         0.1441
     39 H11        -2.2951    1.2531   -0.3712 H         1 <0>         0.1458
     40 H12        -1.0705    7.8052   -1.7367 H         1 <0>         0.1322
     41 H13        -1.1739   10.2466   -1.4593 H         1 <0>         0.1351
     42 H14        -1.5007   11.2239    0.7742 H         1 <0>         0.1366
     43 H15        -1.7354    9.7675    2.7424 H         1 <0>         0.1390
@<TRIPOS>BOND
     1    1    2 1
     2    1   29 1
     3    1   30 1
     4    1   31 1
     5    2    3 2
     6    2    4 2
     7    2    5 1
     8    5   10 ar
     9    5    6 ar
    10    6    7 ar
    11    6   32 1
    12    7    8 ar
    13    7   33 1
    14    8    9 ar
    15    8   11 1
    16    9   10 ar
    17    9   34 1
    18   10   35 1
    19   11   21 1
    20   11   12 2
    21   12   13 1
    22   12   22 1
    23   13   14 2
    24   13   15 1
    25   15   20 ar
    26   15   16 ar
    27   16   17 ar
    28   16   36 1
    29   17   18 ar
    30   17   37 1
    31   18   19 ar
    32   18   38 1
    33   19   20 ar
    34   19   39 1
    35   20   21 1
    36   22   27 ar
    37   22   23 ar
    38   23   24 ar
    39   23   40 1
    40   24   25 ar
    41   24   41 1
    42   25   26 ar
    43   25   42 1
    44   26   27 ar
    45   26   43 1
    46   27   28 1
@<TRIPOS>MOLECULE
ZINC03814540
   43    46     0     0     0
SMALL
USER_CHARGES

@<TRIPOS>ATOM
      1 C1         -8.7671    6.7100   -1.8359 C.3       1 <0>        -0.6492
      2 S1         -7.8897    7.7086   -0.6016 S.o2      1 <0>         2.4957
      3 O1         -8.4923    7.5489    0.6753 O.2       1 <0>        -0.9312
      4 O2         -7.6236    9.0046   -1.1200 O.2       1 <0>        -0.9297
      5 C2         -6.3060    6.9514   -0.4493 C.ar      1 <0>        -0.6374
      6 C3         -5.2648    7.3633   -1.2627 C.ar      1 <0>        -0.0216
      7 C4         -4.0226    6.7754   -1.1493 C.ar      1 <0>        -0.0883
      8 C5         -3.8164    5.7614   -0.2095 C.ar      1 <0>        -0.0176
      9 C6         -4.8741    5.3473    0.6051 C.ar      1 <0>        -0.0977
     10 C7         -6.1095    5.9480    0.4834 C.ar      1 <0>        -0.0234
     11 C8         -2.4916    5.1275   -0.0824 C.2       1 <0>         0.2240
     12 C9         -1.3804    5.9305    0.0895 C.2       1 <0>        -0.1466
     13 C10        -0.0973    5.3224    0.2124 C.2       1 <0>         0.1717
     14 S2          1.3166    6.2634    0.4277 S.2       1 <0>        -0.4489
     15 C11        -0.0360    3.8498    0.1471 C.ar      1 <0>        -0.1490
     16 C12         1.1784    3.1735    0.2580 C.ar      1 <0>        -0.0290
     17 C13         1.1995    1.7972    0.1923 C.ar      1 <0>        -0.1363
     18 C14         0.0207    1.0878    0.0169 C.ar      1 <0>        -0.0462
     19 C15        -1.1857    1.7457   -0.0993 C.ar      1 <0>        -0.1352
     20 C16        -1.2296    3.1329   -0.0304 C.ar      1 <0>         0.1396
     21 O3         -2.4043    3.7890   -0.1380 O.3       1 <0>        -0.1964
     22 C17        -1.5208    7.4037    0.1448 C.ar      1 <0>        -0.0427
     23 C18        -2.2020    8.0024    1.2048 C.ar      1 <0>        -0.0679
     24 C19        -2.3255    9.3755    1.2544 C.ar      1 <0>        -0.1508
     25 C20        -1.7843   10.1590    0.2479 C.ar      1 <0>         0.1127
     26 C21        -1.1113    9.5687   -0.8099 C.ar      1 <0>        -0.1501
     27 C22        -0.9774    8.1969   -0.8658 C.ar      1 <0>        -0.0500
     28 F1         -1.9128   11.5029    0.2981 F         1 <0>        -0.1357
     29 H1         -8.8442    5.6816   -1.4830 H         1 <0>         0.1331
     30 H2         -9.7665    7.1174   -1.9891 H         1 <0>         0.1364
     31 H3         -8.2180    6.7310   -2.7772 H         1 <0>         0.1332
     32 H4         -5.4257    8.1469   -1.9883 H         1 <0>         0.1542
     33 H5         -3.2112    7.0974   -1.7851 H         1 <0>         0.1429
     34 H6         -4.7233    4.5614    1.3304 H         1 <0>         0.1434
     35 H7         -6.9268    5.6316    1.1145 H         1 <0>         0.1538
     36 H8          2.0968    3.7250    0.3949 H         1 <0>         0.1590
     37 H9          2.1376    1.2689    0.2773 H         1 <0>         0.1441
     38 H10         0.0483    0.0093   -0.0337 H         1 <0>         0.1479
     39 H11        -2.0966    1.1828   -0.2400 H         1 <0>         0.1494
     40 H12        -2.6280    7.3923    1.9875 H         1 <0>         0.1285
     41 H13        -2.8488    9.8402    2.0770 H         1 <0>         0.1393
     42 H14        -0.6913   10.1837   -1.5920 H         1 <0>         0.1403
     43 H15        -0.4531    7.7378   -1.6908 H         1 <0>         0.1316
@<TRIPOS>BOND
     1    1    2 1
     2    1   29 1
     3    1   30 1
     4    1   31 1
     5    2    3 2
     6    2    4 2
     7    2    5 1
     8    5   10 ar
     9    5    6 ar
    10    6    7 ar
    11    6   32 1
    12    7    8 ar
    13    7   33 1
    14    8    9 ar
    15    8   11 1
    16    9   10 ar
    17    9   34 1
    18   10   35 1
    19   11   21 1
    20   11   12 2
    21   12   13 1
    22   12   22 1
    23   13   14 2
    24   13   15 1
    25   15   20 ar
    26   15   16 ar
    27   16   17 ar
    28   16   36 1
    29   17   18 ar
    30   17   37 1
    31   18   19 ar
    32   18   38 1
    33   19   20 ar
    34   19   39 1
    35   20   21 1
    36   22   27 ar
    37   22   23 ar
    38   23   24 ar
    39   23   40 1
    40   24   25 ar
    41   24   41 1
    42   25   26 ar
    43   25   28 1
    44   26   27 ar
    45   26   42 1
    46   27   43 1
@<TRIPOS>MOLECULE
ZINC03814541
   42    45     0     0     0
SMALL
USER_CHARGES

@<TRIPOS>ATOM
      1 C1         -7.0567   -0.4585   -2.6679 C.ar      1 <0>        -0.1175
      2 C2         -6.9896   -1.1179   -1.4533 C.ar      1 <0>        -0.1111
      3 C3         -6.0384   -0.7582   -0.5213 C.ar      1 <0>        -0.1265
      4 C4         -5.1422    0.2739   -0.8058 C.ar      1 <0>        -0.0184
      5 C5         -5.2192    0.9389   -2.0310 C.ar      1 <0>        -0.0993
      6 C6         -6.1713    0.5649   -2.9565 C.ar      1 <0>        -0.1120
      7 C7         -4.1206    0.6647    0.1877 C.2       1 <0>         0.0230
      8 C8         -2.8102    0.9060   -0.0684 C.2       1 <0>        -0.1204
      9 C9         -2.1920    1.2442    1.1465 C.2       1 <0>        -0.1420
     10 C10        -3.1390    1.2042    2.1174 C.2       1 <0>         0.0997
     11 N1         -4.3307    0.8470    1.5336 N.pl3     1 <0>        -0.2835
     12 N2         -5.5237    0.6982    2.1820 N.3       1 <0>        -0.5974
     13 C11        -2.9264    1.4945    3.5506 C.ar      1 <0>        -0.0114
     14 C12        -1.8244    0.9577    4.2189 C.ar      1 <0>        -0.0998
     15 C13        -1.6286    1.2378    5.5553 C.ar      1 <0>        -0.1185
     16 C14        -2.5281    2.0387    6.2365 C.ar      1 <0>        -0.1173
     17 C15        -3.6255    2.5693    5.5817 C.ar      1 <0>        -0.1196
     18 C16        -3.8299    2.3022    4.2439 C.ar      1 <0>        -0.0955
     19 C17        -0.7283    1.5793    1.2721 C.3       1 <0>        -0.0461
     20 C18        -0.0127    1.0858    0.0080 C.3       1 <0>        -0.1159
     21 C19        -0.7504    1.5915   -1.2336 C.3       1 <0>        -0.1157
     22 C20        -2.0810    0.8438   -1.3871 C.3       1 <0>        -0.0489
     23 H1         -7.8034   -0.7441   -3.3941 H         1 <0>         0.1256
     24 H2         -7.6837   -1.9159   -1.2344 H         1 <0>         0.1265
     25 H3         -5.9868   -1.2739    0.4262 H         1 <0>         0.1186
     26 H4         -4.5321    1.7413   -2.2554 H         1 <0>         0.1288
     27 H5         -6.2292    1.0755   -3.9064 H         1 <0>         0.1279
     28 H6         -6.0364    1.5671    2.1999 H         1 <0>         0.3535
     29 H7         -6.0733   -0.0374    1.7638 H         1 <0>         0.3668
     30 H8         -1.1244    0.3282    3.6896 H         1 <0>         0.1261
     31 H9         -0.7741    0.8268    6.0724 H         1 <0>         0.1251
     32 H10        -2.3727    2.2509    7.2840 H         1 <0>         0.1223
     33 H11        -4.3237    3.1937    6.1193 H         1 <0>         0.1226
     34 H12        -4.6866    2.7173    3.7339 H         1 <0>         0.1150
     35 H13        -0.3122    1.0819    2.1482 H         1 <0>         0.0707
     36 H14        -0.6046    2.6581    1.3673 H         1 <0>         0.0700
     37 H15         0.0021   -0.0041    0.0020 H         1 <0>         0.0633
     38 H16         1.0102    1.4622    0.0003 H         1 <0>         0.0648
     39 H17        -0.9444    2.6591   -1.1302 H         1 <0>         0.0634
     40 H18        -0.1347    1.4189   -2.1164 H         1 <0>         0.0642
     41 H19        -2.6823    1.3182   -2.1627 H         1 <0>         0.0691
     42 H20        -1.8902   -0.1957   -1.6540 H         1 <0>         0.0701
@<TRIPOS>BOND
     1    1    6 ar
     2    1    2 ar
     3    1   23 1
     4    2    3 ar
     5    2   24 1
     6    3    4 ar
     7    3   25 1
     8    4    5 ar
     9    4    7 1
    10    5    6 ar
    11    5   26 1
    12    6   27 1
    13    7   11 1
    14    7    8 2
    15    8   22 1
    16    8    9 1
    17    9   10 2
    18    9   19 1
    19   10   11 1
    20   10   13 1
    21   11   12 1
    22   12   28 1
    23   12   29 1
    24   13   18 ar
    25   13   14 ar
    26   14   15 ar
    27   14   30 1
    28   15   16 ar
    29   15   31 1
    30   16   17 ar
    31   16   32 1
    32   17   18 ar
    33   17   33 1
    34   18   34 1
    35   19   20 1
    36   19   35 1
    37   19   36 1
    38   20   21 1
    39   20   37 1
    40   20   38 1
    41   21   22 1
    42   21   39 1
    43   21   40 1
    44   22   41 1
    45   22   42 1
@<TRIPOS>MOLECULE
ZINC03814547
   45    47     0     0     0
SMALL
USER_CHARGES

@<TRIPOS>ATOM
      1 C1         -4.0676    4.7351    7.9461 C.3       1 <0>        -0.1376
      2 C2         -3.8592    3.6841    6.8864 C.2       1 <0>         0.1908
      3 C3         -4.1577    2.3722    7.0062 C.2       1 <0>        -0.7252
      4 C4         -3.8162    1.7436    5.7974 C.2       1 <0>        -0.0582
      5 C5         -3.3057    2.6997    4.9715 C.2       1 <0>         0.0437
      6 N1         -3.3363    3.8970    5.6437 N.pl3     1 <0>        -0.3769
      7 C6         -2.9037    5.1311    5.1379 C.ar      1 <0>         0.0782
      8 C7         -1.7758    5.7426    5.6679 C.ar      1 <0>        -0.0765
      9 C8         -1.3479    6.9555    5.1645 C.ar      1 <0>        -0.1387
     10 C9         -2.0501    7.5672    4.1397 C.ar      1 <0>         0.1241
     11 C10        -3.1786    6.9613    3.6132 C.ar      1 <0>        -0.1400
     12 C11        -3.6062    5.7457    4.1102 C.ar      1 <0>        -0.0683
     13 F1         -1.6336    8.7565    3.6526 F         1 <0>        -0.1261
     14 C12        -2.8125    2.4872    3.5943 C.ar      1 <0>         0.0364
     15 C13        -3.2073    1.3582    2.8747 C.ar      1 <0>        -0.1208
     16 C14        -2.7437    1.1661    1.5897 C.ar      1 <0>        -0.0141
     17 C15        -1.8892    2.0894    1.0140 C.ar      1 <0>        -0.6597
     18 C16        -1.4894    3.2077    1.7238 C.ar      1 <0>        -0.0148
     19 C17        -1.9502    3.4148    3.0076 C.ar      1 <0>        -0.1415
     20 S1         -1.3017    1.8363   -0.6278 S.o2      1 <0>         2.4985
     21 O1         -1.3500    0.4289   -0.8173 O.2       1 <0>        -0.9339
     22 O2         -0.0640    2.5325   -0.6814 O.2       1 <0>        -0.9355
     23 C18        -2.5240    2.6522   -1.6913 C.3       1 <0>        -0.6502
     24 S2         -4.8570    1.5908    8.4222 S.o2      1 <0>         2.5191
     25 O3         -4.9296    0.2141    8.0779 O.2       1 <0>        -0.8588
     26 O4         -4.0519    2.0240    9.5101 O.2       1 <0>        -0.8593
     27 C19        -6.5256    2.2884    8.5632 C.3       1 <0>        -0.0227
     28 F2         -7.2079    2.1132    7.3545 F         1 <0>        -0.1552
     29 F3         -7.2186    1.6362    9.5887 F         1 <0>        -0.1578
     30 F4         -6.4371    3.6537    8.8551 F         1 <0>        -0.1598
     31 H1         -5.0411    5.2048    7.8054 H         1 <0>         0.1017
     32 H2         -4.0273    4.2707    8.9314 H         1 <0>         0.1095
     33 H3         -3.2853    5.4900    7.8680 H         1 <0>         0.0932
     34 H4         -3.9343    0.6953    5.5660 H         1 <0>         0.1721
     35 H5         -1.2308    5.2683    6.4707 H         1 <0>         0.1470
     36 H6         -0.4681    7.4295    5.5739 H         1 <0>         0.1529
     37 H7         -3.7247    7.4397    2.8138 H         1 <0>         0.1514
     38 H8         -4.4867    5.2738    3.6998 H         1 <0>         0.1438
     39 H9         -3.8741    0.6365    3.3231 H         1 <0>         0.1432
     40 H10        -3.0488    0.2931    1.0317 H         1 <0>         0.1501
     41 H11        -0.8187    3.9225    1.2702 H         1 <0>         0.1452
     42 H12        -1.6406    4.2902    3.5591 H         1 <0>         0.1325
     43 H13        -3.5016    2.1953   -1.5379 H         1 <0>         0.1324
     44 H14        -2.5747    3.7117   -1.4400 H         1 <0>         0.1311
     45 H15        -2.2301    2.5400   -2.7349 H         1 <0>         0.1347
@<TRIPOS>BOND
     1    1    2 1
     2    1   31 1
     3    1   32 1
     4    1   33 1
     5    2    6 1
     6    2    3 2
     7    3    4 1
     8    3   24 1
     9    4    5 2
    10    4   34 1
    11    5    6 1
    12    5   14 1
    13    6    7 1
    14    7   12 ar
    15    7    8 ar
    16    8    9 ar
    17    8   35 1
    18    9   10 ar
    19    9   36 1
    20   10   11 ar
    21   10   13 1
    22   11   12 ar
    23   11   37 1
    24   12   38 1
    25   14   19 ar
    26   14   15 ar
    27   15   16 ar
    28   15   39 1
    29   16   17 ar
    30   16   40 1
    31   17   18 ar
    32   17   20 1
    33   18   19 ar
    34   18   41 1
    35   19   42 1
    36   20   21 2
    37   20   22 2
    38   20   23 1
    39   23   43 1
    40   23   44 1
    41   23   45 1
    42   24   25 2
    43   24   26 2
    44   24   27 1
    45   27   28 1
    46   27   29 1
    47   27   30 1
@<TRIPOS>MOLECULE
ZINC03814548
   40    42     0     0     0
SMALL
USER_CHARGES

@<TRIPOS>ATOM
      1 C1         -3.0769    4.9701    8.1992 C.3       1 <0>        -0.0996
      2 C2         -3.1419    3.9661    7.0772 C.2       1 <0>         0.1165
      3 C3         -3.8681    2.7946    7.0812 C.2       1 <0>        -0.1140
      4 C4         -3.6456    2.1631    5.8305 C.2       1 <0>        -0.1015
      5 C5         -2.7991    2.9559    5.1242 C.2       1 <0>         0.0401
      6 N1         -2.4955    4.0585    5.8874 N.pl3     1 <0>        -0.3817
      7 C6         -1.6527    5.1092    5.4991 C.ar      1 <0>         0.0880
      8 C7         -0.2903    4.8883    5.3491 C.ar      1 <0>        -0.0703
      9 C8          0.5376    5.9235    4.9614 C.ar      1 <0>        -0.1411
     10 C9          0.0112    7.1839    4.7329 C.ar      1 <0>         0.1205
     11 C10        -1.3467    7.4074    4.8871 C.ar      1 <0>        -0.1402
     12 C11        -2.1786    6.3735    5.2696 C.ar      1 <0>        -0.0761
     13 F1          0.8234    8.1965    4.3587 F         1 <0>        -0.1278
     14 C12        -2.2941    2.6826    3.7614 C.ar      1 <0>         0.0409
     15 C13        -1.8065    3.7255    2.9726 C.ar      1 <0>        -0.1429
     16 C14        -1.3363    3.4637    1.7022 C.ar      1 <0>        -0.0151
     17 C15        -1.3476    2.1708    1.2099 C.ar      1 <0>        -0.6618
     18 C16        -1.8347    1.1333    1.9849 C.ar      1 <0>        -0.0150
     19 C17        -2.3028    1.3808    3.2589 C.ar      1 <0>        -0.1226
     20 S1         -0.7459    1.8451   -0.4139 S.o2      1 <0>         2.4987
     21 O1         -0.9214    3.0672   -1.1174 O.2       1 <0>        -0.9363
     22 O2         -1.4287    0.6685   -0.8244 O.2       1 <0>        -0.9353
     23 C18         1.0211    1.4981   -0.1953 C.3       1 <0>        -0.6505
     24 C19        -4.6946    2.3090    8.1450 C.1       1 <0>         0.2855
     25 N2         -5.3503    1.9238    8.9889 N.1       1 <0>        -0.4251
     26 H1         -3.8668    5.7102    8.0708 H         1 <0>         0.0879
     27 H2         -3.2097    4.4587    9.1526 H         1 <0>         0.0898
     28 H3         -2.1072    5.4677    8.1858 H         1 <0>         0.0780
     29 H4         -4.0692    1.2255    5.5020 H         1 <0>         0.1592
     30 H5          0.1213    3.9067    5.5319 H         1 <0>         0.1433
     31 H6          1.5970    5.7512    4.8410 H         1 <0>         0.1498
     32 H7         -1.7554    8.3910    4.7085 H         1 <0>         0.1507
     33 H8         -3.2375    6.5484    5.3904 H         1 <0>         0.1452
     34 H9         -1.7974    4.7352    3.3556 H         1 <0>         0.1325
     35 H10        -0.9583    4.2698    1.0908 H         1 <0>         0.1439
     36 H11        -1.8446    0.1268    1.5932 H         1 <0>         0.1481
     37 H12        -2.6788    0.5694    3.8644 H         1 <0>         0.1411
     38 H13         1.5094    2.3653    0.2492 H         1 <0>         0.1312
     39 H14         1.1437    0.6362    0.4605 H         1 <0>         0.1322
     40 H15         1.4720    1.2844   -1.1644 H         1 <0>         0.1340
@<TRIPOS>BOND
     1    1    2 1
     2    1   26 1
     3    1   27 1
     4    1   28 1
     5    2    6 1
     6    2    3 2
     7    3    4 1
     8    3   24 1
     9    4    5 2
    10    4   29 1
    11    5    6 1
    12    5   14 1
    13    6    7 1
    14    7   12 ar
    15    7    8 ar
    16    8    9 ar
    17    8   30 1
    18    9   10 ar
    19    9   31 1
    20   10   11 ar
    21   10   13 1
    22   11   12 ar
    23   11   32 1
    24   12   33 1
    25   14   19 ar
    26   14   15 ar
    27   15   16 ar
    28   15   34 1
    29   16   17 ar
    30   16   35 1
    31   17   18 ar
    32   17   20 1
    33   18   19 ar
    34   18   36 1
    35   19   37 1
    36   20   21 2
    37   20   22 2
    38   20   23 1
    39   23   38 1
    40   23   39 1
    41   23   40 1
    42   24   25 3
@<TRIPOS>MOLECULE
ZINC03814549
   48    50     0     0     0
SMALL
USER_CHARGES

@<TRIPOS>ATOM
      1 C1         -3.1121    4.9439    8.2094 C.3       1 <0>        -0.0937
      2 C2         -3.1617    3.9468    7.0804 C.2       1 <0>         0.0618
      3 C3         -3.8664    2.7944    7.0754 C.2       1 <0>        -0.1720
      4 C4         -3.6454    2.1633    5.8401 C.2       1 <0>        -0.1219
      5 C5         -2.7963    2.9538    5.1253 C.2       1 <0>         0.0333
      6 N1         -2.5018    4.0555    5.8905 N.pl3     1 <0>        -0.3926
      7 C6         -1.6643    5.1146    5.5126 C.ar      1 <0>         0.0979
      8 C7         -0.3001    4.9034    5.3648 C.ar      1 <0>        -0.0742
      9 C8          0.5223    5.9465    4.9869 C.ar      1 <0>        -0.1395
     10 C9         -0.0111    7.2053    4.7670 C.ar      1 <0>         0.1164
     11 C10        -1.3709    7.4192    4.9189 C.ar      1 <0>        -0.1411
     12 C11        -2.1973    6.3772    5.2912 C.ar      1 <0>        -0.0804
     13 F1          0.7958    8.2259    4.4032 F         1 <0>        -0.1290
     14 C12        -2.2876    2.6777    3.7650 C.ar      1 <0>         0.0464
     15 C13        -2.3035    1.3760    3.2616 C.ar      1 <0>        -0.1246
     16 C14        -1.8277    1.1251    1.9912 C.ar      1 <0>        -0.0151
     17 C15        -1.3355    2.1605    1.2166 C.ar      1 <0>        -0.6651
     18 C16        -1.3117    3.4523    1.7117 C.ar      1 <0>        -0.0152
     19 C17        -1.7897    3.7176    2.9784 C.ar      1 <0>        -0.1464
     20 S1         -0.7297    1.8315   -0.4050 S.o2      1 <0>         2.4994
     21 O1         -0.3164    0.4724   -0.3688 O.2       1 <0>        -0.9364
     22 O2          0.2091    2.8676   -0.6585 O.2       1 <0>        -0.9375
     23 C18        -2.1727    2.0171   -1.4883 C.3       1 <0>        -0.6506
     24 C19        -4.7382    2.2810    8.1922 C.3       1 <0>         0.1475
     25 O3         -5.3242    1.0106    7.8038 O.3       1 <0>        -0.3510
     26 C20        -6.1334    0.4152    8.6940 C.2       1 <0>         0.4611
     27 O4         -6.3450    0.9383    9.7624 O.2       1 <0>        -0.5154
     28 C21        -6.7779   -0.9057    8.3609 C.3       1 <0>        -0.1469
     29 H1         -3.9061    5.6793    8.0797 H         1 <0>         0.0793
     30 H2         -3.2485    4.4253    9.1583 H         1 <0>         0.0856
     31 H3         -2.1458    5.4482    8.2065 H         1 <0>         0.0702
     32 H4         -4.0686    1.2236    5.5173 H         1 <0>         0.1517
     33 H5          0.1170    3.9230    5.5414 H         1 <0>         0.1408
     34 H6          1.5830    5.7816    4.8679 H         1 <0>         0.1490
     35 H7         -1.7852    8.4016    4.7466 H         1 <0>         0.1488
     36 H8         -3.2576    6.5446    5.4103 H         1 <0>         0.1422
     37 H9         -2.6871    0.5668    3.8654 H         1 <0>         0.1398
     38 H10        -1.8397    0.1184    1.6003 H         1 <0>         0.1469
     39 H11        -0.9221    4.2553    1.1036 H         1 <0>         0.1428
     40 H12        -1.7743    4.7270    3.3622 H         1 <0>         0.1310
     41 H13        -2.9427    1.3042   -1.1932 H         1 <0>         0.1322
     42 H14        -2.5639    3.0308   -1.4020 H         1 <0>         0.1312
     43 H15        -1.8788    1.8277   -2.5207 H         1 <0>         0.1337
     44 H16        -4.1354    2.1438    9.0899 H         1 <0>         0.0784
     45 H17        -5.5317    3.0006    8.3938 H         1 <0>         0.0784
     46 H18        -6.4717   -1.2178    7.3625 H         1 <0>         0.0916
     47 H19        -6.4660   -1.6557    9.0877 H         1 <0>         0.1058
     48 H20        -7.8622   -0.7989    8.3916 H         1 <0>         0.1056
@<TRIPOS>BOND
     1    1    2 1
     2    1   29 1
     3    1   30 1
     4    1   31 1
     5    2    6 1
     6    2    3 2
     7    3    4 1
     8    3   24 1
     9    4    5 2
    10    4   32 1
    11    5    6 1
    12    5   14 1
    13    6    7 1
    14    7   12 ar
    15    7    8 ar
    16    8    9 ar
    17    8   33 1
    18    9   10 ar
    19    9   34 1
    20   10   11 ar
    21   10   13 1
    22   11   12 ar
    23   11   35 1
    24   12   36 1
    25   14   19 ar
    26   14   15 ar
    27   15   16 ar
    28   15   37 1
    29   16   17 ar
    30   16   38 1
    31   17   18 ar
    32   17   20 1
    33   18   19 ar
    34   18   39 1
    35   19   40 1
    36   20   21 2
    37   20   22 2
    38   20   23 1
    39   23   41 1
    40   23   42 1
    41   23   43 1
    42   24   25 1
    43   24   44 1
    44   24   45 1
    45   25   26 1
    46   26   27 2
    47   26   28 1
    48   28   46 1
    49   28   47 1
    50   28   48 1
@<TRIPOS>MOLECULE
ZINC03814550
   45    47     0     0     0
SMALL
USER_CHARGES

@<TRIPOS>ATOM
      1 C1         -3.3105    5.0611    8.0981 C.3       1 <0>        -0.0962
      2 C2         -3.2483    3.9980    7.0318 C.2       1 <0>         0.0794
      3 C3         -3.9217    2.8271    7.0442 C.2       1 <0>        -0.1857
      4 C4         -3.5908    2.1308    5.8701 C.2       1 <0>        -0.1267
      5 C5         -2.7091    2.9023    5.1742 C.2       1 <0>         0.0377
      6 N1         -2.5018    4.0555    5.8905 N.pl3     1 <0>        -0.3922
      7 C6         -1.6643    5.1146    5.5126 C.ar      1 <0>         0.0970
      8 C7         -0.5103    5.3808    6.2370 C.ar      1 <0>        -0.0807
      9 C8          0.3164    6.4208    5.8598 C.ar      1 <0>        -0.1401
     10 C9         -0.0114    7.2055    4.7668 C.ar      1 <0>         0.1166
     11 C10        -1.1648    6.9449    4.0461 C.ar      1 <0>        -0.1404
     12 C11        -1.9910    5.9021    4.4169 C.ar      1 <0>        -0.0738
     13 F1          0.7953    8.2262    4.4029 F         1 <0>        -0.1289
     14 C12        -2.0906    2.5613    3.8755 C.ar      1 <0>         0.0443
     15 C13        -2.6739    1.5960    3.0532 C.ar      1 <0>        -0.1243
     16 C14        -2.0919    1.2828    1.8423 C.ar      1 <0>        -0.0150
     17 C15        -0.9325    1.9232    1.4424 C.ar      1 <0>        -0.6641
     18 C16        -0.3460    2.8770    2.2552 C.ar      1 <0>        -0.0151
     19 C17        -0.9210    3.2036    3.4660 C.ar      1 <0>        -0.1453
     20 S1         -0.1955    1.5172   -0.1058 S.o2      1 <0>         2.4992
     21 O1         -0.6115    0.1837   -0.3667 O.2       1 <0>        -0.9358
     22 O2          1.1816    1.8281    0.0555 O.2       1 <0>        -0.9369
     23 C18        -0.9572    2.6537   -1.2970 C.3       1 <0>        -0.6506
     24 C19        -4.8638    2.3551    8.1216 C.3       1 <0>        -0.0853
     25 C20        -6.2599    2.9255    7.8639 C.3       1 <0>         0.4527
     26 F2         -6.7199    2.4873    6.6175 F         1 <0>        -0.1811
     27 F3         -7.1346    2.4874    8.8641 F         1 <0>        -0.1863
     28 F4         -6.2020    4.3232    7.8746 F         1 <0>        -0.1835
     29 H1         -4.1102    5.7638    7.8644 H         1 <0>         0.0833
     30 H2         -3.5066    4.5957    9.0641 H         1 <0>         0.0863
     31 H3         -2.3597    5.5925    8.1372 H         1 <0>         0.0697
     32 H4         -3.9644    1.1615    5.5744 H         1 <0>         0.1504
     33 H5         -0.2570    4.7723    7.0926 H         1 <0>         0.1431
     34 H6          1.2163    6.6256    6.4207 H         1 <0>         0.1495
     35 H7         -1.4186    7.5576    3.1938 H         1 <0>         0.1486
     36 H8         -2.8908    5.6996    3.8550 H         1 <0>         0.1408
     37 H9         -3.5788    1.0952    3.3644 H         1 <0>         0.1396
     38 H10        -2.5424    0.5364    1.2049 H         1 <0>         0.1473
     39 H11         0.5614    3.3700    1.9392 H         1 <0>         0.1432
     40 H12        -0.4645    3.9511    4.0978 H         1 <0>         0.1312
     41 H13        -2.0358    2.4968   -1.3103 H         1 <0>         0.1320
     42 H14        -0.7433    3.6821   -1.0059 H         1 <0>         0.1310
     43 H15        -0.5503    2.4651   -2.2904 H         1 <0>         0.1339
     44 H16        -4.9090    1.2661    8.1133 H         1 <0>         0.1178
     45 H17        -4.5054    2.6965    9.0928 H         1 <0>         0.1135
@<TRIPOS>BOND
     1    1    2 1
     2    1   29 1
     3    1   30 1
     4    1   31 1
     5    2    6 1
     6    2    3 2
     7    3    4 1
     8    3   24 1
     9    4    5 2
    10    4   32 1
    11    5    6 1
    12    5   14 1
    13    6    7 1
    14    7   12 ar
    15    7    8 ar
    16    8    9 ar
    17    8   33 1
    18    9   10 ar
    19    9   34 1
    20   10   11 ar
    21   10   13 1
    22   11   12 ar
    23   11   35 1
    24   12   36 1
    25   14   19 ar
    26   14   15 ar
    27   15   16 ar
    28   15   37 1
    29   16   17 ar
    30   16   38 1
    31   17   18 ar
    32   17   20 1
    33   18   19 ar
    34   18   39 1
    35   19   40 1
    36   20   21 2
    37   20   22 2
    38   20   23 1
    39   23   41 1
    40   23   42 1
    41   23   43 1
    42   24   25 1
    43   24   44 1
    44   24   45 1
    45   25   26 1
    46   25   27 1
    47   25   28 1
@<TRIPOS>MOLECULE
ZINC03814551
   39    41     0     0     0
SMALL
USER_CHARGES

@<TRIPOS>ATOM
      1 C1          6.1296    0.8701   -0.4012 C.3       1 <0>        -0.0898
      2 C2          4.6515    0.6652   -0.1909 C.2       1 <0>         0.0453
      3 C3          4.0198   -0.5274   -0.1361 C.2       1 <0>        -0.1955
      4 C4          2.6530   -0.2785    0.0716 C.2       1 <0>        -0.1494
      5 C5          2.4907    1.0727    0.1379 C.2       1 <0>         0.0303
      6 N1          3.7239    1.6538   -0.0297 N.pl3     1 <0>        -0.3960
      7 C6          3.9865    3.0303   -0.0314 C.ar      1 <0>         0.1100
      8 C7          3.5191    3.8264   -1.0685 C.ar      1 <0>        -0.1056
      9 C8          3.7745    5.1837   -1.0644 C.ar      1 <0>        -0.1046
     10 C9          4.5051    5.7481   -0.0349 C.ar      1 <0>        -0.1069
     11 C10         4.9764    4.9570    0.9968 C.ar      1 <0>        -0.1066
     12 C11         4.7193    3.6000    1.0012 C.ar      1 <0>        -0.1137
     13 C12         1.2133    1.7868    0.3467 C.ar      1 <0>         0.0474
     14 C13         1.2136    3.1018    0.8145 C.ar      1 <0>        -0.1452
     15 C14         0.0178    3.7607    1.0122 C.ar      1 <0>        -0.0156
     16 C15        -1.1797    3.1247    0.7369 C.ar      1 <0>        -0.6665
     17 C16        -1.1871    1.8212    0.2730 C.ar      1 <0>        -0.0163
     18 C17         0.0015    1.1490    0.0764 C.ar      1 <0>        -0.1269
     19 S1         -2.7023    3.9759    0.9853 S.o2      1 <0>         2.5001
     20 O1         -2.3754    5.3518    0.8462 O.2       1 <0>        -0.9380
     21 O2         -3.6153    3.3543    0.0912 O.2       1 <0>        -0.9371
     22 C18        -3.1642    3.6139    2.7017 C.3       1 <0>        -0.6508
     23 H1          6.3369    0.9513   -1.4682 H         1 <0>         0.0745
     24 H2          6.4447    1.7848    0.1008 H         1 <0>         0.0657
     25 H3          6.6763    0.0222    0.0116 H         1 <0>         0.0850
     26 H4          4.4825   -1.4982   -0.2347 H         1 <0>         0.1450
     27 H5          1.8741   -1.0213    0.1615 H         1 <0>         0.1451
     28 H6          2.9529    3.3853   -1.8755 H         1 <0>         0.1283
     29 H7          3.4071    5.8042   -1.8684 H         1 <0>         0.1346
     30 H8          4.7077    6.8089   -0.0363 H         1 <0>         0.1327
     31 H9          5.5464    5.4007    1.7996 H         1 <0>         0.1344
     32 H10         5.0877    2.9827    1.8072 H         1 <0>         0.1302
     33 H11         2.1479    3.6010    1.0254 H         1 <0>         0.1324
     34 H12         0.0165    4.7767    1.3784 H         1 <0>         0.1422
     35 H13        -2.1254    1.3287    0.0646 H         1 <0>         0.1462
     36 H14        -0.0056    0.1315   -0.2854 H         1 <0>         0.1385
     37 H15        -2.3852    3.9772    3.3720 H         1 <0>         0.1311
     38 H16        -4.1061    4.1097    2.9368 H         1 <0>         0.1334
     39 H17        -3.2790    2.5373    2.8278 H         1 <0>         0.1320
@<TRIPOS>BOND
     1    1    2 1
     2    1   23 1
     3    1   24 1
     4    1   25 1
     5    2    6 1
     6    2    3 2
     7    3    4 1
     8    3   26 1
     9    4    5 2
    10    4   27 1
    11    5    6 1
    12    5   13 1
    13    6    7 1
    14    7   12 ar
    15    7    8 ar
    16    8    9 ar
    17    8   28 1
    18    9   10 ar
    19    9   29 1
    20   10   11 ar
    21   10   30 1
    22   11   12 ar
    23   11   31 1
    24   12   32 1
    25   13   18 ar
    26   13   14 ar
    27   14   15 ar
    28   14   33 1
    29   15   16 ar
    30   15   34 1
    31   16   17 ar
    32   16   19 1
    33   17   18 ar
    34   17   35 1
    35   18   36 1
    36   19   20 2
    37   19   21 2
    38   19   22 1
    39   22   37 1
    40   22   38 1
    41   22   39 1
@<TRIPOS>MOLECULE
ZINC03814552
   42    44     0     0     0
SMALL
USER_CHARGES

@<TRIPOS>ATOM
      1 C1         -3.1060    4.9380    8.2147 C.3       1 <0>        -0.0916
      2 C2         -3.1584    3.9439    7.0832 C.2       1 <0>         0.0463
      3 C3         -3.8632    2.7918    7.0768 C.2       1 <0>        -0.1905
      4 C4         -3.6403    2.1607    5.8418 C.2       1 <0>        -0.1442
      5 C5         -2.7974    2.9555    5.1247 C.2       1 <0>         0.0325
      6 N1         -2.4962    4.0526    5.8944 N.pl3     1 <0>        -0.4049
      7 C6         -1.6535    5.1080    5.5205 C.ar      1 <0>         0.1494
      8 C7         -0.2900    4.8911    5.3742 C.ar      1 <0>        -0.1084
      9 C8          0.5372    5.9321    5.0000 C.ar      1 <0>        -0.0553
     10 C9          0.0101    7.1917    4.7818 C.ar      1 <0>        -0.1741
     11 C10        -1.3467    7.4122    4.9327 C.ar      1 <0>        -0.0544
     12 C11        -2.1797    6.3740    5.3011 C.ar      1 <0>        -0.1149
     13 C12         0.9162    8.3266    4.3793 C.3       1 <0>         0.5093
     14 F1          1.3864    8.9768    5.5252 F         1 <0>        -0.1726
     15 F2          1.9994    7.8227    3.6513 F         1 <0>        -0.1735
     16 F3          0.2038    9.2337    3.5875 F         1 <0>        -0.1730
     17 C13        -2.2917    2.6825    3.7627 C.ar      1 <0>         0.0451
     18 C14        -1.7987    3.7248    2.9760 C.ar      1 <0>        -0.1475
     19 C15        -1.3278    3.4631    1.7060 C.ar      1 <0>        -0.0140
     20 C16        -1.3436    2.1710    1.2116 C.ar      1 <0>        -0.6651
     21 C17        -1.8358    1.1341    1.9842 C.ar      1 <0>        -0.0145
     22 C18        -2.3047    1.3813    3.2579 C.ar      1 <0>        -0.1253
     23 S1         -0.7408    1.8456   -0.4118 S.o2      1 <0>         2.4991
     24 O1         -0.9105    3.0695   -1.1136 O.2       1 <0>        -0.9366
     25 O2         -1.4277    0.6723   -0.8252 O.2       1 <0>        -0.9361
     26 C19         1.0245    1.4913   -0.1913 C.3       1 <0>        -0.6506
     27 H1         -2.2865    4.6815    8.8860 H         1 <0>         0.0762
     28 H2         -2.9464    5.9384    7.8123 H         1 <0>         0.0657
     29 H3         -4.0471    4.9132    8.7640 H         1 <0>         0.0874
     30 H4         -4.4864    2.4220    7.8776 H         1 <0>         0.1474
     31 H5         -4.0596    1.2188    5.5200 H         1 <0>         0.1475
     32 H6          0.1228    3.9085    5.5485 H         1 <0>         0.1427
     33 H7          1.5973    5.7630    4.8821 H         1 <0>         0.1484
     34 H8         -1.7554    8.3972    4.7619 H         1 <0>         0.1494
     35 H9         -3.2393    6.5468    5.4188 H         1 <0>         0.1451
     36 H10        -1.7855    4.7338    3.3609 H         1 <0>         0.1288
     37 H11        -0.9458    4.2686    1.0964 H         1 <0>         0.1432
     38 H12        -1.8494    0.1284    1.5907 H         1 <0>         0.1473
     39 H13        -2.6848    0.5704    3.8615 H         1 <0>         0.1394
     40 H14         1.5156    2.3558    0.2553 H         1 <0>         0.1312
     41 H15         1.1428    0.6278    0.4633 H         1 <0>         0.1319
     42 H16         1.4759    1.2773   -1.1601 H         1 <0>         0.1340
@<TRIPOS>BOND
     1    1    2 1
     2    1   27 1
     3    1   28 1
     4    1   29 1
     5    2    6 1
     6    2    3 2
     7    3    4 1
     8    3   30 1
     9    4    5 2
    10    4   31 1
    11    5    6 1
    12    5   17 1
    13    6    7 1
    14    7   12 ar
    15    7    8 ar
    16    8    9 ar
    17    8   32 1
    18    9   10 ar
    19    9   33 1
    20   10   11 ar
    21   10   13 1
    22   11   12 ar
    23   11   34 1
    24   12   35 1
    25   13   14 1
    26   13   15 1
    27   13   16 1
    28   17   22 ar
    29   17   18 ar
    30   18   19 ar
    31   18   36 1
    32   19   20 ar
    33   19   37 1
    34   20   21 ar
    35   20   23 1
    36   21   22 ar
    37   21   38 1
    38   22   39 1
    39   23   24 2
    40   23   25 2
    41   23   26 1
    42   26   40 1
    43   26   41 1
    44   26   42 1
@<TRIPOS>MOLECULE
ZINC03814553
   39    41     0     0     0
SMALL
USER_CHARGES

@<TRIPOS>ATOM
      1 C1          1.5481    4.4141   -0.0477 C.3       1 <0>        -0.0909
      2 C2          0.6717    3.1887   -0.0129 C.2       1 <0>         0.0470
      3 C3          1.0833    1.9311    0.2583 C.2       1 <0>        -0.1904
      4 C4         -0.0389    1.0892    0.1888 C.2       1 <0>        -0.1437
      5 C5         -1.1113    1.8663   -0.1319 C.2       1 <0>         0.0319
      6 N1         -0.6723    3.1622   -0.2501 N.pl3     1 <0>        -0.4004
      7 C6         -1.4697    4.2710   -0.5673 C.ar      1 <0>         0.1330
      8 C7         -1.3035    4.9217   -1.7825 C.ar      1 <0>        -0.0929
      9 C8         -2.0896    6.0137   -2.0945 C.ar      1 <0>        -0.1108
     10 C9         -3.0431    6.4611   -1.1961 C.ar      1 <0>         0.0819
     11 C10        -3.2111    5.8136    0.0186 C.ar      1 <0>         0.0866
     12 C11        -2.4298    4.7157    0.3309 C.ar      1 <0>        -0.1168
     13 F1         -4.1420    6.2514    0.8944 F         1 <0>        -0.1157
     14 F2         -3.8103    7.5300   -1.5029 F         1 <0>        -0.1175
     15 C12        -2.5013    1.3979   -0.3168 C.ar      1 <0>         0.0452
     16 C13        -2.9078    0.1779    0.2260 C.ar      1 <0>        -0.1251
     17 C14        -4.2079   -0.2506    0.0547 C.ar      1 <0>        -0.0143
     18 C15        -5.1048    0.5203   -0.6634 C.ar      1 <0>        -0.6652
     19 C16        -4.7068    1.7282   -1.2084 C.ar      1 <0>        -0.0145
     20 C17        -3.4111    2.1710   -1.0396 C.ar      1 <0>        -0.1491
     21 S1         -6.7613   -0.0382   -0.8842 S.o2      1 <0>         2.4990
     22 O1         -7.0083   -0.8887    0.2271 O.2       1 <0>        -0.9360
     23 O2         -7.5217    1.1475   -1.0721 O.2       1 <0>        -0.9368
     24 C18        -6.7260   -1.0074   -2.4171 C.3       1 <0>        -0.6502
     25 H1          1.9394    4.5525   -1.0556 H         1 <0>         0.0771
     26 H2          0.9625    5.2879    0.2379 H         1 <0>         0.0655
     27 H3          2.3765    4.2882    0.6495 H         1 <0>         0.0869
     28 H4          2.0942    1.6274    0.4872 H         1 <0>         0.1476
     29 H5         -0.0490    0.0220    0.3543 H         1 <0>         0.1476
     30 H6         -0.5597    4.5737   -2.4840 H         1 <0>         0.1506
     31 H7         -1.9601    6.5191   -3.0400 H         1 <0>         0.1607
     32 H8         -2.5635    4.2080    1.2747 H         1 <0>         0.1536
     33 H9         -2.2073   -0.4273    0.7823 H         1 <0>         0.1399
     34 H10        -4.5251   -1.1921    0.4782 H         1 <0>         0.1474
     35 H11        -5.4118    2.3254   -1.7675 H         1 <0>         0.1431
     36 H12        -3.1015    3.1137   -1.4662 H         1 <0>         0.1284
     37 H13        -6.0314   -1.8399   -2.3048 H         1 <0>         0.1322
     38 H14        -7.7240   -1.3926   -2.6265 H         1 <0>         0.1339
     39 H15        -6.4015   -0.3721   -3.2413 H         1 <0>         0.1313
@<TRIPOS>BOND
     1    1    2 1
     2    1   25 1
     3    1   26 1
     4    1   27 1
     5    2    6 1
     6    2    3 2
     7    3    4 1
     8    3   28 1
     9    4    5 2
    10    4   29 1
    11    5    6 1
    12    5   15 1
    13    6    7 1
    14    7   12 ar
    15    7    8 ar
    16    8    9 ar
    17    8   30 1
    18    9   10 ar
    19    9   31 1
    20   10   11 ar
    21   10   14 1
    22   11   12 ar
    23   11   13 1
    24   12   32 1
    25   15   20 ar
    26   15   16 ar
    27   16   17 ar
    28   16   33 1
    29   17   18 ar
    30   17   34 1
    31   18   19 ar
    32   18   21 1
    33   19   20 ar
    34   19   35 1
    35   20   36 1
    36   21   22 2
    37   21   23 2
    38   21   24 1
    39   24   37 1
    40   24   38 1
    41   24   39 1
@<TRIPOS>MOLECULE
ZINC03814556
   40    42     0     0     0
SMALL
USER_CHARGES

@<TRIPOS>ATOM
      1 C1         -5.9347    3.5819    8.8315 C.3       1 <0>        -0.1486
      2 C2         -4.6181    2.8025    8.8368 C.3       1 <0>        -0.0372
      3 C3         -3.9046    3.0127    7.5262 C.2       1 <0>         0.1033
      4 N1         -3.0363    3.9415    7.2079 N.2       1 <0>        -0.4974
      5 C4         -2.4886    3.9988    6.0065 C.2       1 <0>         0.1295
      6 C5         -2.8712    3.0281    5.0839 C.2       1 <0>        -0.1662
      7 S1         -4.0337    2.0881    6.0627 S.3       1 <0>         0.0834
      8 C6         -2.4409    2.8338    3.6850 C.ar      1 <0>         0.0537
      9 C7         -2.0540    1.5680    3.2394 C.ar      1 <0>        -0.1231
     10 C8         -1.6536    1.3936    1.9310 C.ar      1 <0>        -0.0182
     11 C9         -1.6352    2.4690    1.0605 C.ar      1 <0>        -0.6547
     12 C10        -2.0119    3.7270    1.4967 C.ar      1 <0>        -0.0182
     13 C11        -2.4195    3.9148    2.8011 C.ar      1 <0>        -0.1102
     14 S2         -1.1229    2.2369   -0.6093 S.o2      1 <0>         2.4986
     15 O1         -0.2609    1.1079   -0.5705 O.2       1 <0>        -0.9349
     16 O2         -0.6350    3.5071   -1.0188 O.2       1 <0>        -0.9341
     17 C12        -2.6435    1.8312   -1.5114 C.3       1 <0>        -0.6502
     18 C13        -1.5084    5.0524    5.6554 C.ar      1 <0>        -0.0395
     19 C14        -0.3612    4.7277    4.9317 C.ar      1 <0>        -0.0657
     20 C15         0.5463    5.7134    4.6030 C.ar      1 <0>        -0.1517
     21 C16         0.3248    7.0224    4.9997 C.ar      1 <0>         0.1113
     22 C17        -0.8107    7.3491    5.7234 C.ar      1 <0>        -0.1547
     23 C18        -1.7268    6.3715    6.0524 C.ar      1 <0>        -0.0551
     24 F1          1.2193    7.9832    4.6803 F         1 <0>        -0.1353
     25 H1         -5.7279    4.6435    8.6966 H         1 <0>         0.0635
     26 H2         -6.5634    3.2275    8.0146 H         1 <0>         0.0594
     27 H3         -6.4508    3.4298    9.7794 H         1 <0>         0.0743
     28 H4         -4.8250    1.7408    8.9717 H         1 <0>         0.0950
     29 H5         -3.9894    3.1568    9.6537 H         1 <0>         0.1033
     30 H6         -2.0686    0.7276    3.9176 H         1 <0>         0.1366
     31 H7         -1.3542    0.4153    1.5851 H         1 <0>         0.1487
     32 H8         -1.9906    4.5629    0.8132 H         1 <0>         0.1487
     33 H9         -2.7174    4.8963    3.1390 H         1 <0>         0.1362
     34 H10        -3.0824    0.9247   -1.0945 H         1 <0>         0.1321
     35 H11        -3.3520    2.6542   -1.4177 H         1 <0>         0.1322
     36 H12        -2.4098    1.6710   -2.5639 H         1 <0>         0.1345
     37 H13        -0.1854    3.7069    4.6259 H         1 <0>         0.1319
     38 H14         1.4329    5.4636    4.0391 H         1 <0>         0.1414
     39 H15        -0.9787    8.3708    6.0306 H         1 <0>         0.1407
     40 H16        -2.6114    6.6271    6.6167 H         1 <0>         0.1367
@<TRIPOS>BOND
     1    1    2 1
     2    1   25 1
     3    1   26 1
     4    1   27 1
     5    2    3 1
     6    2   28 1
     7    2   29 1
     8    3    7 1
     9    3    4 2
    10    4    5 1
    11    5    6 2
    12    5   18 1
    13    6    7 1
    14    6    8 1
    15    8   13 ar
    16    8    9 ar
    17    9   10 ar
    18    9   30 1
    19   10   11 ar
    20   10   31 1
    21   11   12 ar
    22   11   14 1
    23   12   13 ar
    24   12   32 1
    25   13   33 1
    26   14   15 2
    27   14   16 2
    28   14   17 1
    29   17   34 1
    30   17   35 1
    31   17   36 1
    32   18   23 ar
    33   18   19 ar
    34   19   20 ar
    35   19   37 1
    36   20   21 ar
    37   20   38 1
    38   21   22 ar
    39   21   24 1
    40   22   23 ar
    41   22   39 1
    42   23   40 1
@<TRIPOS>MOLECULE
ZINC03814557
   46    48     0     0     0
SMALL
USER_CHARGES

@<TRIPOS>ATOM
      1 C1         -5.4521    4.0417    9.1679 C.3       1 <0>        -0.1369
      2 C2         -4.6181    2.8025    8.8368 C.3       1 <0>         0.0231
      3 C3         -5.5367    1.5838    8.7276 C.3       1 <0>        -0.1542
      4 C4         -3.5900    2.5685    9.9454 C.3       1 <0>        -0.1372
      5 C5         -3.9046    3.0127    7.5262 C.2       1 <0>         0.1133
      6 N1         -3.0363    3.9415    7.2079 N.2       1 <0>        -0.4949
      7 C6         -2.4886    3.9988    6.0065 C.2       1 <0>         0.1301
      8 C7         -2.8712    3.0281    5.0839 C.2       1 <0>        -0.1713
      9 S1         -4.0337    2.0881    6.0627 S.3       1 <0>         0.0866
     10 C8         -2.4409    2.8338    3.6850 C.ar      1 <0>         0.0552
     11 C9         -2.0540    1.5680    3.2394 C.ar      1 <0>        -0.1238
     12 C10        -1.6536    1.3936    1.9310 C.ar      1 <0>        -0.0181
     13 C11        -1.6352    2.4690    1.0605 C.ar      1 <0>        -0.6552
     14 C12        -2.0119    3.7270    1.4967 C.ar      1 <0>        -0.0181
     15 C13        -2.4195    3.9148    2.8011 C.ar      1 <0>        -0.1107
     16 S2         -1.1229    2.2369   -0.6093 S.o2      1 <0>         2.4986
     17 O1         -0.2609    1.1079   -0.5705 O.2       1 <0>        -0.9350
     18 O2         -0.6350    3.5071   -1.0188 O.2       1 <0>        -0.9342
     19 C14        -2.6435    1.8312   -1.5114 C.3       1 <0>        -0.6502
     20 C15        -1.5084    5.0524    5.6554 C.ar      1 <0>        -0.0385
     21 C16        -0.3612    4.7277    4.9317 C.ar      1 <0>        -0.0659
     22 C17         0.5463    5.7134    4.6030 C.ar      1 <0>        -0.1517
     23 C18         0.3248    7.0224    4.9997 C.ar      1 <0>         0.1109
     24 C19        -0.8107    7.3491    5.7234 C.ar      1 <0>        -0.1548
     25 C20        -1.7268    6.3715    6.0524 C.ar      1 <0>        -0.0552
     26 F1          1.2193    7.9832    4.6803 F         1 <0>        -0.1355
     27 H1         -6.1846    4.2084    8.3781 H         1 <0>         0.0586
     28 H2         -5.9682    3.8897   10.1159 H         1 <0>         0.0722
     29 H3         -4.7977    4.9099    9.2457 H         1 <0>         0.0682
     30 H4         -4.9426    0.7009    8.4917 H         1 <0>         0.0643
     31 H5         -6.0528    1.4317    9.6756 H         1 <0>         0.0800
     32 H6         -6.2692    1.7505    7.9379 H         1 <0>         0.0642
     33 H7         -2.9356    3.4367   10.0232 H         1 <0>         0.0684
     34 H8         -4.1060    2.4164   10.8934 H         1 <0>         0.0722
     35 H9         -2.9958    1.6856    9.7095 H         1 <0>         0.0585
     36 H10        -2.0686    0.7276    3.9176 H         1 <0>         0.1362
     37 H11        -1.3542    0.4153    1.5851 H         1 <0>         0.1485
     38 H12        -1.9906    4.5629    0.8132 H         1 <0>         0.1484
     39 H13        -2.7174    4.8963    3.1390 H         1 <0>         0.1360
     40 H14        -3.0824    0.9247   -1.0945 H         1 <0>         0.1321
     41 H15        -3.3520    2.6542   -1.4177 H         1 <0>         0.1322
     42 H16        -2.4098    1.6710   -2.5639 H         1 <0>         0.1345
     43 H17        -0.1854    3.7069    4.6259 H         1 <0>         0.1316
     44 H18         1.4329    5.4636    4.0391 H         1 <0>         0.1411
     45 H19        -0.9787    8.3708    6.0306 H         1 <0>         0.1404
     46 H20        -2.6114    6.6271    6.6167 H         1 <0>         0.1365
@<TRIPOS>BOND
     1    1    2 1
     2    1   27 1
     3    1   28 1
     4    1   29 1
     5    2    3 1
     6    2    4 1
     7    2    5 1
     8    3   30 1
     9    3   31 1
    10    3   32 1
    11    4   33 1
    12    4   34 1
    13    4   35 1
    14    5    9 1
    15    5    6 2
    16    6    7 1
    17    7    8 2
    18    7   20 1
    19    8    9 1
    20    8   10 1
    21   10   15 ar
    22   10   11 ar
    23   11   12 ar
    24   11   36 1
    25   12   13 ar
    26   12   37 1
    27   13   14 ar
    28   13   16 1
    29   14   15 ar
    30   14   38 1
    31   15   39 1
    32   16   17 2
    33   16   18 2
    34   16   19 1
    35   19   40 1
    36   19   41 1
    37   19   42 1
    38   20   25 ar
    39   20   21 ar
    40   21   22 ar
    41   21   43 1
    42   22   23 ar
    43   22   44 1
    44   23   24 ar
    45   23   26 1
    46   24   25 ar
    47   24   45 1
    48   25   46 1
@<TRIPOS>MOLECULE
ZINC03814558
   38    40     0     0     0
SMALL
USER_CHARGES

@<TRIPOS>ATOM
      1 C1         -2.6435    1.8312   -1.5114 C.3       1 <0>        -0.6501
      2 S1         -1.1229    2.2369   -0.6093 S.o2      1 <0>         2.4980
      3 O1         -0.2609    1.1079   -0.5705 O.2       1 <0>        -0.9342
      4 O2         -0.6350    3.5071   -1.0188 O.2       1 <0>        -0.9334
      5 C2         -1.6352    2.4690    1.0605 C.ar      1 <0>        -0.6521
      6 C3         -2.0119    3.7270    1.4967 C.ar      1 <0>        -0.0183
      7 C4         -2.4195    3.9148    2.8011 C.ar      1 <0>        -0.1074
      8 C5         -2.4409    2.8338    3.6850 C.ar      1 <0>         0.0467
      9 C6         -2.0540    1.5680    3.2394 C.ar      1 <0>        -0.1202
     10 C7         -1.6536    1.3936    1.9310 C.ar      1 <0>        -0.0185
     11 C8         -2.8712    3.0281    5.0839 C.2       1 <0>        -0.1506
     12 C9         -2.4886    3.9988    6.0065 C.2       1 <0>         0.1257
     13 N1         -3.0363    3.9415    7.2079 N.2       1 <0>        -0.4780
     14 C10        -3.9046    3.0127    7.5262 C.2       1 <0>         0.0742
     15 S2         -4.0337    2.0881    6.0627 S.3       1 <0>         0.1181
     16 C11        -4.6183    2.8026    8.8367 C.3       1 <0>         0.0727
     17 C12        -5.8851    3.5524    8.8312 C.1       1 <0>         0.2009
     18 N2         -6.8626    4.1311    8.8270 N.1       1 <0>        -0.4025
     19 C13        -1.5084    5.0524    5.6554 C.ar      1 <0>        -0.0419
     20 C14        -0.3612    4.7277    4.9317 C.ar      1 <0>        -0.0645
     21 C15         0.5463    5.7134    4.6030 C.ar      1 <0>        -0.1517
     22 C16         0.3248    7.0224    4.9997 C.ar      1 <0>         0.1133
     23 C17        -0.8107    7.3491    5.7234 C.ar      1 <0>        -0.1546
     24 C18        -1.7268    6.3715    6.0524 C.ar      1 <0>        -0.0541
     25 F1          1.2193    7.9832    4.6803 F         1 <0>        -0.1347
     26 H1         -3.0824    0.9247   -1.0945 H         1 <0>         0.1323
     27 H2         -3.3521    2.6542   -1.4177 H         1 <0>         0.1323
     28 H3         -2.4098    1.6710   -2.5639 H         1 <0>         0.1349
     29 H4         -1.9906    4.5629    0.8132 H         1 <0>         0.1495
     30 H5         -2.7174    4.8963    3.1391 H         1 <0>         0.1371
     31 H6         -2.0686    0.7276    3.9176 H         1 <0>         0.1383
     32 H7         -1.3542    0.4153    1.5851 H         1 <0>         0.1498
     33 H8         -4.8251    1.7410    8.9717 H         1 <0>         0.1419
     34 H9         -3.9898    3.1571    9.6536 H         1 <0>         0.1486
     35 H10        -0.1855    3.7069    4.6258 H         1 <0>         0.1329
     36 H11         1.4329    5.4636    4.0391 H         1 <0>         0.1419
     37 H12        -0.9787    8.3708    6.0306 H         1 <0>         0.1410
     38 H13        -2.6114    6.6271    6.6167 H         1 <0>         0.1367
@<TRIPOS>BOND
     1    1    2 1
     2    1   26 1
     3    1   27 1
     4    1   28 1
     5    2    3 2
     6    2    4 2
     7    2    5 1
     8    5   10 ar
     9    5    6 ar
    10    6    7 ar
    11    6   29 1
    12    7    8 ar
    13    7   30 1
    14    8    9 ar
    15    8   11 1
    16    9   10 ar
    17    9   31 1
    18   10   32 1
    19   11   15 1
    20   11   12 2
    21   12   13 1
    22   12   19 1
    23   13   14 2
    24   14   15 1
    25   14   16 1
    26   16   17 1
    27   16   33 1
    28   16   34 1
    29   17   18 3
    30   19   24 ar
    31   19   20 ar
    32   20   21 ar
    33   20   35 1
    34   21   22 ar
    35   21   36 1
    36   22   23 ar
    37   22   25 1
    38   23   24 ar
    39   23   37 1
    40   24   38 1
@<TRIPOS>MOLECULE
ZINC03814559
   41    44     0     0     0
SMALL
USER_CHARGES

@<TRIPOS>ATOM
      1 C1          3.5022    3.0875    2.9314 C.3       1 <0>        -0.6503
      2 S1          3.8692    2.0646    1.4790 S.o2      1 <0>         2.4982
      3 O1          4.7873    1.0363    1.8240 O.2       1 <0>        -0.9337
      4 O2          4.0980    2.8893    0.3447 O.2       1 <0>        -0.9345
      5 C2          2.3624    1.2222    1.1260 C.ar      1 <0>        -0.6533
      6 C3          2.1089   -0.0080    1.7068 C.ar      1 <0>        -0.0181
      7 C4          0.9318   -0.6733    1.4347 C.ar      1 <0>        -0.1080
      8 C5         -0.0057   -0.1023    0.5703 C.ar      1 <0>         0.0512
      9 C6          0.2571    1.1401   -0.0124 C.ar      1 <0>        -0.1219
     10 C7          1.4385    1.7939    0.2689 C.ar      1 <0>        -0.0180
     11 C8         -1.2670   -0.8080    0.2739 C.2       1 <0>        -0.1520
     12 C9         -1.4788   -2.1361   -0.0939 C.2       1 <0>         0.1332
     13 N1         -2.7124   -2.5465   -0.3053 N.2       1 <0>        -0.4796
     14 C10        -3.7462   -1.7241   -0.1872 C.2       1 <0>         0.1990
     15 S2         -2.9469   -0.1952    0.2793 S.3       1 <0>         0.0716
     16 C11        -5.1766   -1.9984   -0.3885 C.2       1 <0>        -0.1163
     17 C12        -5.7950   -3.1813   -0.7494 C.2       1 <0>        -0.0826
     18 C13        -7.1648   -3.1912   -0.8766 C.2       1 <0>        -0.1646
     19 C14        -7.8622   -2.0484   -0.6458 C.2       1 <0>        -0.1467
     20 S3         -6.5689   -0.8930   -0.2230 S.3       1 <0>         0.1008
     21 C15        -0.3377   -3.0697   -0.2397 C.ar      1 <0>        -0.0421
     22 C16         0.8278   -2.6549   -0.8835 C.ar      1 <0>        -0.0647
     23 C17         1.8892   -3.5266   -1.0129 C.ar      1 <0>        -0.1515
     24 C18         1.7951   -4.8154   -0.5129 C.ar      1 <0>         0.1126
     25 C19         0.6373   -5.2340    0.1229 C.ar      1 <0>        -0.1546
     26 C20        -0.4278   -4.3682    0.2615 C.ar      1 <0>        -0.0541
     27 F1          2.8354   -5.6670   -0.6462 F         1 <0>        -0.1350
     28 H1          3.1948    2.4474    3.7584 H         1 <0>         0.1323
     29 H2          4.3933    3.6467    3.2166 H         1 <0>         0.1346
     30 H3          2.6979    3.7832    2.6920 H         1 <0>         0.1322
     31 H4          2.8343   -0.4480    2.3750 H         1 <0>         0.1493
     32 H5          0.7333   -1.6313    1.8922 H         1 <0>         0.1374
     33 H6         -0.4632    1.5875   -0.6813 H         1 <0>         0.1372
     34 H7          1.6428    2.7544   -0.1806 H         1 <0>         0.1493
     35 H8         -5.2167   -4.0759   -0.9269 H         1 <0>         0.1471
     36 H9         -7.6803   -4.0978   -1.1574 H         1 <0>         0.1464
     37 H10        -8.9279   -1.8824   -0.7000 H         1 <0>         0.1965
     38 H11         0.9007   -1.6517   -1.2769 H         1 <0>         0.1325
     39 H12         2.7937   -3.2050   -1.5077 H         1 <0>         0.1417
     40 H13         0.5684   -6.2397    0.5103 H         1 <0>         0.1410
     41 H14        -1.3299   -4.6954    0.7569 H         1 <0>         0.1373
@<TRIPOS>BOND
     1    1    2 1
     2    1   28 1
     3    1   29 1
     4    1   30 1
     5    2    3 2
     6    2    4 2
     7    2    5 1
     8    5   10 ar
     9    5    6 ar
    10    6    7 ar
    11    6   31 1
    12    7    8 ar
    13    7   32 1
    14    8    9 ar
    15    8   11 1
    16    9   10 ar
    17    9   33 1
    18   10   34 1
    19   11   15 1
    20   11   12 2
    21   12   13 1
    22   12   21 1
    23   13   14 2
    24   14   15 1
    25   14   16 1
    26   16   20 1
    27   16   17 2
    28   17   18 1
    29   17   35 1
    30   18   19 2
    31   18   36 1
    32   19   20 1
    33   19   37 1
    34   21   26 ar
    35   21   22 ar
    36   22   23 ar
    37   22   38 1
    38   23   24 ar
    39   23   39 1
    40   24   25 ar
    41   24   27 1
    42   25   26 ar
    43   25   40 1
    44   26   41 1
@<TRIPOS>MOLECULE
ZINC03814560
   43    46     0     0     0
SMALL
USER_CHARGES

@<TRIPOS>ATOM
      1 C1         -2.6523    1.8611   -1.5180 C.3       1 <0>        -0.6500
      2 S1         -1.1296    2.2544   -0.6140 S.o2      1 <0>         2.4981
      3 O1         -0.2741    1.1203   -0.5796 O.2       1 <0>        -0.9343
      4 O2         -0.6343    3.5235   -1.0183 O.2       1 <0>        -0.9336
      5 C2         -1.6409    2.4828    1.0566 C.ar      1 <0>        -0.6529
      6 C3         -2.0105    3.7413    1.4977 C.ar      1 <0>        -0.0182
      7 C4         -2.4172    3.9263    2.8026 C.ar      1 <0>        -0.1079
      8 C5         -2.4451    2.8417    3.6824 C.ar      1 <0>         0.0497
      9 C6         -2.0653    1.5752    3.2317 C.ar      1 <0>        -0.1214
     10 C7         -1.6657    1.4039    1.9228 C.ar      1 <0>        -0.0180
     11 C8         -2.8743    3.0328    5.0815 C.2       1 <0>        -0.1482
     12 C9         -2.4834    3.9978    6.0096 C.2       1 <0>         0.1295
     13 N1         -3.0141    3.9692    7.2144 N.2       1 <0>        -0.4826
     14 C10        -3.8949    3.0446    7.5624 C.2       1 <0>         0.1591
     15 S2         -4.0342    2.0866    6.0600 S.3       1 <0>         0.0688
     16 C11        -4.5841    2.8543    8.8561 C.ar      1 <0>        -0.0742
     17 C12        -4.3386    3.7212    9.9278 C.ar      1 <0>        -0.0248
     18 C13        -5.0098    3.4999   11.1172 C.ar      1 <0>        -0.1699
     19 C14        -5.8937    2.4395   11.2089 C.ar      1 <0>         0.1196
     20 N2         -6.1053    1.6386   10.1823 N.ar      1 <0>        -0.4774
     21 C15        -5.4949    1.8111    9.0281 C.ar      1 <0>         0.1338
     22 C16        -1.4936    5.0383    5.6453 C.ar      1 <0>        -0.0425
     23 C17        -0.3543    4.6957    4.9173 C.ar      1 <0>        -0.0651
     24 C18         0.5620    5.6689    4.5764 C.ar      1 <0>        -0.1513
     25 C19         0.3573    6.9831    4.9651 C.ar      1 <0>         0.1126
     26 C20        -0.7703    7.3274    5.6930 C.ar      1 <0>        -0.1546
     27 C21        -1.6951    6.3624    6.0342 C.ar      1 <0>        -0.0547
     28 F1          1.2604    7.9317    4.6336 F         1 <0>        -0.1348
     29 H1         -3.0965    0.9555   -1.1049 H         1 <0>         0.1323
     30 H2         -3.3561    2.6878   -1.4212 H         1 <0>         0.1324
     31 H3         -2.4193    1.7038   -2.5711 H         1 <0>         0.1348
     32 H4         -1.9842    4.5797    0.8175 H         1 <0>         0.1495
     33 H5         -2.7093    4.9083    3.1445 H         1 <0>         0.1372
     34 H6         -2.0848    0.7321    3.9065 H         1 <0>         0.1374
     35 H7         -1.3717    0.4253    1.5729 H         1 <0>         0.1495
     36 H8         -3.6428    4.5413    9.8287 H         1 <0>         0.1487
     37 H9         -4.8458    4.1484   11.9651 H         1 <0>         0.1473
     38 H10        -6.4192    2.2647   12.1361 H         1 <0>         0.1658
     39 H11        -5.6976    1.1369    8.2091 H         1 <0>         0.1589
     40 H12        -0.1917    3.6709    4.6178 H         1 <0>         0.1323
     41 H13         1.4425    5.4054    4.0092 H         1 <0>         0.1418
     42 H14        -0.9253    8.3530    5.9939 H         1 <0>         0.1410
     43 H15        -2.5735    6.6317    6.6019 H         1 <0>         0.1369
@<TRIPOS>BOND
     1    1    2 1
     2    1   29 1
     3    1   30 1
     4    1   31 1
     5    2    3 2
     6    2    4 2
     7    2    5 1
     8    5   10 ar
     9    5    6 ar
    10    6    7 ar
    11    6   32 1
    12    7    8 ar
    13    7   33 1
    14    8    9 ar
    15    8   11 1
    16    9   10 ar
    17    9   34 1
    18   10   35 1
    19   11   15 1
    20   11   12 2
    21   12   13 1
    22   12   22 1
    23   13   14 2
    24   14   15 1
    25   14   16 1
    26   16   21 ar
    27   16   17 ar
    28   17   18 ar
    29   17   36 1
    30   18   19 ar
    31   18   37 1
    32   19   20 ar
    33   19   38 1
    34   20   21 ar
    35   21   39 1
    36   22   27 ar
    37   22   23 ar
    38   23   24 ar
    39   23   40 1
    40   24   25 ar
    41   24   41 1
    42   25   26 ar
    43   25   28 1
    44   26   27 ar
    45   26   42 1
    46   27   43 1
@<TRIPOS>MOLECULE
ZINC03814561
   44    47     0     0     0
SMALL
USER_CHARGES

@<TRIPOS>ATOM
      1 C1         -4.8563    4.0051   -1.4460 C.3       1 <0>        -0.6503
      2 S1         -3.1137    4.0281   -0.9429 S.o2      1 <0>         2.4991
      3 O1         -2.4486    2.8703   -1.4290 O.2       1 <0>        -0.9350
      4 O2         -2.5616    5.3211   -1.1495 O.2       1 <0>        -0.9345
      5 C2         -3.1450    3.8271    0.8074 C.ar      1 <0>        -0.6547
      6 C3         -3.2064    4.9400    1.6273 C.ar      1 <0>        -0.0173
      7 C4         -3.2370    4.7900    2.9981 C.ar      1 <0>        -0.1105
      8 C5         -3.1942    3.5110    3.5584 C.ar      1 <0>         0.0554
      9 C6         -3.1264    2.3922    2.7246 C.ar      1 <0>        -0.1210
     10 C7         -3.1023    2.5572    1.3555 C.ar      1 <0>        -0.0185
     11 C8         -3.2209    3.3426    5.0243 C.2       1 <0>        -0.1651
     12 C9         -2.4826    3.9974    6.0100 C.2       1 <0>         0.1193
     13 N1         -2.6849    3.6760    7.2710 N.2       1 <0>        -0.4721
     14 C10        -3.5593    2.7446    7.6175 C.2       1 <0>         0.1350
     15 S2         -4.2032    2.2368    6.0295 S.3       1 <0>         0.1099
     16 C11        -3.9119    2.2533    8.9660 C.ar      1 <0>        -0.0059
     17 C12        -3.2851    2.7878   10.0931 C.ar      1 <0>        -0.0581
     18 C13        -3.6187    2.3249   11.3488 C.ar      1 <0>        -0.1115
     19 C14        -4.5724    1.3326   11.4937 C.ar      1 <0>        -0.0865
     20 C15        -5.1979    0.7979   10.3820 C.ar      1 <0>        -0.1051
     21 C16        -4.8778    1.2561    9.1190 C.ar      1 <0>        -0.0234
     22 Cl1        -5.6688    0.5893    7.7250 Cl        1 <0>        -0.0345
     23 C17        -1.4928    5.0376    5.6457 C.ar      1 <0>        -0.0572
     24 C18        -0.2626    4.6731    5.0994 C.ar      1 <0>        -0.0664
     25 C19         0.6552    5.6463    4.7616 C.ar      1 <0>        -0.1262
     26 C20         0.3583    6.9826    4.9633 C.ar      1 <0>        -0.0802
     27 C21        -0.8592    7.3526    5.5049 C.ar      1 <0>        -0.1536
     28 C22        -1.7898    6.3879    5.8425 C.ar      1 <0>         0.1199
     29 F1         -2.9813    6.7500    6.3664 F         1 <0>        -0.1328
     30 H1         -5.3054    3.0548   -1.1573 H         1 <0>         0.1322
     31 H2         -5.3868    4.8214   -0.9558 H         1 <0>         0.1323
     32 H3         -4.9240    4.1253   -2.5272 H         1 <0>         0.1346
     33 H4         -3.2351    5.9284    1.1928 H         1 <0>         0.1485
     34 H5         -3.2894    5.6593    3.6368 H         1 <0>         0.1325
     35 H6         -3.0927    1.4006    3.1511 H         1 <0>         0.1365
     36 H7         -3.0502    1.6931    0.7096 H         1 <0>         0.1489
     37 H8         -2.5403    3.5620    9.9820 H         1 <0>         0.1464
     38 H9         -3.1345    2.7381   12.2213 H         1 <0>         0.1409
     39 H10        -4.8293    0.9738   12.4794 H         1 <0>         0.1415
     40 H11        -5.9413    0.0238   10.5022 H         1 <0>         0.1444
     41 H12        -0.0285    3.6306    4.9414 H         1 <0>         0.1310
     42 H13         1.6079    5.3643    4.3381 H         1 <0>         0.1351
     43 H14         1.0806    7.7400    4.6969 H         1 <0>         0.1372
     44 H15        -1.0849    8.3973    5.6603 H         1 <0>         0.1402
@<TRIPOS>BOND
     1    1    2 1
     2    1   30 1
     3    1   31 1
     4    1   32 1
     5    2    3 2
     6    2    4 2
     7    2    5 1
     8    5   10 ar
     9    5    6 ar
    10    6    7 ar
    11    6   33 1
    12    7    8 ar
    13    7   34 1
    14    8    9 ar
    15    8   11 1
    16    9   10 ar
    17    9   35 1
    18   10   36 1
    19   11   15 1
    20   11   12 2
    21   12   13 1
    22   12   23 1
    23   13   14 2
    24   14   15 1
    25   14   16 1
    26   16   21 ar
    27   16   17 ar
    28   17   18 ar
    29   17   37 1
    30   18   19 ar
    31   18   38 1
    32   19   20 ar
    33   19   39 1
    34   20   21 ar
    35   20   40 1
    36   21   22 1
    37   23   28 ar
    38   23   24 ar
    39   24   25 ar
    40   24   41 1
    41   25   26 ar
    42   25   42 1
    43   26   27 ar
    44   26   43 1
    45   27   28 ar
    46   27   44 1
    47   28   29 1
@<TRIPOS>MOLECULE
ZINC03814562
   44    47     0     0     0
SMALL
USER_CHARGES

@<TRIPOS>ATOM
      1 C1          0.6666    2.5283   -0.5917 C.3       1 <0>        -0.6497
      2 S1         -1.1267    2.2555   -0.6130 S.o2      1 <0>         2.4983
      3 O1         -1.7714    3.2957   -1.3352 O.2       1 <0>        -0.9347
      4 O2         -1.4111    0.8925   -0.8969 O.2       1 <0>        -0.9352
      5 C2         -1.6392    2.4833    1.0573 C.ar      1 <0>        -0.6541
      6 C3         -1.6697    1.4031    1.9217 C.ar      1 <0>        -0.0178
      7 C4         -2.0644    1.5752    3.2320 C.ar      1 <0>        -0.1229
      8 C5         -2.4448    2.8414    3.6828 C.ar      1 <0>         0.0514
      9 C6         -2.4169    3.9262    2.8032 C.ar      1 <0>        -0.1099
     10 C7         -2.0146    3.7405    1.4970 C.ar      1 <0>        -0.0180
     11 C8         -2.8737    3.0323    5.0821 C.2       1 <0>        -0.1679
     12 C9         -2.4826    3.9974    6.0101 C.2       1 <0>         0.1167
     13 N1         -3.0126    3.9682    7.2154 N.2       1 <0>        -0.4759
     14 C10        -3.8932    3.0435    7.5635 C.2       1 <0>         0.1361
     15 S2         -4.0330    2.0859    6.0609 S.3       1 <0>         0.1147
     16 C11        -4.5812    2.8523    8.8574 C.ar      1 <0>        -0.0072
     17 C12        -4.3297    3.7215    9.9204 C.ar      1 <0>        -0.0582
     18 C13        -4.9754    3.5378   11.1253 C.ar      1 <0>        -0.1119
     19 C14        -5.8712    2.4947   11.2825 C.ar      1 <0>        -0.0860
     20 C15        -6.1258    1.6293   10.2342 C.ar      1 <0>        -0.1049
     21 C16        -5.4903    1.8045    9.0205 C.ar      1 <0>        -0.0234
     22 Cl1        -5.8157    0.7215    7.7034 Cl        1 <0>        -0.0333
     23 C17        -1.4930    5.0378    5.6456 C.ar      1 <0>         0.0037
     24 C18        -1.6943    6.3622    6.0346 C.ar      1 <0>        -0.0960
     25 C19        -0.7697    7.3277    5.6933 C.ar      1 <0>        -0.0897
     26 C20         0.3566    6.9855    4.9668 C.ar      1 <0>        -0.1444
     27 C21         0.5634    5.6721    4.5774 C.ar      1 <0>         0.1002
     28 C22        -0.3542    4.6959    4.9177 C.ar      1 <0>        -0.1329
     29 F1          1.6654    5.3442    3.8680 F         1 <0>        -0.1368
     30 H1          0.8763    3.5384   -0.2398 H         1 <0>         0.1328
     31 H2          1.1361    1.8060    0.0762 H         1 <0>         0.1325
     32 H3          1.0649    2.4044   -1.5987 H         1 <0>         0.1347
     33 H4         -1.3799    0.4238    1.5705 H         1 <0>         0.1492
     34 H5         -2.0839    0.7320    3.9066 H         1 <0>         0.1367
     35 H6         -2.7100    4.9079    3.1450 H         1 <0>         0.1362
     36 H7         -1.9923    4.5784    0.8160 H         1 <0>         0.1486
     37 H8         -3.6306    4.5359    9.7997 H         1 <0>         0.1468
     38 H9         -4.7817    4.2101   11.9481 H         1 <0>         0.1410
     39 H10        -6.3736    2.3557   12.2284 H         1 <0>         0.1416
     40 H11        -6.8263    0.8175   10.3635 H         1 <0>         0.1445
     41 H12        -2.5730    6.6316    6.6018 H         1 <0>         0.1339
     42 H13        -0.9255    8.3532    5.9944 H         1 <0>         0.1385
     43 H14         1.0776    7.7449    4.7024 H         1 <0>         0.1388
     44 H15        -0.1911    3.6713    4.6174 H         1 <0>         0.1343
@<TRIPOS>BOND
     1    1    2 1
     2    1   30 1
     3    1   31 1
     4    1   32 1
     5    2    3 2
     6    2    4 2
     7    2    5 1
     8    5   10 ar
     9    5    6 ar
    10    6    7 ar
    11    6   33 1
    12    7    8 ar
    13    7   34 1
    14    8    9 ar
    15    8   11 1
    16    9   10 ar
    17    9   35 1
    18   10   36 1
    19   11   15 1
    20   11   12 2
    21   12   13 1
    22   12   23 1
    23   13   14 2
    24   14   15 1
    25   14   16 1
    26   16   21 ar
    27   16   17 ar
    28   17   18 ar
    29   17   37 1
    30   18   19 ar
    31   18   38 1
    32   19   20 ar
    33   19   39 1
    34   20   21 ar
    35   20   40 1
    36   21   22 1
    37   23   28 ar
    38   23   24 ar
    39   24   25 ar
    40   24   41 1
    41   25   26 ar
    42   25   42 1
    43   26   27 ar
    44   26   43 1
    45   27   28 ar
    46   27   29 1
    47   28   44 1
@<TRIPOS>MOLECULE
ZINC03814563
   44    47     0     0     0
SMALL
USER_CHARGES

@<TRIPOS>ATOM
      1 C1         -4.8619    4.0134   -1.4431 C.3       1 <0>        -0.6502
      2 S1         -3.1189    4.0347   -0.9412 S.o2      1 <0>         2.4985
      3 O1         -2.4549    2.8769   -1.4290 O.2       1 <0>        -0.9346
      4 O2         -2.5661    5.3275   -1.1469 O.2       1 <0>        -0.9340
      5 C2         -3.1490    3.8318    0.8088 C.ar      1 <0>        -0.6541
      6 C3         -3.2091    4.9440    1.6300 C.ar      1 <0>        -0.0173
      7 C4         -3.2379    4.7926    3.0006 C.ar      1 <0>        -0.1117
      8 C5         -3.1955    3.5130    3.5596 C.ar      1 <0>         0.0534
      9 C6         -3.1296    2.3950    2.7246 C.ar      1 <0>        -0.1202
     10 C7         -3.1068    2.5613    1.3556 C.ar      1 <0>        -0.0179
     11 C8         -3.2207    3.3431    5.0253 C.2       1 <0>        -0.1629
     12 C9         -2.4811    3.9965    6.0109 C.2       1 <0>         0.1174
     13 N1         -2.6822    3.6740    7.2717 N.2       1 <0>        -0.4722
     14 C10        -3.5567    2.7426    7.6183 C.2       1 <0>         0.1363
     15 S2         -4.2025    2.2368    6.0304 S.3       1 <0>         0.1143
     16 C11        -3.9076    2.2497    8.9665 C.ar      1 <0>        -0.0068
     17 C12        -3.2795    2.7828   10.0935 C.ar      1 <0>        -0.0577
     18 C13        -3.6118    2.3187   11.3491 C.ar      1 <0>        -0.1115
     19 C14        -4.5657    1.3265   11.4940 C.ar      1 <0>        -0.0859
     20 C15        -5.1925    0.7931   10.3824 C.ar      1 <0>        -0.1050
     21 C16        -4.8733    1.2522    9.1195 C.ar      1 <0>        -0.0232
     22 Cl1        -5.6655    0.5866    7.7256 Cl        1 <0>        -0.0343
     23 C17        -1.4911    5.0367    5.6465 C.ar      1 <0>        -0.0676
     24 C18        -0.2591    4.6711    5.1052 C.ar      1 <0>        -0.0360
     25 C19         0.6579    5.6434    4.7634 C.ar      1 <0>        -0.1595
     26 C20         0.3615    6.9820    4.9660 C.ar      1 <0>         0.1424
     27 C21        -0.8583    7.3521    5.5077 C.ar      1 <0>        -0.1920
     28 C22        -1.7862    6.3866    5.8492 C.ar      1 <0>         0.1531
     29 F1         -2.9757    6.7476    6.3784 F         1 <0>        -0.1227
     30 F2          1.2655    7.9293    4.6336 F         1 <0>        -0.1258
     31 H1         -5.3114    3.0631   -1.1550 H         1 <0>         0.1323
     32 H2         -5.3915    4.8296   -0.9516 H         1 <0>         0.1323
     33 H3         -4.9303    4.1348   -2.5241 H         1 <0>         0.1347
     34 H4         -3.2376    5.9328    1.1965 H         1 <0>         0.1488
     35 H5         -3.2885    5.6613    3.6403 H         1 <0>         0.1323
     36 H6         -3.0962    1.4029    3.1500 H         1 <0>         0.1372
     37 H7         -3.0562    1.6979    0.7088 H         1 <0>         0.1493
     38 H8         -2.5346    3.5569    9.9824 H         1 <0>         0.1466
     39 H9         -3.1267    2.7308   12.2215 H         1 <0>         0.1411
     40 H10        -4.8216    0.9667   12.4796 H         1 <0>         0.1416
     41 H11        -5.9363    0.0193   10.5026 H         1 <0>         0.1445
     42 H12        -0.0244    3.6283    4.9506 H         1 <0>         0.1437
     43 H13         1.6106    5.3606    4.3407 H         1 <0>         0.1493
     44 H14        -1.0846    8.3966    5.6637 H         1 <0>         0.1542
@<TRIPOS>BOND
     1    1    2 1
     2    1   31 1
     3    1   32 1
     4    1   33 1
     5    2    3 2
     6    2    4 2
     7    2    5 1
     8    5   10 ar
     9    5    6 ar
    10    6    7 ar
    11    6   34 1
    12    7    8 ar
    13    7   35 1
    14    8    9 ar
    15    8   11 1
    16    9   10 ar
    17    9   36 1
    18   10   37 1
    19   11   15 1
    20   11   12 2
    21   12   13 1
    22   12   23 1
    23   13   14 2
    24   14   15 1
    25   14   16 1
    26   16   21 ar
    27   16   17 ar
    28   17   18 ar
    29   17   38 1
    30   18   19 ar
    31   18   39 1
    32   19   20 ar
    33   19   40 1
    34   20   21 ar
    35   20   41 1
    36   21   22 1
    37   23   28 ar
    38   23   24 ar
    39   24   25 ar
    40   24   42 1
    41   25   26 ar
    42   25   43 1
    43   26   27 ar
    44   26   30 1
    45   27   28 ar
    46   27   44 1
    47   28   29 1
@<TRIPOS>MOLECULE
ZINC03814564
   43    46     0     0     0
SMALL
USER_CHARGES

@<TRIPOS>ATOM
      1 C1         -3.7578    7.7803   -2.4478 C.3       1 <0>        -0.6500
      2 S1         -2.2145    8.1660   -3.3196 S.o2      1 <0>         2.4990
      3 O1         -1.6852    9.4002   -2.8549 O.2       1 <0>        -0.9344
      4 O2         -2.3638    7.9199   -4.7111 O.2       1 <0>        -0.9348
      5 C2         -1.0665    6.9484   -2.7682 C.ar      1 <0>        -0.6532
      6 C3         -0.9452    5.7530   -3.4519 C.ar      1 <0>        -0.0193
      7 C4         -0.0439    4.7981   -3.0198 C.ar      1 <0>        -0.1182
      8 C5          0.7364    5.0387   -1.9044 C.ar      1 <0>        -0.0241
      9 C6          0.6114    6.2319   -1.2177 C.ar      1 <0>        -0.1176
     10 C7         -0.2868    7.1886   -1.6523 C.ar      1 <0>        -0.0184
     11 C8          1.7190    3.9976   -1.4335 C.3       1 <0>        -0.0314
     12 H1          1.7530    3.1512   -2.1195 H         1 <0>         0.1357
     13 C9          1.4018    3.5389    0.0073 C.3       1 <0>         0.1642
     14 H2          0.4951    4.0410    0.3449 H         1 <0>         0.1310
     15 N1          2.4687    3.8345    0.9358 N.2       1 <0>        -0.4962
     16 C10         3.5609    4.4230    0.5635 C.2       1 <0>         0.2595
     17 S2          3.3869    4.7197   -1.1846 S.3       1 <0>        -0.1928
     18 C11         4.7179    4.7764    1.4165 C.ar      1 <0>        -0.0368
     19 C12         5.8287    5.4123    0.8620 C.ar      1 <0>        -0.0678
     20 C13         6.9037    5.7396    1.6620 C.ar      1 <0>        -0.1181
     21 C14         6.8824    5.4390    3.0127 C.ar      1 <0>        -0.0793
     22 C15         5.7850    4.8088    3.5696 C.ar      1 <0>        -0.1180
     23 C16         4.6997    4.4800    2.7802 C.ar      1 <0>         0.0082
     24 Cl1         3.3193    3.6951    3.4818 Cl        1 <0>        -0.0267
     25 C17         1.1597    2.0514    0.0020 C.2       1 <0>        -0.1461
     26 C18        -0.0167    1.3780    0.0096 C.2       1 <0>        -0.1371
     27 C19         0.0021   -0.0041    0.0020 C.2       1 <0>        -0.1594
     28 C20         1.1962   -0.6452   -0.0128 C.2       1 <0>        -0.1679
     29 S3          2.3478    0.7191   -0.0165 S.3       1 <0>         0.0669
     30 H3         -3.5922    7.8401   -1.3721 H         1 <0>         0.1319
     31 H4         -4.5273    8.4961   -2.7372 H         1 <0>         0.1347
     32 H5         -4.0814    6.7731   -2.7101 H         1 <0>         0.1320
     33 H6         -1.5543    5.5654   -4.3237 H         1 <0>         0.1477
     34 H7          0.0509    3.8642   -3.5540 H         1 <0>         0.1372
     35 H8          1.2179    6.4180   -0.3437 H         1 <0>         0.1328
     36 H9         -0.3814    8.1226   -1.1184 H         1 <0>         0.1469
     37 H10         5.8471    5.6476   -0.1919 H         1 <0>         0.1391
     38 H11         7.7640    6.2320    1.2332 H         1 <0>         0.1397
     39 H12         7.7265    5.6982    3.6345 H         1 <0>         0.1399
     40 H13         5.7742    4.5772    4.6244 H         1 <0>         0.1422
     41 H14        -0.9546    1.9134    0.0170 H         1 <0>         0.1337
     42 H15        -0.9210   -0.5647    0.0082 H         1 <0>         0.1369
     43 H16         1.3986   -1.7060   -0.0202 H         1 <0>         0.1880
@<TRIPOS>BOND
     1    1    2 1
     2    1   30 1
     3    1   31 1
     4    1   32 1
     5    2    3 2
     6    2    4 2
     7    2    5 1
     8    5   10 ar
     9    5    6 ar
    10    6    7 ar
    11    6   33 1
    12    7    8 ar
    13    7   34 1
    14    8    9 ar
    15    8   11 1
    16    9   10 ar
    17    9   35 1
    18   10   36 1
    19   11   12 1
    20   11   17 1
    21   11   13 1
    22   13   14 1
    23   13   15 1
    24   13   25 1
    25   15   16 2
    26   16   17 1
    27   16   18 1
    28   18   23 ar
    29   18   19 ar
    30   19   20 ar
    31   19   37 1
    32   20   21 ar
    33   20   38 1
    34   21   22 ar
    35   21   39 1
    36   22   23 ar
    37   22   40 1
    38   23   24 1
    39   25   29 1
    40   25   26 2
    41   26   27 1
    42   26   41 1
    43   27   28 2
    44   27   42 1
    45   28   29 1
    46   28   43 1
@<TRIPOS>MOLECULE
ZINC03814565
   43    46     0     0     0
SMALL
USER_CHARGES

@<TRIPOS>ATOM
      1 C1          8.3728   -1.2192   -5.5220 C.3       1 <0>        -0.6500
      2 S1          8.4404    0.5309   -5.0496 S.o2      1 <0>         2.4991
      3 O1          7.7515    1.3233   -6.0071 O.2       1 <0>        -0.9347
      4 O2          9.7552    0.8756   -4.6353 O.2       1 <0>        -0.9351
      5 C2          7.4642    0.6433   -3.5871 C.ar      1 <0>        -0.6539
      6 C3          8.0527    0.4703   -2.3483 C.ar      1 <0>        -0.0197
      7 C4          7.2869    0.5589   -1.2008 C.ar      1 <0>        -0.1195
      8 C5          5.9325    0.8200   -1.2922 C.ar      1 <0>        -0.0230
      9 C6          5.3429    0.9873   -2.5313 C.ar      1 <0>        -0.1177
     10 C7          6.1097    0.9039   -3.6785 C.ar      1 <0>        -0.0189
     11 C8          5.0975    0.9161   -0.0414 C.3       1 <0>        -0.0278
     12 H1          5.7177    0.8368    0.8515 H         1 <0>         0.1337
     13 C9          3.9711   -0.1413   -0.0369 C.3       1 <0>         0.1331
     14 H2          4.0694   -0.7608   -0.9284 H         1 <0>         0.1201
     15 N1          2.6517    0.4476   -0.0213 N.2       1 <0>        -0.4900
     16 C10         2.4712    1.7302   -0.0122 C.2       1 <0>         0.2497
     17 S2          4.0987    2.4548   -0.0311 S.3       1 <0>        -0.2007
     18 C11         1.1765    2.4477    0.0040 C.ar      1 <0>        -0.0350
     19 C12         1.1486    3.8423    0.0112 C.ar      1 <0>        -0.0692
     20 C13        -0.0610    4.5054    0.0259 C.ar      1 <0>        -0.1179
     21 C14        -1.2459    3.7905    0.0329 C.ar      1 <0>        -0.0807
     22 C15        -1.2263    2.4080    0.0209 C.ar      1 <0>        -0.1178
     23 C16        -0.0215    1.7317    0.0116 C.ar      1 <0>         0.0059
     24 Cl1         0.0021   -0.0041    0.0020 Cl        1 <0>        -0.0273
     25 C17         4.1285   -1.0147    1.1810 C.2       1 <0>        -0.1173
     26 C18         4.7997   -2.2203    1.0976 C.2       1 <0>        -0.1489
     27 C19         4.9284   -2.9794    2.2132 C.2       1 <0>        -0.1678
     28 S3          4.0737   -1.9933    3.4315 S.3       1 <0>         0.0524
     29 C20         3.6093   -0.6325    2.3733 C.2       1 <0>        -0.1443
     30 H3          7.3373   -1.5063   -5.7053 H         1 <0>         0.1318
     31 H4          8.9586   -1.3739   -6.4281 H         1 <0>         0.1346
     32 H5          8.7817   -1.8290   -4.7164 H         1 <0>         0.1319
     33 H6          9.1108    0.2663   -2.2768 H         1 <0>         0.1472
     34 H7          7.7466    0.4237   -0.2330 H         1 <0>         0.1366
     35 H8          4.2840    1.1870   -2.6029 H         1 <0>         0.1321
     36 H9          5.6499    1.0387   -4.6464 H         1 <0>         0.1463
     37 H10         2.0723    4.4019    0.0051 H         1 <0>         0.1388
     38 H11        -0.0833    5.5851    0.0315 H         1 <0>         0.1392
     39 H12        -2.1900    4.3148    0.0440 H         1 <0>         0.1395
     40 H13        -2.1544    1.8558    0.0227 H         1 <0>         0.1417
     41 H14         5.2187   -2.5504    0.1586 H         1 <0>         0.1347
     42 H15         5.4168   -3.9352    2.3328 H         1 <0>         0.1889
     43 H16         3.0581    0.2630    2.6194 H         1 <0>         0.1798
@<TRIPOS>BOND
     1    1    2 1
     2    1   30 1
     3    1   31 1
     4    1   32 1
     5    2    3 2
     6    2    4 2
     7    2    5 1
     8    5   10 ar
     9    5    6 ar
    10    6    7 ar
    11    6   33 1
    12    7    8 ar
    13    7   34 1
    14    8    9 ar
    15    8   11 1
    16    9   10 ar
    17    9   35 1
    18   10   36 1
    19   11   12 1
    20   11   17 1
    21   11   13 1
    22   13   14 1
    23   13   15 1
    24   13   25 1
    25   15   16 2
    26   16   17 1
    27   16   18 1
    28   18   23 ar
    29   18   19 ar
    30   19   20 ar
    31   19   37 1
    32   20   21 ar
    33   20   38 1
    34   21   22 ar
    35   21   39 1
    36   22   23 ar
    37   22   40 1
    38   23   24 1
    39   25   29 2
    40   25   26 1
    41   26   27 2
    42   26   41 1
    43   27   28 1
    44   27   42 1
    45   28   29 1
    46   29   43 1
@<TRIPOS>MOLECULE
ZINC03814567
   40    42     0     0     0
SMALL
USER_CHARGES

@<TRIPOS>ATOM
      1 C1          2.4219    3.2987    0.5431 C.3       1 <0>        -0.0687
      2 C2          1.6801    2.0169    0.2643 C.2       1 <0>         0.1005
      3 N1          2.1524    0.7956    0.2034 N.2       1 <0>        -0.4997
      4 C3          1.3721   -0.2394   -0.0539 C.2       1 <0>         0.1355
      5 C4          0.0188    0.0173   -0.2595 C.2       1 <0>        -0.1693
      6 S1         -0.0110    1.7925   -0.0565 S.3       1 <0>         0.0862
      7 C5         -1.0839   -0.9168   -0.5618 C.ar      1 <0>         0.0590
      8 C6         -0.9365   -1.8739   -1.5680 C.ar      1 <0>        -0.1124
      9 C7         -1.9689   -2.7469   -1.8415 C.ar      1 <0>        -0.0118
     10 C8         -3.1523   -2.6690   -1.1287 C.ar      1 <0>        -0.6707
     11 C9         -3.3073   -1.7194   -0.1343 C.ar      1 <0>        -0.0118
     12 C10        -2.2813   -0.8435    0.1534 C.ar      1 <0>        -0.1247
     13 S2         -4.4682   -3.7838   -1.4894 S.o2      1 <0>         2.7000
     14 O1         -3.8775   -4.9294   -2.0877 O.2       1 <0>        -0.9589
     15 O2         -5.2665   -3.8630   -0.3165 O.2       1 <0>        -0.9600
     16 N2         -5.4070   -3.0728   -2.6537 N.pl3     1 <0>        -1.2495
     17 C11         1.9146   -1.6162   -0.1213 C.ar      1 <0>        -0.0392
     18 C12         3.1226   -1.8602   -0.7746 C.ar      1 <0>        -0.0510
     19 C13         3.6259   -3.1429   -0.8356 C.ar      1 <0>        -0.1834
     20 C14         2.9324   -4.1914   -0.2480 C.ar      1 <0>         0.1092
     21 C15         1.7281   -3.9531    0.4041 C.ar      1 <0>         0.0728
     22 C16         1.2214   -2.6705    0.4733 C.ar      1 <0>        -0.0933
     23 F1          1.0558   -4.9763    0.9754 F         1 <0>        -0.1264
     24 O3          3.4320   -5.4543   -0.3099 O.3       1 <0>        -0.3060
     25 C17         4.6741   -5.6277   -0.9949 C.3       1 <0>         0.0240
     26 H1          2.4255    3.4904    1.6161 H         1 <0>         0.0958
     27 H2          3.4481    3.2096    0.1865 H         1 <0>         0.0982
     28 H3          1.9287    4.1232    0.0283 H         1 <0>         0.0908
     29 H4         -0.0150   -1.9329   -2.1282 H         1 <0>         0.1378
     30 H5         -1.8547   -3.4903   -2.6167 H         1 <0>         0.1497
     31 H6         -4.2339   -1.6637    0.4177 H         1 <0>         0.1502
     32 H7         -2.4037   -0.1026    0.9296 H         1 <0>         0.1385
     33 H8         -5.1726   -2.1966   -2.9975 H         1 <0>         0.4169
     34 H9         -6.1913   -3.5326   -2.9919 H         1 <0>         0.4222
     35 H10         3.6637   -1.0451   -1.2320 H         1 <0>         0.1375
     36 H11         4.5611   -3.3316   -1.3417 H         1 <0>         0.1441
     37 H12         0.2880   -2.4844    0.9838 H         1 <0>         0.1416
     38 H13         4.5663   -5.3043   -2.0302 H         1 <0>         0.0601
     39 H14         5.4447   -5.0315   -0.5064 H         1 <0>         0.0599
     40 H15         4.9586   -6.6796   -0.9706 H         1 <0>         0.1062
@<TRIPOS>BOND
     1    1    2 1
     2    1   26 1
     3    1   27 1
     4    1   28 1
     5    2    6 1
     6    2    3 2
     7    3    4 1
     8    4    5 2
     9    4   17 1
    10    5    6 1
    11    5    7 1
    12    7   12 ar
    13    7    8 ar
    14    8    9 ar
    15    8   29 1
    16    9   10 ar
    17    9   30 1
    18   10   11 ar
    19   10   13 1
    20   11   12 ar
    21   11   31 1
    22   12   32 1
    23   13   14 2
    24   13   15 2
    25   13   16 1
    26   16   33 1
    27   16   34 1
    28   17   22 ar
    29   17   18 ar
    30   18   19 ar
    31   18   35 1
    32   19   20 ar
    33   19   36 1
    34   20   21 ar
    35   20   24 1
    36   21   22 ar
    37   21   23 1
    38   22   37 1
    39   24   25 1
    40   25   38 1
    41   25   39 1
    42   25   40 1
@<TRIPOS>MOLECULE
ZINC03814568
   43    46     0     0     0
SMALL
USER_CHARGES

@<TRIPOS>ATOM
      1 C1         -6.9494   -3.5320   -0.9468 C.ar      1 <0>        -0.1119
      2 C2         -7.8778   -2.5210   -0.7704 C.ar      1 <0>        -0.0856
      3 C3         -7.4667   -1.2517   -0.4060 C.ar      1 <0>        -0.1052
      4 C4         -6.1255   -0.9870   -0.2096 C.ar      1 <0>        -0.0230
      5 C5         -5.1833   -2.0019   -0.3913 C.ar      1 <0>        -0.0080
      6 C6         -5.6062   -3.2803   -0.7597 C.ar      1 <0>        -0.0578
      7 C7         -3.7458   -1.7253   -0.1886 C.2       1 <0>         0.1383
      8 N1         -2.7135   -2.5455   -0.3063 N.2       1 <0>        -0.4780
      9 C8         -1.4798   -2.1367   -0.0940 C.2       1 <0>         0.1255
     10 C9         -1.2675   -0.8081    0.2738 C.2       1 <0>        -0.1761
     11 S1         -2.9477   -0.1960    0.2788 S.3       1 <0>         0.1113
     12 C10        -0.0059   -0.1020    0.5702 C.ar      1 <0>         0.0605
     13 C11         0.9315   -0.6729    1.4344 C.ar      1 <0>        -0.1118
     14 C12         2.1086   -0.0075    1.7065 C.ar      1 <0>        -0.0121
     15 C13         2.3620    1.2227    1.1257 C.ar      1 <0>        -0.6716
     16 C14         1.4380    1.7941    0.2686 C.ar      1 <0>        -0.0119
     17 C15         0.2567    1.1401   -0.0126 C.ar      1 <0>        -0.1249
     18 S2          3.8682    2.0657    1.4795 S.o2      1 <0>         2.7003
     19 O1          4.8042    1.0743    1.8798 O.2       1 <0>        -0.9596
     20 O2          4.1083    2.9437    0.3883 O.2       1 <0>        -0.9605
     21 N2          3.5951    3.0210    2.8043 N.pl3     1 <0>        -1.2496
     22 C16        -0.3394   -3.0712   -0.2391 C.ar      1 <0>        -0.0405
     23 C17         0.8268   -2.6574   -0.8824 C.ar      1 <0>        -0.0666
     24 C18         1.8877   -3.5297   -1.0108 C.ar      1 <0>        -0.1516
     25 C19         1.7922   -4.8186   -0.5111 C.ar      1 <0>         0.1108
     26 C20         0.6337   -5.2361    0.1242 C.ar      1 <0>        -0.1544
     27 C21        -0.4307   -4.3695    0.2622 C.ar      1 <0>        -0.0559
     28 F1          2.8318   -5.6711   -0.6442 F         1 <0>        -0.1354
     29 Cl1        -5.6115    0.6048    0.2549 Cl        1 <0>        -0.0341
     30 H1         -7.2774   -4.5208   -1.2315 H         1 <0>         0.1411
     31 H2         -8.9281   -2.7240   -0.9184 H         1 <0>         0.1416
     32 H3         -8.1964   -0.4671   -0.2703 H         1 <0>         0.1445
     33 H4         -4.8832   -4.0705   -0.8982 H         1 <0>         0.1470
     34 H5          0.7330   -1.6308    1.8919 H         1 <0>         0.1379
     35 H6          2.8340   -0.4474    2.3748 H         1 <0>         0.1497
     36 H7          1.6422    2.7546   -0.1809 H         1 <0>         0.1498
     37 H8         -0.4638    1.5874   -0.6814 H         1 <0>         0.1381
     38 H9          2.7205    3.0300    3.2237 H         1 <0>         0.4171
     39 H10         4.3097    3.5716    3.1609 H         1 <0>         0.4223
     40 H11         0.9005   -1.6544   -1.2761 H         1 <0>         0.1316
     41 H12         2.7927   -3.2089   -1.5052 H         1 <0>         0.1411
     42 H13         0.5639   -6.2418    0.5117 H         1 <0>         0.1405
     43 H14        -1.3333   -4.6960    0.7572 H         1 <0>         0.1368
@<TRIPOS>BOND
     1    1    6 ar
     2    1    2 ar
     3    1   30 1
     4    2    3 ar
     5    2   31 1
     6    3    4 ar
     7    3   32 1
     8    4    5 ar
     9    4   29 1
    10    5    6 ar
    11    5    7 1
    12    6   33 1
    13    7   11 1
    14    7    8 2
    15    8    9 1
    16    9   10 2
    17    9   22 1
    18   10   11 1
    19   10   12 1
    20   12   17 ar
    21   12   13 ar
    22   13   14 ar
    23   13   34 1
    24   14   15 ar
    25   14   35 1
    26   15   16 ar
    27   15   18 1
    28   16   17 ar
    29   16   36 1
    30   17   37 1
    31   18   19 2
    32   18   20 2
    33   18   21 1
    34   21   38 1
    35   21   39 1
    36   22   27 ar
    37   22   23 ar
    38   23   24 ar
    39   23   40 1
    40   24   25 ar
    41   24   41 1
    42   25   26 ar
    43   25   28 1
    44   26   27 ar
    45   26   42 1
    46   27   43 1
@<TRIPOS>MOLECULE
ZINC03814570
   36    38     0     0     0
SMALL
USER_CHARGES

@<TRIPOS>ATOM
      1 C1         -5.3496    3.1078    8.3591 C.3       1 <0>        -0.0692
      2 C2         -4.5330    3.2725    7.1034 C.2       1 <0>         0.1012
      3 N1         -3.6541    4.2013    6.8158 N.2       1 <0>        -0.4997
      4 C3         -3.0101    4.2156    5.6618 C.2       1 <0>         0.1297
      5 C4         -3.3021    3.1992    4.7555 C.2       1 <0>        -0.1687
      6 S1         -4.5288    2.2832    5.6770 S.3       1 <0>         0.0860
      7 C5         -2.7553    2.9513    3.4066 C.ar      1 <0>         0.0599
      8 C6         -2.3160    1.6741    3.0515 C.ar      1 <0>        -0.1244
      9 C7         -1.8067    1.4495    1.7895 C.ar      1 <0>        -0.0121
     10 C8         -1.7309    2.4861    0.8759 C.ar      1 <0>        -0.6711
     11 C9         -2.1595    3.7552    1.2227 C.ar      1 <0>        -0.0118
     12 C10        -2.6755    3.9929    2.4797 C.ar      1 <0>        -0.1113
     13 S2         -1.0789    2.1901   -0.7340 S.o2      1 <0>         2.7003
     14 O1         -0.2377    1.0497   -0.6282 O.2       1 <0>        -0.9603
     15 O2         -0.6093    3.4408   -1.2182 O.2       1 <0>        -0.9593
     16 N2         -2.3483    1.7536   -1.7037 N.pl3     1 <0>        -1.2495
     17 C11        -2.0187    5.2697    5.3450 C.ar      1 <0>        -0.0243
     18 C12        -0.8114    4.9338    4.7327 C.ar      1 <0>        -0.0831
     19 C13         0.1061    5.9202    4.4351 C.ar      1 <0>        -0.1085
     20 C14        -0.1651    7.2402    4.7532 C.ar      1 <0>        -0.0242
     21 C15        -1.3597    7.5786    5.3659 C.ar      1 <0>        -0.1109
     22 C16        -2.2866    6.6010    5.6632 C.ar      1 <0>        -0.0718
     23 Cl1         0.9972    8.4754    4.3830 Cl        1 <0>        -0.0631
     24 H1         -6.2915    3.6460    8.2532 H         1 <0>         0.0960
     25 H2         -5.5523    2.0496    8.5245 H         1 <0>         0.0908
     26 H3         -4.7956    3.5086    9.2080 H         1 <0>         0.0987
     27 H4         -2.3752    0.8640    3.7633 H         1 <0>         0.1382
     28 H5         -1.4666    0.4623    1.5135 H         1 <0>         0.1500
     29 H6         -2.0933    4.5607    0.5063 H         1 <0>         0.1500
     30 H7         -3.0131    4.9831    2.7478 H         1 <0>         0.1375
     31 H8         -3.2448    1.7049   -1.3365 H         1 <0>         0.4171
     32 H9         -2.1954    1.5466   -2.6390 H         1 <0>         0.4223
     33 H10        -0.5968    3.9038    4.4885 H         1 <0>         0.1312
     34 H11         1.0397    5.6617    3.9576 H         1 <0>         0.1393
     35 H12        -1.5662    8.6098    5.6119 H         1 <0>         0.1388
     36 H13        -3.2179    6.8659    6.1418 H         1 <0>         0.1362
@<TRIPOS>BOND
     1    1    2 1
     2    1   24 1
     3    1   25 1
     4    1   26 1
     5    2    6 1
     6    2    3 2
     7    3    4 1
     8    4    5 2
     9    4   17 1
    10    5    6 1
    11    5    7 1
    12    7   12 ar
    13    7    8 ar
    14    8    9 ar
    15    8   27 1
    16    9   10 ar
    17    9   28 1
    18   10   11 ar
    19   10   13 1
    20   11   12 ar
    21   11   29 1
    22   12   30 1
    23   13   14 2
    24   13   15 2
    25   13   16 1
    26   16   31 1
    27   16   32 1
    28   17   22 ar
    29   17   18 ar
    30   18   19 ar
    31   18   33 1
    32   19   20 ar
    33   19   34 1
    34   20   21 ar
    35   20   23 1
    36   21   22 ar
    37   21   35 1
    38   22   36 1
@<TRIPOS>MOLECULE
ZINC03814571
   43    45     0     0     0
SMALL
USER_CHARGES

@<TRIPOS>ATOM
      1 C1         -6.8720    4.5325    6.5741 C.3       1 <0>        -0.1730
      2 C2         -6.0544    3.3081    6.9903 C.3       1 <0>         0.1029
      3 N1         -4.7327    3.3666    6.3610 N.pl3     1 <0>        -0.3255
      4 C3         -3.6346    3.9494    6.8849 C.2       1 <0>        -0.0031
      5 C4         -2.6135    3.7901    5.9968 C.2       1 <0>        -0.1089
      6 C5         -3.1243    3.0758    4.8840 C.2       1 <0>         0.1128
      7 N2         -4.3964    2.8319    5.1116 N.2       1 <0>        -0.2306
      8 C6         -2.3615    2.6797    3.6754 C.ar      1 <0>         0.0449
      9 C7         -1.0631    2.1883    3.7976 C.ar      1 <0>        -0.1097
     10 C8         -0.3581    1.8208    2.6695 C.ar      1 <0>        -0.0149
     11 C9         -0.9380    1.9393    1.4192 C.ar      1 <0>        -0.6678
     12 C10        -2.2243    2.4317    1.2915 C.ar      1 <0>        -0.0162
     13 C11        -2.9407    2.7970    2.4131 C.ar      1 <0>        -0.1107
     14 S1         -0.0319    1.4682   -0.0166 S.o2      1 <0>         2.7003
     15 O1          1.3447    1.5574    0.3243 O.2       1 <0>        -0.9597
     16 O2         -0.5951    2.1862   -1.1059 O.2       1 <0>        -0.9606
     17 N3         -0.3486   -0.1339   -0.2916 N.pl3     1 <0>        -1.2495
     18 C12        -1.2212    4.2749    6.1643 C.ar      1 <0>        -0.0487
     19 C13        -0.3896    3.6950    7.1204 C.ar      1 <0>        -0.0631
     20 C14         0.9059    4.1460    7.2698 C.ar      1 <0>        -0.1517
     21 C15         1.3770    5.1806    6.4779 C.ar      1 <0>         0.1117
     22 C16         0.5522    5.7632    5.5295 C.ar      1 <0>        -0.1513
     23 C17        -0.7432    5.3152    5.3700 C.ar      1 <0>        -0.0633
     24 F1          2.6442    5.6229    6.6314 F         1 <0>        -0.1354
     25 C18        -3.5517    4.6511    8.2160 C.3       1 <0>         0.5419
     26 F2         -4.4676    4.0766    9.1039 F         1 <0>        -0.1704
     27 F3         -2.2578    4.5211    8.7319 F         1 <0>        -0.1522
     28 F4         -3.8527    6.0069    8.0480 F         1 <0>        -0.1617
     29 H1         -6.9858    4.5420    5.4901 H         1 <0>         0.0706
     30 H2         -7.8554    4.4889    7.0424 H         1 <0>         0.0883
     31 H3         -6.3574    5.4387    6.8935 H         1 <0>         0.0634
     32 H4         -6.5690    2.4018    6.6710 H         1 <0>         0.1107
     33 H5         -5.9406    3.2985    8.0743 H         1 <0>         0.1137
     34 H6         -0.6092    2.0956    4.7733 H         1 <0>         0.1390
     35 H7          0.6480    1.4395    2.7631 H         1 <0>         0.1496
     36 H8         -2.6703    2.5266    0.3125 H         1 <0>         0.1495
     37 H9         -3.9464    3.1775    2.3126 H         1 <0>         0.1395
     38 H10        -0.9432   -0.6194    0.3014 H         1 <0>         0.4172
     39 H11         0.0606   -0.5867   -1.0455 H         1 <0>         0.4221
     40 H12        -0.7575    2.8914    7.7411 H         1 <0>         0.1346
     41 H13         1.5522    3.6949    8.0082 H         1 <0>         0.1410
     42 H14         0.9235    6.5695    4.9143 H         1 <0>         0.1408
     43 H15        -1.3857    5.7705    4.6309 H         1 <0>         0.1333
@<TRIPOS>BOND
     1    1    2 1
     2    1   29 1
     3    1   30 1
     4    1   31 1
     5    2    3 1
     6    2   32 1
     7    2   33 1
     8    3    7 1
     9    3    4 1
    10    4    5 2
    11    4   25 1
    12    5    6 1
    13    5   18 1
    14    6    7 2
    15    6    8 1
    16    8   13 ar
    17    8    9 ar
    18    9   10 ar
    19    9   34 1
    20   10   11 ar
    21   10   35 1
    22   11   12 ar
    23   11   14 1
    24   12   13 ar
    25   12   36 1
    26   13   37 1
    27   14   15 2
    28   14   16 2
    29   14   17 1
    30   17   38 1
    31   17   39 1
    32   18   23 ar
    33   18   19 ar
    34   19   20 ar
    35   19   40 1
    36   20   21 ar
    37   20   41 1
    38   21   22 ar
    39   21   24 1
    40   22   23 ar
    41   22   42 1
    42   23   43 1
    43   25   26 1
    44   25   27 1
    45   25   28 1
@<TRIPOS>MOLECULE
ZINC03814574
   40    43     0     0     0
SMALL
USER_CHARGES

@<TRIPOS>ATOM
      1 C1         -5.0663    4.6189    8.7396 C.ar      1 <0>        -0.1314
      2 C2         -5.7775    3.4387    8.5783 C.ar      1 <0>        -0.0862
      3 C3         -5.5364    2.6136    7.5006 C.ar      1 <0>        -0.1067
      4 C4         -4.5729    2.9610    6.5615 C.ar      1 <0>         0.0610
      5 C5         -3.8542    4.1562    6.7260 C.ar      1 <0>        -0.1169
      6 C6         -4.1068    4.9817    7.8200 C.ar      1 <0>        -0.0656
      7 C7         -2.9306    4.2257    5.5815 C.2       1 <0>        -0.1058
      8 C8         -3.1650    3.0977    4.8453 C.2       1 <0>         0.0743
      9 O1         -4.1353    2.3695    5.4308 O.3       1 <0>        -0.1797
     10 C9         -2.4664    2.7365    3.5970 C.ar      1 <0>         0.0312
     11 C10        -1.0735    2.8160    3.5239 C.ar      1 <0>        -0.1056
     12 C11        -0.4272    2.4772    2.3536 C.ar      1 <0>        -0.0146
     13 C12        -1.1551    2.0593    1.2533 C.ar      1 <0>        -0.6706
     14 C13        -2.5353    1.9831    1.3168 C.ar      1 <0>        -0.0207
     15 C14        -3.1947    2.3137    2.4822 C.ar      1 <0>        -0.1130
     16 S1         -0.3208    1.6290   -0.2378 S.o2      1 <0>         2.7020
     17 O2          0.9258    2.3106   -0.2170 O.2       1 <0>        -0.9553
     18 O3         -1.2609    1.7924   -1.2908 O.2       1 <0>        -0.9538
     19 N1          0.0230    0.0111   -0.1572 N.pl3     1 <0>        -1.2432
     20 C15        -1.9505    5.2955    5.2887 C.ar      1 <0>        -0.0342
     21 C16        -0.8633    5.5007    6.1388 C.ar      1 <0>        -0.0740
     22 C17         0.0497    6.4962    5.8590 C.ar      1 <0>        -0.1505
     23 C18        -0.1169    7.2981    4.7413 C.ar      1 <0>         0.1064
     24 C19        -1.1977    7.1019    3.8967 C.ar      1 <0>        -0.1492
     25 C20        -2.1137    6.1060    4.1648 C.ar      1 <0>        -0.0704
     26 F1          0.7775    8.2748    4.4742 F         1 <0>        -0.1360
     27 H1         -5.2657    5.2557    9.5888 H         1 <0>         0.1338
     28 H2         -6.5277    3.1633    9.3048 H         1 <0>         0.1391
     29 H3         -6.0966    1.6974    7.3860 H         1 <0>         0.1354
     30 H4         -3.5536    5.9006    7.9461 H         1 <0>         0.1297
     31 H5         -0.5042    3.1424    4.3817 H         1 <0>         0.1392
     32 H6          0.6496    2.5378    2.2957 H         1 <0>         0.1496
     33 H7         -3.0973    1.6604    0.4528 H         1 <0>         0.1495
     34 H8         -4.2717    2.2499    2.5316 H         1 <0>         0.1405
     35 H9          0.9436   -0.2918   -0.1983 H         1 <0>         0.4236
     36 H10        -0.6962   -0.6338   -0.0687 H         1 <0>         0.4196
     37 H11        -0.7346    4.8786    7.0122 H         1 <0>         0.1352
     38 H12         0.8936    6.6534    6.5143 H         1 <0>         0.1405
     39 H13        -1.3234    7.7301    3.0272 H         1 <0>         0.1403
     40 H14        -2.9560    5.9542    3.5061 H         1 <0>         0.1324
@<TRIPOS>BOND
     1    1    6 ar
     2    1    2 ar
     3    1   27 1
     4    2    3 ar
     5    2   28 1
     6    3    4 ar
     7    3   29 1
     8    4    9 1
     9    4    5 ar
    10    5    6 ar
    11    5    7 1
    12    6   30 1
    13    7    8 2
    14    7   20 1
    15    8    9 1
    16    8   10 1
    17   10   15 ar
    18   10   11 ar
    19   11   12 ar
    20   11   31 1
    21   12   13 ar
    22   12   32 1
    23   13   14 ar
    24   13   16 1
    25   14   15 ar
    26   14   33 1
    27   15   34 1
    28   16   17 2
    29   16   18 2
    30   16   19 1
    31   19   35 1
    32   19   36 1
    33   20   25 ar
    34   20   21 ar
    35   21   22 ar
    36   21   37 1
    37   22   23 ar
    38   22   38 1
    39   23   24 ar
    40   23   26 1
    41   24   25 ar
    42   24   39 1
    43   25   40 1
@<TRIPOS>MOLECULE
ZINC03814575
   42    45     0     0     0
SMALL
USER_CHARGES

@<TRIPOS>ATOM
      1 C1         -1.2222    1.7479    0.0174 C.ar      1 <0>        -0.1086
      2 C2         -0.0126    1.0758    0.0080 C.ar      1 <0>        -0.1195
      3 C3          1.1740    1.7780    0.0004 C.ar      1 <0>        -0.0895
      4 C4          1.1571    3.1756    0.0081 C.ar      1 <0>        -0.0672
      5 C5         -0.0687    3.8424    0.0234 C.ar      1 <0>        -0.0932
      6 C6         -1.2478    3.1320    0.0308 C.ar      1 <0>        -0.1008
      7 C7          0.2378    5.3201    0.0284 C.3       1 <0>        -0.0483
      8 C8          1.7447    5.4259    0.0146 C.2       1 <0>        -0.0943
      9 C9          2.2485    4.1708    0.0030 C.2       1 <0>        -0.0198
     10 C10         3.6908    3.8408   -0.0133 C.ar      1 <0>        -0.0548
     11 C11         4.4749    4.1829   -1.1160 C.ar      1 <0>        -0.0705
     12 C12         5.8199    3.8778   -1.1238 C.ar      1 <0>        -0.1507
     13 C13         6.3907    3.2229   -0.0440 C.ar      1 <0>         0.1049
     14 C14         5.6154    2.8763    1.0512 C.ar      1 <0>        -0.1513
     15 C15         4.2706    3.1814    1.0715 C.ar      1 <0>        -0.0737
     16 F1          7.7074    2.9209   -0.0593 F         1 <0>        -0.1367
     17 C16         2.5253    6.6723    0.0142 C.ar      1 <0>         0.0345
     18 C17         3.3373    6.9937    1.1071 C.ar      1 <0>        -0.1210
     19 C18         4.0704    8.1614    1.0966 C.ar      1 <0>        -0.0142
     20 C19         3.9953    9.0203    0.0139 C.ar      1 <0>        -0.6751
     21 C20         3.1899    8.7123   -1.0688 C.ar      1 <0>        -0.0150
     22 C21         2.4553    7.5455   -1.0764 C.ar      1 <0>        -0.1272
     23 S1          4.9306   10.5136    0.0135 S.o2      1 <0>         2.6996
     24 O1          6.0235   10.3085    0.8982 O.2       1 <0>        -0.9616
     25 O2          5.1106   10.8797   -1.3477 O.2       1 <0>        -0.9620
     26 N1          3.9816   11.6858    0.6973 N.pl3     1 <0>        -1.2498
     27 H1         -2.1479    1.1916    0.0184 H         1 <0>         0.1284
     28 H2          0.0021   -0.0041    0.0020 H         1 <0>         0.1273
     29 H3          2.1154    1.2487   -0.0118 H         1 <0>         0.1227
     30 H4         -2.1929    3.6545    0.0426 H         1 <0>         0.1258
     31 H5         -0.1638    5.7847    0.9289 H         1 <0>         0.1068
     32 H6         -0.1810    5.7955   -0.8586 H         1 <0>         0.1068
     33 H7          4.0301    4.6890   -1.9600 H         1 <0>         0.1320
     34 H8          6.4284    4.1457   -1.9749 H         1 <0>         0.1390
     35 H9          6.0651    2.3660    1.8902 H         1 <0>         0.1393
     36 H10         3.6671    2.9103    1.9251 H         1 <0>         0.1343
     37 H11         3.3932    6.3268    1.9547 H         1 <0>         0.1351
     38 H12         4.7015    8.4086    1.9374 H         1 <0>         0.1458
     39 H13         3.1370    9.3875   -1.9100 H         1 <0>         0.1465
     40 H14         1.8279    7.3062   -1.9222 H         1 <0>         0.1373
     41 H15         3.0879   11.4679    1.0051 H         1 <0>         0.4168
     42 H16         4.3194   12.5904    0.7900 H         1 <0>         0.4218
@<TRIPOS>BOND
     1    1    6 ar
     2    1    2 ar
     3    1   27 1
     4    2    3 ar
     5    2   28 1
     6    3    4 ar
     7    3   29 1
     8    4    9 1
     9    4    5 ar
    10    5    6 ar
    11    5    7 1
    12    6   30 1
    13    7    8 1
    14    7   31 1
    15    7   32 1
    16    8    9 2
    17    8   17 1
    18    9   10 1
    19   10   15 ar
    20   10   11 ar
    21   11   12 ar
    22   11   33 1
    23   12   13 ar
    24   12   34 1
    25   13   14 ar
    26   13   16 1
    27   14   15 ar
    28   14   35 1
    29   15   36 1
    30   17   22 ar
    31   17   18 ar
    32   18   19 ar
    33   18   37 1
    34   19   20 ar
    35   19   38 1
    36   20   21 ar
    37   20   23 1
    38   21   22 ar
    39   21   39 1
    40   22   40 1
    41   23   24 2
    42   23   25 2
    43   23   26 1
    44   26   41 1
    45   26   42 1
@<TRIPOS>MOLECULE
ZINC03814576
   45    48     0     0     0
SMALL
USER_CHARGES

@<TRIPOS>ATOM
      1 C1          0.9486    8.9077    3.5714 C.3       1 <0>         0.0238
      2 O1          1.2622    8.0647    4.6818 O.3       1 <0>        -0.3071
      3 C2          0.3710    7.0829    4.9825 C.ar      1 <0>         0.1046
      4 C3         -0.7806    6.9368    4.2222 C.ar      1 <0>        -0.1778
      5 C4         -1.6868    5.9416    4.5232 C.ar      1 <0>        -0.0667
      6 C5         -1.4456    5.0804    5.5942 C.ar      1 <0>        -0.0327
      7 C6         -0.2899    5.2326    6.3611 C.ar      1 <0>        -0.1002
      8 C7          0.6158    6.2274    6.0506 C.ar      1 <0>         0.0731
      9 F1          1.7380    6.3731    6.7887 F         1 <0>        -0.1283
     10 C8         -2.4166    4.0117    5.9200 C.2       1 <0>        -0.1029
     11 C9         -3.2460    3.9044    7.1317 C.ar      1 <0>        -0.1168
     12 C10        -3.3953    4.6842    8.2770 C.ar      1 <0>        -0.0655
     13 C11        -4.2833    4.2942    9.2553 C.ar      1 <0>        -0.1313
     14 C12        -5.0252    3.1319    9.1022 C.ar      1 <0>        -0.0863
     15 C13        -4.8863    2.3521    7.9740 C.ar      1 <0>        -0.1068
     16 C14        -3.9961    2.7276    6.9752 C.ar      1 <0>         0.0611
     17 O2         -3.6610    2.1803    5.7885 O.3       1 <0>        -0.1797
     18 C15        -2.7289    2.9207    5.1575 C.2       1 <0>         0.0756
     19 C16        -2.1399    2.6057    3.8421 C.ar      1 <0>         0.0290
     20 C17        -0.7562    2.6696    3.6591 C.ar      1 <0>        -0.1045
     21 C18        -0.2127    2.3742    2.4264 C.ar      1 <0>        -0.0208
     22 C19        -1.0342    2.0147    1.3725 C.ar      1 <0>        -0.6502
     23 C20        -2.4059    1.9548    1.5448 C.ar      1 <0>        -0.0219
     24 C21        -2.9631    2.2424    2.7733 C.ar      1 <0>        -0.1121
     25 S1         -0.3307    1.6385   -0.1986 S.o2      1 <0>         2.4982
     26 O3          0.8938    2.3588   -0.2295 O.2       1 <0>        -0.9339
     27 O4         -1.3616    1.9218   -1.1347 O.2       1 <0>        -0.9344
     28 C22        -0.0052   -0.1453   -0.1485 C.3       1 <0>        -0.6497
     29 H1          0.8636    8.3028    2.6687 H         1 <0>         0.0607
     30 H2          0.0032    9.4173    3.7577 H         1 <0>         0.0594
     31 H3          1.7398    9.6460    3.4409 H         1 <0>         0.1062
     32 H4         -0.9674    7.6033    3.3931 H         1 <0>         0.1433
     33 H5         -2.5826    5.8292    3.9305 H         1 <0>         0.1327
     34 H6         -0.1021    4.5707    7.1936 H         1 <0>         0.1449
     35 H7         -2.8185    5.5894    8.3967 H         1 <0>         0.1297
     36 H8         -4.4027    4.8956   10.1444 H         1 <0>         0.1337
     37 H9         -5.7184    2.8346    9.8752 H         1 <0>         0.1389
     38 H10        -5.4691    1.4493    7.8664 H         1 <0>         0.1353
     39 H11        -0.1139    2.9500    4.4808 H         1 <0>         0.1389
     40 H12         0.8567    2.4232    2.2835 H         1 <0>         0.1502
     41 H13        -3.0413    1.6778    0.7166 H         1 <0>         0.1500
     42 H14        -4.0335    2.1913    2.9075 H         1 <0>         0.1402
     43 H15         0.6852   -0.3659    0.6657 H         1 <0>         0.1327
     44 H16        -0.9406   -0.6810    0.0131 H         1 <0>         0.1327
     45 H17         0.4355   -0.4610   -1.0941 H         1 <0>         0.1351
@<TRIPOS>BOND
     1    1    2 1
     2    1   29 1
     3    1   30 1
     4    1   31 1
     5    2    3 1
     6    3    8 ar
     7    3    4 ar
     8    4    5 ar
     9    4   32 1
    10    5    6 ar
    11    5   33 1
    12    6    7 ar
    13    6   10 1
    14    7    8 ar
    15    7   34 1
    16    8    9 1
    17   10   18 2
    18   10   11 1
    19   11   16 ar
    20   11   12 ar
    21   12   13 ar
    22   12   35 1
    23   13   14 ar
    24   13   36 1
    25   14   15 ar
    26   14   37 1
    27   15   16 ar
    28   15   38 1
    29   16   17 1
    30   17   18 1
    31   18   19 1
    32   19   24 ar
    33   19   20 ar
    34   20   21 ar
    35   20   39 1
    36   21   22 ar
    37   21   40 1
    38   22   23 ar
    39   22   25 1
    40   23   24 ar
    41   23   41 1
    42   24   42 1
    43   25   26 2
    44   25   27 2
    45   25   28 1
    46   28   43 1
    47   28   44 1
    48   28   45 1
@<TRIPOS>MOLECULE
ZINC03814577
   44    47     0     0     0
SMALL
USER_CHARGES

@<TRIPOS>ATOM
      1 C1          0.5488    9.0722    3.2970 C.3       1 <0>         0.0237
      2 O1          0.7808    8.2842    4.4663 O.3       1 <0>        -0.3069
      3 C2         -0.1189    7.3014    4.7368 C.ar      1 <0>         0.1048
      4 C3         -1.2015    7.1023    3.8918 C.ar      1 <0>        -0.1781
      5 C4         -2.1159    6.1058    4.1620 C.ar      1 <0>        -0.0670
      6 C5         -1.9527    5.2967    5.2870 C.ar      1 <0>        -0.0338
      7 C6         -0.8665    5.5022    6.1385 C.ar      1 <0>        -0.1000
      8 C7          0.0482    6.4979    5.8589 C.ar      1 <0>         0.0733
      9 F1          1.1033    6.6952    6.6793 F         1 <0>        -0.1281
     10 C8         -2.9327    4.2267    5.5798 C.2       1 <0>        -0.1006
     11 C9         -3.8580    4.1584    6.7230 C.ar      1 <0>        -0.1173
     12 C10        -4.1123    4.9850    7.8157 C.ar      1 <0>        -0.0651
     13 C11        -5.0729    4.6231    8.7345 C.ar      1 <0>        -0.1312
     14 C12        -5.7836    3.4425    8.5735 C.ar      1 <0>        -0.0857
     15 C13        -5.5413    2.6165    7.4969 C.ar      1 <0>        -0.1068
     16 C14        -4.5766    2.9631    6.5586 C.ar      1 <0>         0.0617
     17 O2         -4.1370    2.3702    5.4294 O.3       1 <0>        -0.1792
     18 C15        -3.1660    3.0981    4.8443 C.2       1 <0>         0.0730
     19 C16        -2.4659    2.7359    3.5973 C.ar      1 <0>         0.0354
     20 C17        -1.0728    2.8156    3.5258 C.ar      1 <0>        -0.1059
     21 C18        -0.4251    2.4758    2.3565 C.ar      1 <0>        -0.0146
     22 C19        -1.1515    2.0563    1.2560 C.ar      1 <0>        -0.6668
     23 C20        -2.5319    1.9804    1.3176 C.ar      1 <0>        -0.0158
     24 C21        -3.1928    2.3120    2.4819 C.ar      1 <0>        -0.1134
     25 S1         -0.3154    1.6237   -0.2334 S.o2      1 <0>         2.7007
     26 O3          0.9313    2.3053   -0.2119 O.2       1 <0>        -0.9592
     27 O4         -1.2540    1.7857   -1.2879 O.2       1 <0>        -0.9597
     28 N1          0.0282    0.0059   -0.1499 N.pl3     1 <0>        -1.2490
     29 H1         -0.4156    9.5731    3.3818 H         1 <0>         0.0595
     30 H2          1.3380    9.8176    3.1987 H         1 <0>         0.1063
     31 H3          0.5470    8.4270    2.4185 H         1 <0>         0.0607
     32 H4         -1.3280    7.7285    3.0210 H         1 <0>         0.1435
     33 H5         -2.9580    5.9521    3.5034 H         1 <0>         0.1329
     34 H6         -0.7393    4.8808    7.0126 H         1 <0>         0.1452
     35 H7         -3.5596    5.9044    7.9415 H         1 <0>         0.1299
     36 H8         -5.2736    5.2607    9.5827 H         1 <0>         0.1339
     37 H9         -6.5344    3.1676    9.2996 H         1 <0>         0.1391
     38 H10        -6.1009    1.6999    7.3827 H         1 <0>         0.1355
     39 H11        -0.5046    3.1428    4.3840 H         1 <0>         0.1405
     40 H12         0.6517    2.5369    2.2999 H         1 <0>         0.1515
     41 H13        -3.0927    1.6564    0.4534 H         1 <0>         0.1512
     42 H14        -4.2698    2.2484    2.5299 H         1 <0>         0.1418
     43 H15        -0.2346   -0.5060    0.6310 H         1 <0>         0.4175
     44 H16         0.4921   -0.4298   -0.8819 H         1 <0>         0.4226
@<TRIPOS>BOND
     1    1    2 1
     2    1   29 1
     3    1   30 1
     4    1   31 1
     5    2    3 1
     6    3    8 ar
     7    3    4 ar
     8    4    5 ar
     9    4   32 1
    10    5    6 ar
    11    5   33 1
    12    6    7 ar
    13    6   10 1
    14    7    8 ar
    15    7   34 1
    16    8    9 1
    17   10   18 2
    18   10   11 1
    19   11   16 ar
    20   11   12 ar
    21   12   13 ar
    22   12   35 1
    23   13   14 ar
    24   13   36 1
    25   14   15 ar
    26   14   37 1
    27   15   16 ar
    28   15   38 1
    29   16   17 1
    30   17   18 1
    31   18   19 1
    32   19   24 ar
    33   19   20 ar
    34   20   21 ar
    35   20   39 1
    36   21   22 ar
    37   21   40 1
    38   22   23 ar
    39   22   25 1
    40   23   24 ar
    41   23   41 1
    42   24   42 1
    43   25   26 2
    44   25   27 2
    45   25   28 1
    46   28   43 1
    47   28   44 1
@<TRIPOS>MOLECULE
ZINC03814578
   43    46     0     0     0
SMALL
USER_CHARGES

@<TRIPOS>ATOM
      1 C1          3.8378   11.7476    0.7747 C.3       1 <0>        -0.6504
      2 S1          4.9306   10.5136    0.0173 S.o2      1 <0>         2.4981
      3 O1          6.0356   10.2489    0.8706 O.2       1 <0>        -0.9361
      4 O2          5.1322   10.8158   -1.3565 O.2       1 <0>        -0.9364
      5 C2          3.9954    9.0203    0.0166 C.ar      1 <0>        -0.6588
      6 C3          3.1907    8.7125   -1.0667 C.ar      1 <0>        -0.0209
      7 C4          2.4561    7.5458   -1.0751 C.ar      1 <0>        -0.1260
      8 C5          2.5253    6.6723    0.0153 C.ar      1 <0>         0.0282
      9 C6          3.3365    6.9934    1.1088 C.ar      1 <0>        -0.1198
     10 C7          4.0697    8.1610    1.0992 C.ar      1 <0>        -0.0201
     11 C8          1.7447    5.4259    0.0148 C.2       1 <0>        -0.0916
     12 C9          2.2485    4.1708    0.0032 C.2       1 <0>        -0.0221
     13 C10         1.1571    3.1756    0.0076 C.ar      1 <0>        -0.0664
     14 C11         1.1740    1.7780    0.0004 C.ar      1 <0>        -0.0900
     15 C12        -0.0126    1.0758    0.0080 C.ar      1 <0>        -0.1195
     16 C13        -1.2222    1.7479    0.0173 C.ar      1 <0>        -0.1092
     17 C14        -1.2478    3.1320    0.0296 C.ar      1 <0>        -0.1008
     18 C15        -0.0687    3.8424    0.0224 C.ar      1 <0>        -0.0936
     19 C16         0.2378    5.3201    0.0279 C.3       1 <0>        -0.0486
     20 C17         3.6908    3.8408   -0.0122 C.ar      1 <0>        -0.0538
     21 C18         4.4756    4.1829   -1.1143 C.ar      1 <0>        -0.0701
     22 C19         5.8205    3.8774   -1.1215 C.ar      1 <0>        -0.1504
     23 C20         6.3907    3.2229   -0.0411 C.ar      1 <0>         0.1045
     24 C21         5.6147    2.8763    1.0536 C.ar      1 <0>        -0.1514
     25 C22         4.2699    3.1814    1.0730 C.ar      1 <0>        -0.0740
     26 F1          7.7075    2.9213   -0.0553 F         1 <0>        -0.1369
     27 H1          3.5801   11.4329    1.7859 H         1 <0>         0.1317
     28 H2          4.3480   12.7101    0.8127 H         1 <0>         0.1337
     29 H3          2.9289   11.8414    0.1805 H         1 <0>         0.1317
     30 H4          3.1384    9.3880   -1.9077 H         1 <0>         0.1452
     31 H5          1.8292    7.3067   -1.9214 H         1 <0>         0.1356
     32 H6          3.3918    6.3263    1.9564 H         1 <0>         0.1335
     33 H7          4.7001    8.4081    1.9405 H         1 <0>         0.1445
     34 H8          2.1154    1.2487   -0.0114 H         1 <0>         0.1225
     35 H9          0.0021   -0.0041    0.0020 H         1 <0>         0.1271
     36 H10        -2.1479    1.1916    0.0187 H         1 <0>         0.1282
     37 H11        -2.1930    3.6545    0.0407 H         1 <0>         0.1255
     38 H12        -0.1642    5.7846    0.9283 H         1 <0>         0.1065
     39 H13        -0.1806    5.7957   -0.8592 H         1 <0>         0.1065
     40 H14         4.0313    4.6890   -1.9587 H         1 <0>         0.1318
     41 H15         6.4295    4.1450   -1.9723 H         1 <0>         0.1388
     42 H16         6.0638    2.3660    1.8929 H         1 <0>         0.1390
     43 H17         3.6659    2.9103    1.9263 H         1 <0>         0.1341
@<TRIPOS>BOND
     1    1    2 1
     2    1   27 1
     3    1   28 1
     4    1   29 1
     5    2    3 2
     6    2    4 2
     7    2    5 1
     8    5   10 ar
     9    5    6 ar
    10    6    7 ar
    11    6   30 1
    12    7    8 ar
    13    7   31 1
    14    8    9 ar
    15    8   11 1
    16    9   10 ar
    17    9   32 1
    18   10   33 1
    19   11   19 1
    20   11   12 2
    21   12   13 1
    22   12   20 1
    23   13   18 ar
    24   13   14 ar
    25   14   15 ar
    26   14   34 1
    27   15   16 ar
    28   15   35 1
    29   16   17 ar
    30   16   36 1
    31   17   18 ar
    32   17   37 1
    33   18   19 1
    34   19   38 1
    35   19   39 1
    36   20   25 ar
    37   20   21 ar
    38   21   22 ar
    39   21   40 1
    40   22   23 ar
    41   22   41 1
    42   23   24 ar
    43   23   26 1
    44   24   25 ar
    45   24   42 1
    46   25   43 1
@<TRIPOS>MOLECULE
ZINC03814579
   41    44     0     0     0
SMALL
USER_CHARGES

@<TRIPOS>ATOM
      1 C1         -0.0107   -0.1399   -0.1553 C.3       1 <0>        -0.6497
      2 S1         -0.3365    1.6440   -0.2023 S.o2      1 <0>         2.4983
      3 O1          0.8880    2.3645   -0.2337 O.2       1 <0>        -0.9335
      4 O2         -1.3686    1.9286   -1.1366 O.2       1 <0>        -0.9340
      5 C2         -1.0379    2.0178    1.3703 C.ar      1 <0>        -0.6500
      6 C3         -2.4094    1.9576    1.5444 C.ar      1 <0>        -0.0217
      7 C4         -2.9650    2.2442    2.7738 C.ar      1 <0>        -0.1122
      8 C5         -2.1405    2.6063    3.8419 C.ar      1 <0>         0.0284
      9 C6         -0.7571    2.6702    3.6573 C.ar      1 <0>        -0.1048
     10 C7         -0.2150    2.3758    2.4237 C.ar      1 <0>        -0.0206
     11 C8         -2.7278    2.9203    5.1584 C.2       1 <0>         0.0753
     12 C9         -2.4144    4.0105    5.9214 C.2       1 <0>        -0.1066
     13 C10        -3.2419    3.9020    7.1343 C.ar      1 <0>        -0.1167
     14 C11        -3.3896    4.6806    8.2806 C.ar      1 <0>        -0.0657
     15 C12        -4.2764    4.2898    9.2597 C.ar      1 <0>        -0.1314
     16 C13        -5.0187    3.1277    9.1063 C.ar      1 <0>        -0.0865
     17 C14        -4.8812    2.3490    7.9772 C.ar      1 <0>        -0.1067
     18 C15        -3.9922    2.7253    6.9777 C.ar      1 <0>         0.0608
     19 O3         -3.6592    2.1795    5.7897 O.3       1 <0>        -0.1799
     20 C16        -1.4433    5.0792    5.5957 C.ar      1 <0>        -0.0339
     21 C17        -0.2866    5.2310    6.3610 C.ar      1 <0>        -0.0741
     22 C18         0.6172    6.2257    6.0505 C.ar      1 <0>        -0.1506
     23 C19         0.3733    7.0794    4.9866 C.ar      1 <0>         0.1063
     24 C20        -0.7765    6.9362    4.2267 C.ar      1 <0>        -0.1490
     25 C21        -1.6844    5.9417    4.5258 C.ar      1 <0>        -0.0701
     26 F1          1.2594    8.0550    4.6896 F         1 <0>        -0.1360
     27 H1          0.6807   -0.3617    0.6576 H         1 <0>         0.1325
     28 H2         -0.9459   -0.6758    0.0068 H         1 <0>         0.1325
     29 H3          0.4288   -0.4540   -1.1020 H         1 <0>         0.1350
     30 H4         -3.0459    1.6818    0.7166 H         1 <0>         0.1501
     31 H5         -4.0352    2.1928    2.9093 H         1 <0>         0.1401
     32 H6         -0.1137    2.9497    4.4785 H         1 <0>         0.1388
     33 H7          0.8542    2.4244    2.2796 H         1 <0>         0.1504
     34 H8         -2.8125    5.5856    8.4005 H         1 <0>         0.1296
     35 H9         -4.3945    4.8902   10.1496 H         1 <0>         0.1337
     36 H10        -5.7113    2.8300    9.8796 H         1 <0>         0.1390
     37 H11        -5.4646    1.4465    7.8693 H         1 <0>         0.1353
     38 H12        -0.0974    4.5685    7.1927 H         1 <0>         0.1351
     39 H13         1.5147    6.3417    6.6400 H         1 <0>         0.1403
     40 H14        -0.9623    7.6046    3.3990 H         1 <0>         0.1401
     41 H15        -2.5804    5.8312    3.9331 H         1 <0>         0.1323
@<TRIPOS>BOND
     1    1    2 1
     2    1   27 1
     3    1   28 1
     4    1   29 1
     5    2    3 2
     6    2    4 2
     7    2    5 1
     8    5   10 ar
     9    5    6 ar
    10    6    7 ar
    11    6   30 1
    12    7    8 ar
    13    7   31 1
    14    8    9 ar
    15    8   11 1
    16    9   10 ar
    17    9   32 1
    18   10   33 1
    19   11   19 1
    20   11   12 2
    21   12   13 1
    22   12   20 1
    23   13   18 ar
    24   13   14 ar
    25   14   15 ar
    26   14   34 1
    27   15   16 ar
    28   15   35 1
    29   16   17 ar
    30   16   36 1
    31   17   18 ar
    32   17   37 1
    33   18   19 1
    34   20   25 ar
    35   20   21 ar
    36   21   22 ar
    37   21   38 1
    38   22   23 ar
    39   22   39 1
    40   23   24 ar
    41   23   26 1
    42   24   25 ar
    43   24   40 1
    44   25   41 1
@<TRIPOS>MOLECULE
ZINC03814580
   38    40     0     0     0
SMALL
USER_CHARGES

@<TRIPOS>ATOM
      1 C1         -1.2454    3.3408   -1.3899 C.3       1 <0>        -0.6489
      2 S1         -0.0716    2.5836   -0.2327 S.o2      1 <0>         2.4991
      3 O1          0.0164    1.1852   -0.4697 O.2       1 <0>        -0.9305
      4 O2          1.1031    3.3775   -0.1375 O.2       1 <0>        -0.9300
      5 C2         -0.8387    2.7244    1.3473 C.ar      1 <0>        -0.6518
      6 C3         -0.6072    3.8408    2.1297 C.ar      1 <0>        -0.0069
      7 C4         -1.2115    3.9567    3.3662 C.ar      1 <0>        -0.1206
      8 C5         -2.0435    2.9457    3.8281 C.ar      1 <0>         0.1600
      9 C6         -2.2695    1.8233    3.0427 C.ar      1 <0>        -0.1288
     10 C7         -1.6665    1.7156    1.8048 C.ar      1 <0>        -0.0053
     11 N1         -2.6544    3.0581    5.0844 N.pl3     1 <0>        -0.4142
     12 C8         -3.9989    3.0037    5.3457 C.2       1 <0>         0.0334
     13 C9         -4.1485    3.1539    6.6776 C.2       1 <0>        -0.0821
     14 N2         -2.9365    3.2970    7.2262 N.2       1 <0>        -0.4299
     15 C10        -2.0226    3.2369    6.2829 C.2       1 <0>         0.2822
     16 C11        -0.5618    3.3468    6.4841 C.ar      1 <0>        -0.0321
     17 C12         0.3175    2.8600    5.5159 C.ar      1 <0>        -0.1069
     18 C13         1.6793    2.9712    5.7069 C.ar      1 <0>        -0.1157
     19 C14         2.1738    3.5526    6.8609 C.ar      1 <0>        -0.0984
     20 C15         1.3075    4.0321    7.8272 C.ar      1 <0>        -0.1175
     21 C16        -0.0565    3.9326    7.6456 C.ar      1 <0>        -0.0698
     22 C17        -5.4588    3.1596    7.4219 C.3       1 <0>         0.5573
     23 F1         -5.7809    1.8543    7.8090 F         1 <0>        -0.1704
     24 F2         -5.3464    3.9685    8.5578 F         1 <0>        -0.1642
     25 F3         -6.4656    3.6611    6.5900 F         1 <0>        -0.1718
     26 H1         -2.1921    2.8019   -1.3519 H         1 <0>         0.1333
     27 H2         -1.4087    4.3822   -1.1124 H         1 <0>         0.1334
     28 H3         -0.8408    3.2934   -2.4009 H         1 <0>         0.1371
     29 H4          0.0436    4.6249    1.7717 H         1 <0>         0.1578
     30 H5         -1.0335    4.8308    3.9751 H         1 <0>         0.1449
     31 H6         -2.9165    1.0355    3.3992 H         1 <0>         0.1459
     32 H7         -1.8419    0.8428    1.1934 H         1 <0>         0.1576
     33 H8         -4.7888    2.8665    4.6220 H         1 <0>         0.1984
     34 H9         -0.0673    2.4016    4.6169 H         1 <0>         0.1235
     35 H10         2.3608    2.5995    4.9561 H         1 <0>         0.1310
     36 H11         3.2408    3.6329    7.0078 H         1 <0>         0.1301
     37 H12         1.6999    4.4849    8.7257 H         1 <0>         0.1332
     38 H13        -0.7317    4.3076    8.4005 H         1 <0>         0.1376
@<TRIPOS>BOND
     1    1    2 1
     2    1   26 1
     3    1   27 1
     4    1   28 1
     5    2    3 2
     6    2    4 2
     7    2    5 1
     8    5   10 ar
     9    5    6 ar
    10    6    7 ar
    11    6   29 1
    12    7    8 ar
    13    7   30 1
    14    8    9 ar
    15    8   11 1
    16    9   10 ar
    17    9   31 1
    18   10   32 1
    19   11   15 1
    20   11   12 1
    21   12   13 2
    22   12   33 1
    23   13   14 1
    24   13   22 1
    25   14   15 2
    26   15   16 1
    27   16   21 ar
    28   16   17 ar
    29   17   18 ar
    30   17   34 1
    31   18   19 ar
    32   18   35 1
    33   19   20 ar
    34   19   36 1
    35   20   21 ar
    36   20   37 1
    37   21   38 1
    38   22   23 1
    39   22   24 1
    40   22   25 1
@<TRIPOS>MOLECULE
ZINC03814580
   39    41     0     0     0
SMALL
USER_CHARGES

@<TRIPOS>ATOM
      1 C1         -1.2454    3.3408   -1.3899 C.3       1 <0>        -0.6453
      2 S1         -0.0716    2.5836   -0.2327 S.o2      1 <0>         2.4918
      3 O1          0.0164    1.1852   -0.4697 O.2       1 <0>        -0.9205
      4 O2          1.1031    3.3775   -0.1375 O.2       1 <0>        -0.9211
      5 C2         -0.8387    2.7244    1.3473 C.ar      1 <0>        -0.6285
      6 C3         -0.6072    3.8408    2.1297 C.ar      1 <0>        -0.0036
      7 C4         -1.2115    3.9567    3.3662 C.ar      1 <0>        -0.1082
      8 C5         -2.0435    2.9457    3.8281 C.ar      1 <0>         0.1080
      9 C6         -2.2695    1.8233    3.0427 C.ar      1 <0>        -0.1067
     10 C7         -1.6665    1.7156    1.8048 C.ar      1 <0>        -0.0012
     11 N1         -2.6544    3.0581    5.0844 N.pl3     1 <0>        -0.3701
     12 C8         -3.9989    3.0037    5.3457 C.2       1 <0>         0.1189
     13 C9         -4.1485    3.1539    6.6776 C.2       1 <0>        -0.0726
     14 C10        -2.0226    3.2369    6.2829 C.cat     1 <0>         0.4219
     15 C11        -0.5618    3.3468    6.4841 C.ar      1 <0>        -0.1094
     16 C12         0.3175    2.8600    5.5159 C.ar      1 <0>        -0.0695
     17 C13         1.6793    2.9712    5.7069 C.ar      1 <0>        -0.1075
     18 C14         2.1738    3.5526    6.8609 C.ar      1 <0>        -0.0530
     19 C15         1.3075    4.0321    7.8272 C.ar      1 <0>        -0.1076
     20 C16        -0.0565    3.9326    7.6456 C.ar      1 <0>        -0.0668
     21 C17        -5.4588    3.1596    7.4219 C.3       1 <0>         0.5539
     22 F1         -5.7809    1.8543    7.8090 F         1 <0>        -0.1475
     23 F2         -5.3464    3.9685    8.5578 F         1 <0>        -0.1571
     24 F3         -6.4656    3.6611    6.5900 F         1 <0>        -0.1433
     25 H1         -2.1921    2.8019   -1.3519 H         1 <0>         0.1354
     26 H2         -1.4087    4.3822   -1.1124 H         1 <0>         0.1351
     27 H3         -0.8408    3.2934   -2.4009 H         1 <0>         0.1437
     28 H4          0.0436    4.6249    1.7717 H         1 <0>         0.1691
     29 H5         -1.0335    4.8308    3.9751 H         1 <0>         0.1516
     30 H6         -2.9165    1.0355    3.3992 H         1 <0>         0.1550
     31 H7         -1.8419    0.8428    1.1934 H         1 <0>         0.1698
     32 H8         -4.7888    2.8665    4.6220 H         1 <0>         0.2426
     33 H9         -0.0673    2.4016    4.6169 H         1 <0>         0.1371
     34 H10         2.3608    2.5995    4.9561 H         1 <0>         0.1494
     35 H11         3.2408    3.6329    7.0078 H         1 <0>         0.1485
     36 H12         1.6999    4.4849    8.7257 H         1 <0>         0.1503
     37 H13        -0.7317    4.3076    8.4005 H         1 <0>         0.1354
     38 N2         -2.9367    3.2969    7.2252 N.pl3     1 <0>        -0.4645
     39 H14        -2.7497    3.4323    8.2256 H         1 <0>         0.4863
@<TRIPOS>BOND
     1    1    2 1
     2    1   25 1
     3    1   26 1
     4    1   27 1
     5    2    3 2
     6    2    4 2
     7    2    5 1
     8    5   10 ar
     9    5    6 ar
    10    6    7 ar
    11    6   28 1
    12    7    8 ar
    13    7   29 1
    14    8    9 ar
    15    8   11 1
    16    9   10 ar
    17    9   30 1
    18   10   31 1
    19   11   14 1
    20   11   12 1
    21   12   13 2
    22   12   32 1
    23   13   21 1
    24   13   38 1
    25   14   15 1
    26   14   38 2
    27   15   20 ar
    28   15   16 ar
    29   16   17 ar
    30   16   33 1
    31   17   18 ar
    32   17   34 1
    33   18   19 ar
    34   18   35 1
    35   19   20 ar
    36   19   36 1
    37   20   37 1
    38   21   22 1
    39   21   23 1
    40   21   24 1
    41   38   39 1
@<TRIPOS>MOLECULE
ZINC03814581
   42    44     0     0     0
SMALL
USER_CHARGES

@<TRIPOS>ATOM
      1 C1         -7.4568    1.6454    8.7958 C.3       1 <0>        -0.1245
      2 S1         -5.8756    1.4677    7.9247 S.3       1 <0>        -0.2499
      3 C2         -5.4592    3.1600    7.4214 C.3       1 <0>        -0.0003
      4 C3         -4.1488    3.1547    6.6772 C.2       1 <0>         0.0263
      5 C4         -3.9990    3.0036    5.3456 C.2       1 <0>        -0.0111
      6 N1         -2.6542    3.0580    5.0843 N.pl3     1 <0>        -0.4181
      7 C5         -2.0226    3.2370    6.2830 C.2       1 <0>         0.2624
      8 N2         -2.9368    3.2984    7.2259 N.2       1 <0>        -0.4459
      9 C6         -0.5620    3.3461    6.4844 C.ar      1 <0>        -0.0175
     10 C7          0.3171    2.8583    5.5163 C.ar      1 <0>        -0.0988
     11 C8          1.6788    2.9673    5.7076 C.ar      1 <0>        -0.1053
     12 C9          2.1741    3.5502    6.8619 C.ar      1 <0>        -0.0218
     13 C10         1.3068    4.0312    7.8284 C.ar      1 <0>        -0.1077
     14 C11        -0.0568    3.9321    7.6460 C.ar      1 <0>        -0.0611
     15 Cl1         3.8891    3.6778    7.0987 Cl        1 <0>        -0.0599
     16 C12        -2.0433    2.9455    3.8281 C.ar      1 <0>         0.1670
     17 C13        -2.2693    1.8230    3.0428 C.ar      1 <0>        -0.1311
     18 C14        -1.6660    1.7152    1.8050 C.ar      1 <0>        -0.0053
     19 C15        -0.8382    2.7239    1.3475 C.ar      1 <0>        -0.6549
     20 C16        -0.6067    3.8404    2.1298 C.ar      1 <0>        -0.0074
     21 C17        -1.2112    3.9564    3.3662 C.ar      1 <0>        -0.1267
     22 S2         -0.0709    2.5829   -0.2324 S.o2      1 <0>         2.4989
     23 O1          0.0170    1.1846   -0.4693 O.2       1 <0>        -0.9311
     24 O2          1.1038    3.3768   -0.1372 O.2       1 <0>        -0.9305
     25 C18        -1.2446    3.3402   -1.3899 C.3       1 <0>        -0.6492
     26 H1         -7.7933    0.6678    9.1410 H         1 <0>         0.1033
     27 H2         -7.3278    2.3083    9.6514 H         1 <0>         0.0779
     28 H3         -8.1995    2.0669    8.1183 H         1 <0>         0.0768
     29 H4         -5.3721    3.7911    8.3059 H         1 <0>         0.0982
     30 H5         -6.2438    3.5497    6.7729 H         1 <0>         0.0959
     31 H6         -4.7888    2.8652    4.6220 H         1 <0>         0.1861
     32 H7         -0.0681    2.3998    4.6175 H         1 <0>         0.1321
     33 H8          2.3600    2.5936    4.9575 H         1 <0>         0.1410
     34 H9          1.6989    4.4845    8.7268 H         1 <0>         0.1429
     35 H10        -0.7323    4.3070    8.4008 H         1 <0>         0.1463
     36 H11        -2.9157    1.0349    3.3995 H         1 <0>         0.1452
     37 H12        -1.8414    0.8423    1.1936 H         1 <0>         0.1561
     38 H13         0.0441    4.6244    1.7718 H         1 <0>         0.1562
     39 H14        -1.0332    4.8305    3.9751 H         1 <0>         0.1431
     40 H15        -2.1913    2.8013   -1.3519 H         1 <0>         0.1329
     41 H16        -1.4079    4.3815   -1.1124 H         1 <0>         0.1329
     42 H17        -0.8399    3.2927   -2.4008 H         1 <0>         0.1365
@<TRIPOS>BOND
     1    1    2 1
     2    1   26 1
     3    1   27 1
     4    1   28 1
     5    2    3 1
     6    3    4 1
     7    3   29 1
     8    3   30 1
     9    4    8 1
    10    4    5 2
    11    5    6 1
    12    5   31 1
    13    6    7 1
    14    6   16 1
    15    7    8 2
    16    7    9 1
    17    9   14 ar
    18    9   10 ar
    19   10   11 ar
    20   10   32 1
    21   11   12 ar
    22   11   33 1
    23   12   13 ar
    24   12   15 1
    25   13   14 ar
    26   13   34 1
    27   14   35 1
    28   16   21 ar
    29   16   17 ar
    30   17   18 ar
    31   17   36 1
    32   18   19 ar
    33   18   37 1
    34   19   20 ar
    35   19   22 1
    36   20   21 ar
    37   20   38 1
    38   21   39 1
    39   22   23 2
    40   22   24 2
    41   22   25 1
    42   25   40 1
    43   25   41 1
    44   25   42 1
@<TRIPOS>MOLECULE
ZINC03814581
   43    45     0     0     0
SMALL
USER_CHARGES

@<TRIPOS>ATOM
      1 C1         -7.4568    1.6454    8.7958 C.3       1 <0>        -0.1217
      2 S1         -5.8756    1.4677    7.9247 S.3       1 <0>        -0.2311
      3 C2         -5.4592    3.1600    7.4214 C.3       1 <0>        -0.0449
      4 C3         -4.1488    3.1547    6.6772 C.2       1 <0>         0.0591
      5 C4         -3.9990    3.0036    5.3456 C.2       1 <0>         0.0567
      6 N1         -2.6542    3.0580    5.0843 N.pl3     1 <0>        -0.3643
      7 C5         -2.0226    3.2370    6.2830 C.cat     1 <0>         0.3883
      8 C6         -0.5620    3.3461    6.4844 C.ar      1 <0>        -0.0961
      9 C7          0.3171    2.8583    5.5163 C.ar      1 <0>        -0.0616
     10 C8          1.6788    2.9673    5.7076 C.ar      1 <0>        -0.1003
     11 C9          2.1741    3.5502    6.8619 C.ar      1 <0>         0.0113
     12 C10         1.3068    4.0312    7.8284 C.ar      1 <0>        -0.1011
     13 C11        -0.0568    3.9321    7.6460 C.ar      1 <0>        -0.0582
     14 Cl1         3.8891    3.6778    7.0987 Cl        1 <0>        -0.0230
     15 C12        -2.0433    2.9455    3.8281 C.ar      1 <0>         0.1142
     16 C13        -2.2693    1.8230    3.0428 C.ar      1 <0>        -0.1081
     17 C14        -1.6660    1.7152    1.8050 C.ar      1 <0>        -0.0016
     18 C15        -0.8382    2.7239    1.3475 C.ar      1 <0>        -0.6315
     19 C16        -0.6067    3.8404    2.1298 C.ar      1 <0>        -0.0046
     20 C17        -1.2112    3.9564    3.3662 C.ar      1 <0>        -0.1133
     21 S2         -0.0709    2.5829   -0.2324 S.o2      1 <0>         2.4919
     22 O1          0.0170    1.1846   -0.4693 O.2       1 <0>        -0.9212
     23 O2          1.1038    3.3768   -0.1372 O.2       1 <0>        -0.9217
     24 C18        -1.2446    3.3402   -1.3899 C.3       1 <0>        -0.6457
     25 H1         -7.7933    0.6678    9.1410 H         1 <0>         0.1155
     26 H2         -7.3278    2.3083    9.6514 H         1 <0>         0.0860
     27 H3         -8.1995    2.0669    8.1183 H         1 <0>         0.0879
     28 H4         -5.3721    3.7911    8.3059 H         1 <0>         0.1154
     29 H5         -6.2438    3.5497    6.7729 H         1 <0>         0.1302
     30 H6         -4.7888    2.8652    4.6220 H         1 <0>         0.2303
     31 H7         -0.0681    2.3998    4.6175 H         1 <0>         0.1445
     32 H8          2.3600    2.5936    4.9575 H         1 <0>         0.1578
     33 H9          1.6989    4.4845    8.7268 H         1 <0>         0.1584
     34 H10        -0.7323    4.3070    8.4008 H         1 <0>         0.1432
     35 H11        -2.9157    1.0349    3.3995 H         1 <0>         0.1545
     36 H12        -1.8414    0.8423    1.1936 H         1 <0>         0.1683
     37 H13         0.0441    4.6244    1.7718 H         1 <0>         0.1675
     38 H14        -1.0332    4.8305    3.9751 H         1 <0>         0.1501
     39 H15        -2.1913    2.8013   -1.3519 H         1 <0>         0.1350
     40 H16        -1.4079    4.3815   -1.1124 H         1 <0>         0.1347
     41 H17        -0.8399    3.2927   -2.4008 H         1 <0>         0.1430
     42 N2         -2.9370    3.2983    7.2249 N.pl3     1 <0>        -0.4733
     43 H18        -2.7503    3.4350    8.2253 H         1 <0>         0.4794
@<TRIPOS>BOND
     1    1    2 1
     2    1   25 1
     3    1   26 1
     4    1   27 1
     5    2    3 1
     6    3    4 1
     7    3   28 1
     8    3   29 1
     9    4    5 2
    10    4   42 1
    11    5    6 1
    12    5   30 1
    13    6    7 1
    14    6   15 1
    15    7    8 1
    16    7   42 2
    17    8   13 ar
    18    8    9 ar
    19    9   10 ar
    20    9   31 1
    21   10   11 ar
    22   10   32 1
    23   11   12 ar
    24   11   14 1
    25   12   13 ar
    26   12   33 1
    27   13   34 1
    28   15   20 ar
    29   15   16 ar
    30   16   17 ar
    31   16   35 1
    32   17   18 ar
    33   17   36 1
    34   18   19 ar
    35   18   21 1
    36   19   20 ar
    37   19   37 1
    38   20   38 1
    39   21   22 2
    40   21   23 2
    41   21   24 1
    42   24   39 1
    43   24   40 1
    44   24   41 1
    45   42   43 1
@<TRIPOS>MOLECULE
ZINC03814582
   42    44     0     0     0
SMALL
USER_CHARGES

@<TRIPOS>ATOM
      1 C1          4.3573    3.1354    6.0083 C.3       1 <0>         0.0229
      2 O1          3.5196    3.6502    7.0453 O.3       1 <0>        -0.3115
      3 C2          2.1775    3.5499    6.8608 C.ar      1 <0>         0.1513
      4 C3          1.3073    4.0308    7.8305 C.ar      1 <0>        -0.1506
      5 C4         -0.0551    3.9308    7.6470 C.ar      1 <0>        -0.0275
      6 C5         -0.5599    3.3448    6.4848 C.ar      1 <0>        -0.0731
      7 C6          0.3182    2.8570    5.5152 C.ar      1 <0>        -0.0629
      8 C7          1.6792    2.9663    5.7033 C.ar      1 <0>        -0.2059
      9 C8         -2.0202    3.2357    6.2841 C.2       1 <0>         0.2914
     10 N1         -2.9341    3.2961    7.2277 N.2       1 <0>        -0.4334
     11 C9         -4.1467    3.1528    6.6792 C.2       1 <0>        -0.0808
     12 C10        -3.9979    3.0029    5.3477 C.2       1 <0>         0.0310
     13 N2         -2.6526    3.0577    5.0855 N.pl3     1 <0>        -0.4169
     14 C11        -2.0424    2.9464    3.8288 C.ar      1 <0>         0.1616
     15 C12        -2.2687    1.8247    3.0426 C.ar      1 <0>        -0.1293
     16 C13        -1.6663    1.7180    1.8043 C.ar      1 <0>        -0.0052
     17 C14        -0.8385    2.7270    1.3474 C.ar      1 <0>        -0.6527
     18 C15        -0.6070    3.8430    2.1304 C.ar      1 <0>        -0.0075
     19 C16        -1.2107    3.9578    3.3673 C.ar      1 <0>        -0.1220
     20 S1         -0.0713    2.5871   -0.2327 S.o2      1 <0>         2.4987
     21 O2          0.0166    1.1889   -0.4704 O.2       1 <0>        -0.9307
     22 O3          1.1034    3.3809   -0.1370 O.2       1 <0>        -0.9307
     23 C17        -1.2451    3.3450   -1.3896 C.3       1 <0>        -0.6486
     24 C18        -5.4567    3.1575    7.4242 C.3       1 <0>         0.5570
     25 F1         -5.7778    1.8521    7.8112 F         1 <0>        -0.1706
     26 F2         -5.3442    3.9664    8.5601 F         1 <0>        -0.1643
     27 F3         -6.4642    3.6586    6.5928 F         1 <0>        -0.1722
     28 H1          5.4028    3.2784    6.2812 H         1 <0>         0.1049
     29 H2          4.1587    2.0720    5.8751 H         1 <0>         0.0588
     30 H3          4.1493    3.6632    5.0776 H         1 <0>         0.0597
     31 H4          1.6986    4.4840    8.7293 H         1 <0>         0.1422
     32 H5         -0.7312    4.3050    8.4016 H         1 <0>         0.1456
     33 H6         -0.0685    2.3988    4.6170 H         1 <0>         0.1265
     34 H7          2.3591    2.5935    4.9515 H         1 <0>         0.1369
     35 H8         -4.7882    2.8660    4.6245 H         1 <0>         0.1975
     36 H9         -2.9155    1.0364    3.3987 H         1 <0>         0.1462
     37 H10        -1.8423    0.8459    1.1921 H         1 <0>         0.1575
     38 H11         0.0436    4.6274    1.7727 H         1 <0>         0.1573
     39 H12        -1.0325    4.8314    3.9768 H         1 <0>         0.1455
     40 H13        -2.1918    2.8060   -1.3518 H         1 <0>         0.1334
     41 H14        -1.4084    4.3862   -1.1115 H         1 <0>         0.1335
     42 H15        -0.8404    3.2981   -2.4006 H         1 <0>         0.1371
@<TRIPOS>BOND
     1    1    2 1
     2    1   28 1
     3    1   29 1
     4    1   30 1
     5    2    3 1
     6    3    8 ar
     7    3    4 ar
     8    4    5 ar
     9    4   31 1
    10    5    6 ar
    11    5   32 1
    12    6    7 ar
    13    6    9 1
    14    7    8 ar
    15    7   33 1
    16    8   34 1
    17    9   13 1
    18    9   10 2
    19   10   11 1
    20   11   12 2
    21   11   24 1
    22   12   13 1
    23   12   35 1
    24   13   14 1
    25   14   19 ar
    26   14   15 ar
    27   15   16 ar
    28   15   36 1
    29   16   17 ar
    30   16   37 1
    31   17   18 ar
    32   17   20 1
    33   18   19 ar
    34   18   38 1
    35   19   39 1
    36   20   21 2
    37   20   22 2
    38   20   23 1
    39   23   40 1
    40   23   41 1
    41   23   42 1
    42   24   25 1
    43   24   26 1
    44   24   27 1
@<TRIPOS>MOLECULE
ZINC03814582
   43    45     0     0     0
SMALL
USER_CHARGES

@<TRIPOS>ATOM
      1 C1          4.3573    3.1354    6.0083 C.3       1 <0>         0.0151
      2 O1          3.5196    3.6502    7.0453 O.3       1 <0>        -0.2963
      3 C2          2.1775    3.5499    6.8608 C.ar      1 <0>         0.2006
      4 C3          1.3073    4.0308    7.8305 C.ar      1 <0>        -0.1447
      5 C4         -0.0551    3.9308    7.6470 C.ar      1 <0>        -0.0230
      6 C5         -0.5599    3.3448    6.4848 C.ar      1 <0>        -0.1563
      7 C6          0.3182    2.8570    5.5152 C.ar      1 <0>        -0.0216
      8 C7          1.6792    2.9663    5.7033 C.ar      1 <0>        -0.2051
      9 C8         -2.0202    3.2357    6.2841 C.cat     1 <0>         0.4323
     10 C9         -4.1467    3.1528    6.6792 C.2       1 <0>        -0.0734
     11 C10        -3.9979    3.0029    5.3477 C.2       1 <0>         0.1174
     12 N1         -2.6526    3.0577    5.0855 N.pl3     1 <0>        -0.3756
     13 C11        -2.0424    2.9464    3.8288 C.ar      1 <0>         0.1112
     14 C12        -2.2687    1.8247    3.0426 C.ar      1 <0>        -0.1077
     15 C13        -1.6663    1.7180    1.8043 C.ar      1 <0>        -0.0012
     16 C14        -0.8385    2.7270    1.3474 C.ar      1 <0>        -0.6300
     17 C15        -0.6070    3.8430    2.1304 C.ar      1 <0>        -0.0044
     18 C16        -1.2107    3.9578    3.3673 C.ar      1 <0>        -0.1100
     19 S1         -0.0713    2.5871   -0.2327 S.o2      1 <0>         2.4917
     20 O2          0.0166    1.1889   -0.4704 O.2       1 <0>        -0.9209
     21 O3          1.1034    3.3809   -0.1370 O.2       1 <0>        -0.9221
     22 C17        -1.2451    3.3450   -1.3896 C.3       1 <0>        -0.6451
     23 C18        -5.4567    3.1575    7.4242 C.3       1 <0>         0.5538
     24 F1         -5.7778    1.8521    7.8112 F         1 <0>        -0.1480
     25 F2         -5.3442    3.9664    8.5601 F         1 <0>        -0.1574
     26 F3         -6.4642    3.6586    6.5928 F         1 <0>        -0.1441
     27 H1          5.4028    3.2784    6.2812 H         1 <0>         0.1171
     28 H2          4.1587    2.0720    5.8751 H         1 <0>         0.0675
     29 H3          4.1493    3.6632    5.0776 H         1 <0>         0.0685
     30 H4          1.6986    4.4840    8.7293 H         1 <0>         0.1585
     31 H5         -0.7312    4.3050    8.4016 H         1 <0>         0.1428
     32 H6         -0.0685    2.3988    4.6170 H         1 <0>         0.1397
     33 H7          2.3591    2.5935    4.9515 H         1 <0>         0.1540
     34 H8         -4.7882    2.8660    4.6245 H         1 <0>         0.2411
     35 H9         -2.9155    1.0364    3.3987 H         1 <0>         0.1552
     36 H10        -1.8423    0.8459    1.1921 H         1 <0>         0.1694
     37 H11         0.0436    4.6274    1.7727 H         1 <0>         0.1684
     38 H12        -1.0325    4.8314    3.9768 H         1 <0>         0.1522
     39 H13        -2.1918    2.8060   -1.3518 H         1 <0>         0.1356
     40 H14        -1.4084    4.3862   -1.1115 H         1 <0>         0.1352
     41 H15        -0.8404    3.2981   -2.4006 H         1 <0>         0.1436
     42 N2         -2.9343    3.2960    7.2267 N.pl3     1 <0>        -0.4695
     43 H16        -2.7471    3.4317    8.2271 H         1 <0>         0.4856
@<TRIPOS>BOND
     1    1    2 1
     2    1   27 1
     3    1   28 1
     4    1   29 1
     5    2    3 1
     6    3    8 ar
     7    3    4 ar
     8    4    5 ar
     9    4   30 1
    10    5    6 ar
    11    5   31 1
    12    6    7 ar
    13    6    9 1
    14    7    8 ar
    15    7   32 1
    16    8   33 1
    17    9   12 1
    18    9   42 2
    19   10   11 2
    20   10   23 1
    21   10   42 1
    22   11   12 1
    23   11   34 1
    24   12   13 1
    25   13   18 ar
    26   13   14 ar
    27   14   15 ar
    28   14   35 1
    29   15   16 ar
    30   15   36 1
    31   16   17 ar
    32   16   19 1
    33   17   18 ar
    34   17   37 1
    35   18   38 1
    36   19   20 2
    37   19   21 2
    38   19   22 1
    39   22   39 1
    40   22   40 1
    41   22   41 1
    42   23   24 1
    43   23   25 1
    44   23   26 1
    45   42   43 1
@<TRIPOS>MOLECULE
ZINC03814583
   46    48     0     0     0
SMALL
USER_CHARGES

@<TRIPOS>ATOM
      1 C1          4.0831    4.2697    8.2710 C.3       1 <0>         0.0906
      2 N1          3.5556    3.6549    7.0503 N.pl3     1 <0>        -0.6308
      3 C2          4.4755    3.1486    6.0287 C.3       1 <0>         0.0870
      4 C3          2.1777    3.5516    6.8608 C.ar      1 <0>         0.2370
      5 C4          1.3057    4.0327    7.8316 C.ar      1 <0>        -0.1971
      6 C5         -0.0559    3.9317    7.6475 C.ar      1 <0>        -0.0161
      7 C6         -0.5602    3.3456    6.4847 C.ar      1 <0>        -0.0993
      8 C7          0.3179    2.8583    5.5144 C.ar      1 <0>        -0.0528
      9 C8          1.6784    2.9673    5.7017 C.ar      1 <0>        -0.1960
     10 C9         -2.0202    3.2357    6.2842 C.2       1 <0>         0.3014
     11 N2         -2.9342    3.2955    7.2279 N.2       1 <0>        -0.4405
     12 C10        -4.1469    3.1524    6.6794 C.2       1 <0>        -0.0808
     13 C11        -3.9982    3.0033    5.3479 C.2       1 <0>         0.0254
     14 N3         -2.6527    3.0584    5.0854 N.pl3     1 <0>        -0.4195
     15 C12        -2.0427    2.9479    3.8286 C.ar      1 <0>         0.1651
     16 C13        -2.2690    1.8265    3.0418 C.ar      1 <0>        -0.1305
     17 C14        -1.6667    1.7207    1.8034 C.ar      1 <0>        -0.0058
     18 C15        -0.8391    2.7300    1.3469 C.ar      1 <0>        -0.6535
     19 C16        -0.6076    3.8456    2.1305 C.ar      1 <0>        -0.0072
     20 C17        -1.2112    3.9597    3.3676 C.ar      1 <0>        -0.1206
     21 S1         -0.0721    2.5910   -0.2333 S.o2      1 <0>         2.4992
     22 O1          0.0160    1.1930   -0.4719 O.2       1 <0>        -0.9313
     23 O2          1.1024    3.3850   -0.1373 O.2       1 <0>        -0.9310
     24 C18        -1.2462    3.3494   -1.3896 C.3       1 <0>        -0.6492
     25 C19        -5.4568    3.1566    7.4245 C.3       1 <0>         0.5567
     26 F1         -5.7778    1.8509    7.8108 F         1 <0>        -0.1714
     27 F2         -5.3443    3.9648    8.5609 F         1 <0>        -0.1651
     28 F3         -6.4644    3.6581    6.5935 F         1 <0>        -0.1729
     29 H1          3.7394    3.7070    9.1389 H         1 <0>         0.0581
     30 H2          5.1726    4.2610    8.2405 H         1 <0>         0.0763
     31 H3          3.7297    5.2984    8.3416 H         1 <0>         0.0582
     32 H4          4.6980    3.9418    5.3150 H         1 <0>         0.0534
     33 H5          5.3990    2.8173    6.5034 H         1 <0>         0.0706
     34 H6          4.0137    2.3100    5.5075 H         1 <0>         0.0709
     35 H7          1.6963    4.4863    8.7305 H         1 <0>         0.1305
     36 H8         -0.7326    4.3052    8.4019 H         1 <0>         0.1365
     37 H9         -0.0692    2.4004    4.6161 H         1 <0>         0.1220
     38 H10         2.3581    2.5943    4.9498 H         1 <0>         0.1302
     39 H11        -4.7886    2.8665    4.6248 H         1 <0>         0.1954
     40 H12        -2.9156    1.0380    3.3976 H         1 <0>         0.1453
     41 H13        -1.8426    0.8488    1.1907 H         1 <0>         0.1565
     42 H14         0.0428    4.6303    1.7732 H         1 <0>         0.1565
     43 H15        -1.0331    4.8330    3.9775 H         1 <0>         0.1454
     44 H16        -2.1928    2.8103   -1.3521 H         1 <0>         0.1332
     45 H17        -1.4096    4.3904   -1.1109 H         1 <0>         0.1333
     46 H18        -0.8416    3.3032   -2.4007 H         1 <0>         0.1365
@<TRIPOS>BOND
     1    1    2 1
     2    1   29 1
     3    1   30 1
     4    1   31 1
     5    2    3 1
     6    2    4 1
     7    3   32 1
     8    3   33 1
     9    3   34 1
    10    4    9 ar
    11    4    5 ar
    12    5    6 ar
    13    5   35 1
    14    6    7 ar
    15    6   36 1
    16    7    8 ar
    17    7   10 1
    18    8    9 ar
    19    8   37 1
    20    9   38 1
    21   10   14 1
    22   10   11 2
    23   11   12 1
    24   12   13 2
    25   12   25 1
    26   13   14 1
    27   13   39 1
    28   14   15 1
    29   15   20 ar
    30   15   16 ar
    31   16   17 ar
    32   16   40 1
    33   17   18 ar
    34   17   41 1
    35   18   19 ar
    36   18   21 1
    37   19   20 ar
    38   19   42 1
    39   20   43 1
    40   21   22 2
    41   21   23 2
    42   21   24 1
    43   24   44 1
    44   24   45 1
    45   24   46 1
    46   25   26 1
    47   25   27 1
    48   25   28 1
@<TRIPOS>MOLECULE
ZINC03814583
   47    49     0     0     0
SMALL
USER_CHARGES

@<TRIPOS>ATOM
      1 C1          4.0831    4.2697    8.2710 C.3       1 <0>         0.0763
      2 N1          3.5556    3.6549    7.0503 N.pl3     1 <0>        -0.6052
      3 C2          4.4755    3.1486    6.0287 C.3       1 <0>         0.0728
      4 C3          2.1777    3.5516    6.8608 C.ar      1 <0>         0.2782
      5 C4          1.3057    4.0327    7.8316 C.ar      1 <0>        -0.1929
      6 C5         -0.0559    3.9317    7.6475 C.ar      1 <0>        -0.0091
      7 C6         -0.5602    3.3456    6.4847 C.ar      1 <0>        -0.1856
      8 C7          0.3179    2.8583    5.5144 C.ar      1 <0>        -0.0125
      9 C8          1.6784    2.9673    5.7017 C.ar      1 <0>        -0.1945
     10 C9         -2.0202    3.2357    6.2842 C.cat     1 <0>         0.4416
     11 C10        -4.1469    3.1524    6.6794 C.2       1 <0>        -0.0767
     12 C11        -3.9982    3.0033    5.3479 C.2       1 <0>         0.1141
     13 N2         -2.6527    3.0584    5.0854 N.pl3     1 <0>        -0.3826
     14 C12        -2.0427    2.9479    3.8286 C.ar      1 <0>         0.1170
     15 C13        -2.2690    1.8265    3.0418 C.ar      1 <0>        -0.1097
     16 C14        -1.6667    1.7207    1.8034 C.ar      1 <0>        -0.0018
     17 C15        -0.8391    2.7300    1.3469 C.ar      1 <0>        -0.6315
     18 C16        -0.6076    3.8456    2.1305 C.ar      1 <0>        -0.0043
     19 C17        -1.2112    3.9597    3.3676 C.ar      1 <0>        -0.1087
     20 S1         -0.0721    2.5910   -0.2333 S.o2      1 <0>         2.4925
     21 O1          0.0160    1.1930   -0.4719 O.2       1 <0>        -0.9219
     22 O2          1.1024    3.3850   -0.1373 O.2       1 <0>        -0.9228
     23 C18        -1.2462    3.3494   -1.3896 C.3       1 <0>        -0.6458
     24 C19        -5.4568    3.1566    7.4245 C.3       1 <0>         0.5536
     25 F1         -5.7778    1.8509    7.8108 F         1 <0>        -0.1494
     26 F2         -5.3443    3.9648    8.5609 F         1 <0>        -0.1587
     27 F3         -6.4644    3.6581    6.5935 F         1 <0>        -0.1454
     28 H1          3.7394    3.7070    9.1389 H         1 <0>         0.0683
     29 H2          5.1726    4.2610    8.2405 H         1 <0>         0.0888
     30 H3          3.7297    5.2984    8.3416 H         1 <0>         0.0686
     31 H4          4.6980    3.9418    5.3150 H         1 <0>         0.0675
     32 H5          5.3990    2.8173    6.5034 H         1 <0>         0.0837
     33 H6          4.0137    2.3100    5.5075 H         1 <0>         0.0779
     34 H7          1.6963    4.4863    8.7305 H         1 <0>         0.1459
     35 H8         -0.7326    4.3052    8.4019 H         1 <0>         0.1333
     36 H9         -0.0692    2.4004    4.6161 H         1 <0>         0.1347
     37 H10         2.3581    2.5943    4.9498 H         1 <0>         0.1464
     38 H11        -4.7886    2.8665    4.6248 H         1 <0>         0.2383
     39 H12        -2.9156    1.0380    3.3976 H         1 <0>         0.1540
     40 H13        -1.8426    0.8488    1.1907 H         1 <0>         0.1681
     41 H14         0.0428    4.6303    1.7732 H         1 <0>         0.1671
     42 H15        -1.0331    4.8330    3.9775 H         1 <0>         0.1519
     43 H16        -2.1928    2.8103   -1.3521 H         1 <0>         0.1353
     44 H17        -1.4096    4.3904   -1.1109 H         1 <0>         0.1350
     45 H18        -0.8416    3.3032   -2.4007 H         1 <0>         0.1429
     46 N3         -2.9344    3.2954    7.2269 N.pl3     1 <0>        -0.4777
     47 H19        -2.7472    3.4306    8.2274 H         1 <0>         0.4835
@<TRIPOS>BOND
     1    1    2 1
     2    1   28 1
     3    1   29 1
     4    1   30 1
     5    2    3 1
     6    2    4 1
     7    3   31 1
     8    3   32 1
     9    3   33 1
    10    4    9 ar
    11    4    5 ar
    12    5    6 ar
    13    5   34 1
    14    6    7 ar
    15    6   35 1
    16    7    8 ar
    17    7   10 1
    18    8    9 ar
    19    8   36 1
    20    9   37 1
    21   10   13 1
    22   10   46 2
    23   11   12 2
    24   11   24 1
    25   11   46 1
    26   12   13 1
    27   12   38 1
    28   13   14 1
    29   14   19 ar
    30   14   15 ar
    31   15   16 ar
    32   15   39 1
    33   16   17 ar
    34   16   40 1
    35   17   18 ar
    36   17   20 1
    37   18   19 ar
    38   18   41 1
    39   19   42 1
    40   20   21 2
    41   20   22 2
    42   20   23 1
    43   23   43 1
    44   23   44 1
    45   23   45 1
    46   24   25 1
    47   24   26 1
    48   24   27 1
    49   46   47 1
@<TRIPOS>MOLECULE
ZINC03814584
   42    44     0     0     0
SMALL
USER_CHARGES

@<TRIPOS>ATOM
      1 C1          4.6233    2.9320    5.6082 C.3       1 <0>        -0.1491
      2 S1          3.9172    3.6785    7.1032 S.3       1 <0>        -0.1022
      3 C2          2.1765    3.5487    6.8631 C.ar      1 <0>        -0.0646
      4 C3          1.3038    4.0310    7.8336 C.ar      1 <0>        -0.0989
      5 C4         -0.0574    3.9313    7.6484 C.ar      1 <0>        -0.0477
      6 C5         -0.5615    3.3450    6.4853 C.ar      1 <0>        -0.0387
      7 C6          0.3169    2.8565    5.5154 C.ar      1 <0>        -0.0837
      8 C7          1.6771    2.9636    5.7036 C.ar      1 <0>        -0.1317
      9 C8         -2.0212    3.2361    6.2839 C.2       1 <0>         0.2848
     10 N1         -2.9357    3.2963    7.2273 N.2       1 <0>        -0.4296
     11 C9         -4.1482    3.1532    6.6782 C.2       1 <0>        -0.0809
     12 C10        -3.9990    3.0038    5.3469 C.2       1 <0>         0.0339
     13 N2         -2.6532    3.0586    5.0849 N.pl3     1 <0>        -0.4156
     14 C11        -2.0427    2.9477    3.8284 C.ar      1 <0>         0.1605
     15 C12        -2.2689    1.8262    3.0417 C.ar      1 <0>        -0.1288
     16 C13        -1.6661    1.7200    1.8035 C.ar      1 <0>        -0.0052
     17 C14        -0.8384    2.7293    1.3471 C.ar      1 <0>        -0.6523
     18 C15        -0.6070    3.8450    2.1305 C.ar      1 <0>        -0.0074
     19 C16        -1.2108    3.9592    3.3675 C.ar      1 <0>        -0.1216
     20 S2         -0.0712    2.5901   -0.2330 S.o2      1 <0>         2.4984
     21 O1          0.0169    1.1920   -0.4714 O.2       1 <0>        -0.9305
     22 O2          1.1033    3.3841   -0.1370 O.2       1 <0>        -0.9305
     23 C17        -1.2451    3.3483   -1.3896 C.3       1 <0>        -0.6486
     24 C18        -5.4585    3.1582    7.4226 C.3       1 <0>         0.5571
     25 F1         -5.7804    1.8527    7.8090 F         1 <0>        -0.1703
     26 F2         -5.3462    3.9666    8.5589 F         1 <0>        -0.1640
     27 F3         -6.4654    3.6601    6.5910 F         1 <0>        -0.1718
     28 H1          5.7113    2.9660    5.6642 H         1 <0>         0.1134
     29 H2          4.2956    1.8954    5.5302 H         1 <0>         0.0863
     30 H3          4.2871    3.4863    4.7319 H         1 <0>         0.0873
     31 H4          1.6941    4.4844    8.7328 H         1 <0>         0.1393
     32 H5         -0.7343    4.3059    8.4020 H         1 <0>         0.1443
     33 H6         -0.0701    2.3990    4.6169 H         1 <0>         0.1272
     34 H7          2.3568    2.5895    4.9523 H         1 <0>         0.1316
     35 H8         -4.7891    2.8669    4.6234 H         1 <0>         0.1984
     36 H9         -2.9158    1.0379    3.3974 H         1 <0>         0.1464
     37 H10        -1.8416    0.8479    1.1911 H         1 <0>         0.1577
     38 H11         0.0431    4.6298    1.7731 H         1 <0>         0.1575
     39 H12        -1.0329    4.8327    3.9772 H         1 <0>         0.1453
     40 H13        -2.1917    2.8092   -1.3521 H         1 <0>         0.1335
     41 H14        -1.4086    4.3894   -1.1111 H         1 <0>         0.1335
     42 H15        -0.8404    3.3020   -2.4006 H         1 <0>         0.1372
@<TRIPOS>BOND
     1    1    2 1
     2    1   28 1
     3    1   29 1
     4    1   30 1
     5    2    3 1
     6    3    8 ar
     7    3    4 ar
     8    4    5 ar
     9    4   31 1
    10    5    6 ar
    11    5   32 1
    12    6    7 ar
    13    6    9 1
    14    7    8 ar
    15    7   33 1
    16    8   34 1
    17    9   13 1
    18    9   10 2
    19   10   11 1
    20   11   12 2
    21   11   24 1
    22   12   13 1
    23   12   35 1
    24   13   14 1
    25   14   19 ar
    26   14   15 ar
    27   15   16 ar
    28   15   36 1
    29   16   17 ar
    30   16   37 1
    31   17   18 ar
    32   17   20 1
    33   18   19 ar
    34   18   38 1
    35   19   39 1
    36   20   21 2
    37   20   22 2
    38   20   23 1
    39   23   40 1
    40   23   41 1
    41   23   42 1
    42   24   25 1
    43   24   26 1
    44   24   27 1
@<TRIPOS>MOLECULE
ZINC03814584
   43    45     0     0     0
SMALL
USER_CHARGES

@<TRIPOS>ATOM
      1 C1          4.6233    2.9320    5.6082 C.3       1 <0>        -0.1621
      2 S1          3.9172    3.6785    7.1032 S.3       1 <0>        -0.0469
      3 C2          2.1765    3.5487    6.8631 C.ar      1 <0>        -0.0298
      4 C3          1.3038    4.0310    7.8336 C.ar      1 <0>        -0.0979
      5 C4         -0.0574    3.9313    7.6484 C.ar      1 <0>        -0.0397
      6 C5         -0.5615    3.3450    6.4853 C.ar      1 <0>        -0.1281
      7 C6          0.3169    2.8565    5.5154 C.ar      1 <0>        -0.0395
      8 C7          1.6771    2.9636    5.7036 C.ar      1 <0>        -0.1352
      9 C8         -2.0212    3.2361    6.2839 C.cat     1 <0>         0.4284
     10 C9         -4.1482    3.1532    6.6782 C.2       1 <0>        -0.0723
     11 C10        -3.9990    3.0038    5.3469 C.2       1 <0>         0.1179
     12 N1         -2.6532    3.0586    5.0849 N.pl3     1 <0>        -0.3743
     13 C11        -2.0427    2.9477    3.8284 C.ar      1 <0>         0.1108
     14 C12        -2.2689    1.8262    3.0417 C.ar      1 <0>        -0.1073
     15 C13        -1.6661    1.7200    1.8035 C.ar      1 <0>        -0.0013
     16 C14        -0.8384    2.7293    1.3471 C.ar      1 <0>        -0.6299
     17 C15        -0.6070    3.8450    2.1305 C.ar      1 <0>        -0.0044
     18 C16        -1.2108    3.9592    3.3675 C.ar      1 <0>        -0.1093
     19 S2         -0.0712    2.5901   -0.2330 S.o2      1 <0>         2.4915
     20 O1          0.0169    1.1920   -0.4714 O.2       1 <0>        -0.9208
     21 O2          1.1033    3.3841   -0.1370 O.2       1 <0>        -0.9221
     22 C17        -1.2451    3.3483   -1.3896 C.3       1 <0>        -0.6451
     23 C18        -5.4585    3.1582    7.4226 C.3       1 <0>         0.5537
     24 F1         -5.7804    1.8527    7.8090 F         1 <0>        -0.1479
     25 F2         -5.3462    3.9666    8.5589 F         1 <0>        -0.1572
     26 F3         -6.4654    3.6601    6.5910 F         1 <0>        -0.1439
     27 H1          5.7113    2.9660    5.6642 H         1 <0>         0.1243
     28 H2          4.2956    1.8954    5.5302 H         1 <0>         0.0935
     29 H3          4.2871    3.4863    4.7319 H         1 <0>         0.0946
     30 H4          1.6941    4.4844    8.7328 H         1 <0>         0.1544
     31 H5         -0.7343    4.3059    8.4020 H         1 <0>         0.1406
     32 H6         -0.0701    2.3990    4.6169 H         1 <0>         0.1393
     33 H7          2.3568    2.5895    4.9523 H         1 <0>         0.1472
     34 H8         -4.7891    2.8669    4.6234 H         1 <0>         0.2415
     35 H9         -2.9158    1.0379    3.3974 H         1 <0>         0.1552
     36 H10        -1.8416    0.8479    1.1911 H         1 <0>         0.1695
     37 H11         0.0431    4.6298    1.7731 H         1 <0>         0.1683
     38 H12        -1.0329    4.8327    3.9772 H         1 <0>         0.1522
     39 H13        -2.1917    2.8092   -1.3521 H         1 <0>         0.1356
     40 H14        -1.4086    4.3894   -1.1111 H         1 <0>         0.1353
     41 H15        -0.8404    3.3020   -2.4006 H         1 <0>         0.1436
     42 N2         -2.9359    3.2962    7.2263 N.pl3     1 <0>        -0.4682
     43 H16        -2.7492    3.4316    8.2268 H         1 <0>         0.4859
@<TRIPOS>BOND
     1    1    2 1
     2    1   27 1
     3    1   28 1
     4    1   29 1
     5    2    3 1
     6    3    8 ar
     7    3    4 ar
     8    4    5 ar
     9    4   30 1
    10    5    6 ar
    11    5   31 1
    12    6    7 ar
    13    6    9 1
    14    7    8 ar
    15    7   32 1
    16    8   33 1
    17    9   12 1
    18    9   42 2
    19   10   11 2
    20   10   23 1
    21   10   42 1
    22   11   12 1
    23   11   34 1
    24   12   13 1
    25   13   18 ar
    26   13   14 ar
    27   14   15 ar
    28   14   35 1
    29   15   16 ar
    30   15   36 1
    31   16   17 ar
    32   16   19 1
    33   17   18 ar
    34   17   37 1
    35   18   38 1
    36   19   20 2
    37   19   21 2
    38   19   22 1
    39   22   39 1
    40   22   40 1
    41   22   41 1
    42   23   24 1
    43   23   25 1
    44   23   26 1
    45   42   43 1
@<TRIPOS>MOLECULE
ZINC03814585
   37    39     0     0     0
SMALL
USER_CHARGES

@<TRIPOS>ATOM
      1 C1          4.2318   -0.5227    0.2303 C.ar      1 <0>        -0.0954
      2 C2          5.6111   -0.5308    0.2435 C.ar      1 <0>        -0.1057
      3 C3          6.3148    0.6496    0.0729 C.ar      1 <0>        -0.0174
      4 C4          5.6394    1.8435   -0.1172 C.ar      1 <0>        -0.1069
      5 C5          4.2604    1.8632   -0.1376 C.ar      1 <0>        -0.0567
      6 C6          3.5457    0.6767    0.0338 C.ar      1 <0>        -0.0255
      7 C7          2.0674    0.6913    0.0135 C.2       1 <0>         0.2783
      8 N1          1.3047    1.7431    0.2153 N.2       1 <0>        -0.4255
      9 C8          0.0196    1.3824    0.1210 C.2       1 <0>        -0.0809
     10 C9         -0.0344    0.0622   -0.1488 C.2       1 <0>         0.0376
     11 N2          1.2594   -0.3861   -0.2191 N.pl3     1 <0>        -0.4139
     12 C10         1.6742   -1.6992   -0.4794 C.ar      1 <0>         0.1622
     13 C11         2.5218   -1.9621   -1.5471 C.ar      1 <0>        -0.1235
     14 C12         2.9327   -3.2566   -1.7983 C.ar      1 <0>         0.0012
     15 C13         2.4924   -4.2916   -0.9939 C.ar      1 <0>        -0.6688
     16 C14         1.6440   -4.0336    0.0671 C.ar      1 <0>        -0.0019
     17 C15         1.2338   -2.7405    0.3264 C.ar      1 <0>        -0.1288
     18 S1          3.0140   -5.9425   -1.3212 S.o2      1 <0>         2.7019
     19 O1          4.2386   -5.8475   -2.0357 O.2       1 <0>        -0.9539
     20 O2          2.8996   -6.6548   -0.0969 O.2       1 <0>        -0.9520
     21 N3          1.9098   -6.6078   -2.3607 N.pl3     1 <0>        -1.2459
     22 C16        -1.1666    2.2978    0.2824 C.3       1 <0>         0.5572
     23 F1         -1.5607    2.3181    1.6246 F         1 <0>        -0.1698
     24 F2         -0.8159    3.5909   -0.1202 F         1 <0>        -0.1637
     25 F3         -2.2243    1.8342   -0.5073 F         1 <0>        -0.1712
     26 Cl1         8.0505    0.6327    0.0979 Cl        1 <0>        -0.0560
     27 H1          3.6840   -1.4432    0.3679 H         1 <0>         0.1328
     28 H2          6.1432   -1.4589    0.3910 H         1 <0>         0.1430
     29 H3          6.1935    2.7610   -0.2493 H         1 <0>         0.1452
     30 H4          3.7347    2.7950   -0.2855 H         1 <0>         0.1484
     31 H5         -0.9275   -0.5297   -0.2843 H         1 <0>         0.2000
     32 H6          2.8625   -1.1547   -2.1784 H         1 <0>         0.1467
     33 H7          3.5956   -3.4612   -2.6260 H         1 <0>         0.1590
     34 H8          1.3014   -4.8440    0.6934 H         1 <0>         0.1590
     35 H9          0.5708   -2.5396    1.1550 H         1 <0>         0.1480
     36 H10         2.1878   -7.2896   -2.9923 H         1 <0>         0.4249
     37 H11         0.9851   -6.3157   -2.3381 H         1 <0>         0.4181
@<TRIPOS>BOND
     1    1    6 ar
     2    1    2 ar
     3    1   27 1
     4    2    3 ar
     5    2   28 1
     6    3    4 ar
     7    3   26 1
     8    4    5 ar
     9    4   29 1
    10    5    6 ar
    11    5   30 1
    12    6    7 1
    13    7   11 1
    14    7    8 2
    15    8    9 1
    16    9   10 2
    17    9   22 1
    18   10   11 1
    19   10   31 1
    20   11   12 1
    21   12   17 ar
    22   12   13 ar
    23   13   14 ar
    24   13   32 1
    25   14   15 ar
    26   14   33 1
    27   15   16 ar
    28   15   18 1
    29   16   17 ar
    30   16   34 1
    31   17   35 1
    32   18   19 2
    33   18   20 2
    34   18   21 1
    35   21   36 1
    36   21   37 1
    37   22   23 1
    38   22   24 1
    39   22   25 1
@<TRIPOS>MOLECULE
ZINC03814585
   38    40     0     0     0
SMALL
USER_CHARGES

@<TRIPOS>ATOM
      1 C1          4.2318   -0.5227    0.2303 C.ar      1 <0>        -0.0563
      2 C2          5.6111   -0.5308    0.2435 C.ar      1 <0>        -0.1011
      3 C3          6.3148    0.6496    0.0729 C.ar      1 <0>         0.0179
      4 C4          5.6394    1.8435   -0.1172 C.ar      1 <0>        -0.1008
      5 C5          4.2604    1.8632   -0.1376 C.ar      1 <0>        -0.0519
      6 C6          3.5457    0.6767    0.0338 C.ar      1 <0>        -0.1069
      7 C7          2.0674    0.6913    0.0135 C.cat     1 <0>         0.4196
      8 C8          0.0196    1.3824    0.1210 C.2       1 <0>        -0.0702
      9 C9         -0.0344    0.0622   -0.1488 C.2       1 <0>         0.1211
     10 N1          1.2594   -0.3861   -0.2191 N.pl3     1 <0>        -0.3690
     11 C10         1.6742   -1.6992   -0.4794 C.ar      1 <0>         0.1105
     12 C11         2.5218   -1.9621   -1.5471 C.ar      1 <0>        -0.1111
     13 C12         2.9327   -3.2566   -1.7983 C.ar      1 <0>         0.0048
     14 C13         2.4924   -4.2916   -0.9939 C.ar      1 <0>        -0.6461
     15 C14         1.6440   -4.0336    0.0671 C.ar      1 <0>         0.0025
     16 C15         1.2338   -2.7405    0.3264 C.ar      1 <0>        -0.1066
     17 S1          3.0140   -5.9425   -1.3212 S.o2      1 <0>         2.6972
     18 O1          4.2386   -5.8475   -2.0357 O.2       1 <0>        -0.9444
     19 O2          2.8996   -6.6548   -0.0969 O.2       1 <0>        -0.9407
     20 N2          1.9098   -6.6078   -2.3607 N.pl3     1 <0>        -1.2424
     21 C16        -1.1666    2.2978    0.2824 C.3       1 <0>         0.5538
     22 F1         -1.5607    2.3181    1.6246 F         1 <0>        -0.1468
     23 F2         -0.8159    3.5909   -0.1202 F         1 <0>        -0.1565
     24 F3         -2.2243    1.8342   -0.5073 F         1 <0>        -0.1427
     25 Cl1         8.0505    0.6327    0.0979 Cl        1 <0>        -0.0174
     26 H1          3.6840   -1.4432    0.3679 H         1 <0>         0.1459
     27 H2          6.1432   -1.4589    0.3910 H         1 <0>         0.1604
     28 H3          6.1935    2.7610   -0.2493 H         1 <0>         0.1614
     29 H4          3.7347    2.7950   -0.2855 H         1 <0>         0.1459
     30 H5         -0.9275   -0.5297   -0.2843 H         1 <0>         0.2439
     31 H6          2.8625   -1.1547   -2.1784 H         1 <0>         0.1536
     32 H7          3.5956   -3.4612   -2.6260 H         1 <0>         0.1704
     33 H8          1.3014   -4.8440    0.6934 H         1 <0>         0.1713
     34 H9          0.5708   -2.5396    1.1550 H         1 <0>         0.1572
     35 H10         2.1878   -7.2896   -2.9923 H         1 <0>         0.4296
     36 H11         0.9851   -6.3157   -2.3381 H         1 <0>         0.4187
     37 N3          1.3044    1.7422    0.2151 N.pl3     1 <0>        -0.4619
     38 H12         1.6419    2.6913    0.4138 H         1 <0>         0.4872
@<TRIPOS>BOND
     1    1    6 ar
     2    1    2 ar
     3    1   26 1
     4    2    3 ar
     5    2   27 1
     6    3    4 ar
     7    3   25 1
     8    4    5 ar
     9    4   28 1
    10    5    6 ar
    11    5   29 1
    12    6    7 1
    13    7   10 1
    14    7   37 2
    15    8    9 2
    16    8   21 1
    17    8   37 1
    18    9   10 1
    19    9   30 1
    20   10   11 1
    21   11   16 ar
    22   11   12 ar
    23   12   13 ar
    24   12   31 1
    25   13   14 ar
    26   13   32 1
    27   14   15 ar
    28   14   17 1
    29   15   16 ar
    30   15   33 1
    31   16   34 1
    32   17   18 2
    33   17   19 2
    34   17   20 1
    35   20   35 1
    36   20   36 1
    37   21   22 1
    38   21   23 1
    39   21   24 1
    40   37   38 1
@<TRIPOS>MOLECULE
ZINC03814586
   37    39     0     0     0
SMALL
USER_CHARGES

@<TRIPOS>ATOM
      1 C1          6.2067    0.6910   -1.0818 C.ar      1 <0>        -0.0979
      2 C2          5.6032   -0.4668   -0.6241 C.ar      1 <0>        -0.1172
      3 C3          4.2519   -0.4806   -0.3466 C.ar      1 <0>        -0.0696
      4 C4          3.4935    0.6767   -0.5284 C.ar      1 <0>        -0.0325
      5 C5          4.1073    1.8398   -0.9953 C.ar      1 <0>        -0.1040
      6 C6          5.4605    1.8417   -1.2641 C.ar      1 <0>        -0.1160
      7 C7          2.0445    0.6689   -0.2333 C.2       1 <0>         0.2824
      8 N1          1.2653   -0.3900   -0.2289 N.2       1 <0>        -0.4291
      9 C8          0.0174   -0.0196    0.0808 C.2       1 <0>        -0.0818
     10 C9          0.0050    1.3145    0.2787 C.2       1 <0>         0.0335
     11 N2          1.2860    1.7611    0.0819 N.pl3     1 <0>        -0.4151
     12 C10         1.7325    3.0855    0.1840 C.ar      1 <0>         0.1658
     13 C11         2.7622    3.4070    1.0581 C.ar      1 <0>        -0.1217
     14 C12         3.2033    4.7124    1.1531 C.ar      1 <0>         0.0019
     15 C13         2.6135    5.7005    0.3863 C.ar      1 <0>        -0.6697
     16 C14         1.5842    5.3843   -0.4814 C.ar      1 <0>        -0.0026
     17 C15         1.1423    4.0798   -0.5846 C.ar      1 <0>        -0.1303
     18 S1          3.1749    7.3657    0.5147 S.o2      1 <0>         2.7025
     19 O1          4.5118    7.3078    0.9929 O.2       1 <0>        -0.9548
     20 O2          2.8295    8.0060   -0.7060 O.2       1 <0>        -0.9528
     21 N3          2.2788    8.0944    1.7015 N.pl3     1 <0>        -1.2460
     22 C16        -1.1728   -0.9375    0.1896 C.3       1 <0>         0.5572
     23 F1         -1.8025   -1.0342   -1.0559 F         1 <0>        -0.1703
     24 F2         -0.7473   -2.2065    0.5969 F         1 <0>        -0.1641
     25 F3         -2.0735   -0.4239    1.1289 F         1 <0>        -0.1716
     26 H1          7.2650    0.6967   -1.2973 H         1 <0>         0.1304
     27 H2          6.1912   -1.3618   -0.4842 H         1 <0>         0.1334
     28 H3          3.7820   -1.3850    0.0109 H         1 <0>         0.1371
     29 H4          3.5251    2.7375   -1.1420 H         1 <0>         0.1214
     30 H5          5.9376    2.7424   -1.6213 H         1 <0>         0.1312
     31 H6         -0.8526    1.9173    0.5385 H         1 <0>         0.1987
     32 H7          3.2203    2.6365    1.6605 H         1 <0>         0.1456
     33 H8          4.0072    4.9623    1.8296 H         1 <0>         0.1580
     34 H9          1.1253    6.1582   -1.0787 H         1 <0>         0.1582
     35 H10         0.3381    3.8335   -1.2621 H         1 <0>         0.1470
     36 H11         2.6646    8.8107    2.2296 H         1 <0>         0.4246
     37 H12         1.3682    7.8049    1.8684 H         1 <0>         0.4181
@<TRIPOS>BOND
     1    1    6 ar
     2    1    2 ar
     3    1   26 1
     4    2    3 ar
     5    2   27 1
     6    3    4 ar
     7    3   28 1
     8    4    5 ar
     9    4    7 1
    10    5    6 ar
    11    5   29 1
    12    6   30 1
    13    7   11 1
    14    7    8 2
    15    8    9 1
    16    9   10 2
    17    9   22 1
    18   10   11 1
    19   10   31 1
    20   11   12 1
    21   12   17 ar
    22   12   13 ar
    23   13   14 ar
    24   13   32 1
    25   14   15 ar
    26   14   33 1
    27   15   16 ar
    28   15   18 1
    29   16   17 ar
    30   16   34 1
    31   17   35 1
    32   18   19 2
    33   18   20 2
    34   18   21 1
    35   21   36 1
    36   21   37 1
    37   22   23 1
    38   22   24 1
    39   22   25 1
@<TRIPOS>MOLECULE
ZINC03814586
   38    40     0     0     0
SMALL
USER_CHARGES

@<TRIPOS>ATOM
      1 C1          6.2067    0.6910   -1.0818 C.ar      1 <0>        -0.0530
      2 C2          5.6032   -0.4668   -0.6241 C.ar      1 <0>        -0.1075
      3 C3          4.2519   -0.4806   -0.3466 C.ar      1 <0>        -0.0666
      4 C4          3.4935    0.6767   -0.5284 C.ar      1 <0>        -0.1106
      5 C5          4.1073    1.8398   -0.9953 C.ar      1 <0>        -0.0673
      6 C6          5.4605    1.8417   -1.2641 C.ar      1 <0>        -0.1078
      7 C7          2.0445    0.6689   -0.2333 C.cat     1 <0>         0.4222
      8 C8          0.0174   -0.0196    0.0808 C.2       1 <0>        -0.0722
      9 C9          0.0050    1.3145    0.2787 C.2       1 <0>         0.1190
     10 N1          1.2860    1.7611    0.0819 N.pl3     1 <0>        -0.3708
     11 C10         1.7325    3.0855    0.1840 C.ar      1 <0>         0.1140
     12 C11         2.7622    3.4070    1.0581 C.ar      1 <0>        -0.1087
     13 C12         3.2033    4.7124    1.1531 C.ar      1 <0>         0.0053
     14 C13         2.6135    5.7005    0.3863 C.ar      1 <0>        -0.6469
     15 C14         1.5842    5.3843   -0.4814 C.ar      1 <0>         0.0019
     16 C15         1.1423    4.0798   -0.5846 C.ar      1 <0>        -0.1085
     17 S1          3.1749    7.3657    0.5147 S.o2      1 <0>         2.6978
     18 O1          4.5118    7.3078    0.9929 O.2       1 <0>        -0.9453
     19 O2          2.8295    8.0060   -0.7060 O.2       1 <0>        -0.9415
     20 N2          2.2788    8.0944    1.7015 N.pl3     1 <0>        -1.2425
     21 C16        -1.1728   -0.9375    0.1896 C.3       1 <0>         0.5539
     22 F1         -1.8025   -1.0342   -1.0559 F         1 <0>        -0.1473
     23 F2         -0.7473   -2.2065    0.5969 F         1 <0>        -0.1569
     24 F3         -2.0735   -0.4239    1.1289 F         1 <0>        -0.1432
     25 H1          7.2650    0.6967   -1.2973 H         1 <0>         0.1485
     26 H2          6.1912   -1.3618   -0.4842 H         1 <0>         0.1504
     27 H3          3.7820   -1.3850    0.0109 H         1 <0>         0.1361
     28 H4          3.5251    2.7375   -1.1420 H         1 <0>         0.1352
     29 H5          5.9376    2.7424   -1.6213 H         1 <0>         0.1495
     30 H6         -0.8526    1.9173    0.5385 H         1 <0>         0.2429
     31 H7          3.2203    2.6365    1.6605 H         1 <0>         0.1524
     32 H8          4.0072    4.9623    1.8296 H         1 <0>         0.1693
     33 H9          1.1253    6.1582   -1.0787 H         1 <0>         0.1705
     34 H10         0.3381    3.8335   -1.2621 H         1 <0>         0.1562
     35 H11         2.6646    8.8107    2.2296 H         1 <0>         0.4294
     36 H12         1.3682    7.8049    1.8684 H         1 <0>         0.4187
     37 N3          1.2650   -0.3890   -0.2287 N.pl3     1 <0>        -0.4635
     38 H13         1.5666   -1.3494   -0.4311 H         1 <0>         0.4869
@<TRIPOS>BOND
     1    1    6 ar
     2    1    2 ar
     3    1   25 1
     4    2    3 ar
     5    2   26 1
     6    3    4 ar
     7    3   27 1
     8    4    5 ar
     9    4    7 1
    10    5    6 ar
    11    5   28 1
    12    6   29 1
    13    7   10 1
    14    7   37 2
    15    8    9 2
    16    8   21 1
    17    8   37 1
    18    9   10 1
    19    9   30 1
    20   10   11 1
    21   11   16 ar
    22   11   12 ar
    23   12   13 ar
    24   12   31 1
    25   13   14 ar
    26   13   32 1
    27   14   15 ar
    28   14   17 1
    29   15   16 ar
    30   15   33 1
    31   16   34 1
    32   17   18 2
    33   17   19 2
    34   17   20 1
    35   20   35 1
    36   20   36 1
    37   21   22 1
    38   21   23 1
    39   21   24 1
    40   37   38 1
@<TRIPOS>MOLECULE
ZINC03814588
   42    44     0     0     0
SMALL
USER_CHARGES

@<TRIPOS>ATOM
      1 C1          3.9415    2.6666    5.0247 C.3       1 <0>         0.0250
      2 O1          2.5450    2.5193    4.7600 O.3       1 <0>        -0.3131
      3 C2          1.6855    2.9874    5.7029 C.ar      1 <0>         0.1335
      4 C3          2.1782    3.5767    6.8597 C.ar      1 <0>        -0.1896
      5 C4          1.3086    4.0538    7.8226 C.ar      1 <0>        -0.0759
      6 C5         -0.0553    3.9474    7.6403 C.ar      1 <0>        -0.1073
      7 C6         -0.5597    3.3571    6.4807 C.ar      1 <0>         0.0092
      8 C7          0.3191    2.8717    5.5121 C.ar      1 <0>        -0.1435
      9 C8         -2.0204    3.2409    6.2823 C.2       1 <0>         0.2795
     10 N1         -2.9325    3.2928    7.2277 N.2       1 <0>        -0.4246
     11 C9         -4.1453    3.1514    6.6805 C.2       1 <0>        -0.0832
     12 C10        -3.9982    3.0114    5.3472 C.2       1 <0>         0.0370
     13 N2         -2.6537    3.0607    5.0847 N.pl3     1 <0>        -0.4117
     14 C11        -2.0449    2.9530    3.8271 C.ar      1 <0>         0.1575
     15 C12        -2.2765    1.8360    3.0355 C.ar      1 <0>        -0.1279
     16 C13        -1.6753    1.7329    1.7963 C.ar      1 <0>        -0.0055
     17 C14        -0.8436    2.7407    1.3438 C.ar      1 <0>        -0.6495
     18 C15        -0.6068    3.8518    2.1320 C.ar      1 <0>        -0.0046
     19 C16        -1.2092    3.9631    3.3700 C.ar      1 <0>        -0.1189
     20 S1         -0.0781    2.6052   -0.2375 S.o2      1 <0>         2.4985
     21 O2          0.0038    1.2078   -0.4822 O.2       1 <0>        -0.9304
     22 O3          1.1000    3.3936   -0.1387 O.2       1 <0>        -0.9293
     23 C17        -1.2495    3.3737   -1.3898 C.3       1 <0>        -0.6494
     24 C18        -5.4545    3.1554    7.4269 C.3       1 <0>         0.5566
     25 F1         -5.2214    3.4438    8.7758 F         1 <0>        -0.1622
     26 F2         -6.2993    4.1280    6.8813 F         1 <0>        -0.1716
     27 F3         -6.0582    1.8982    7.3163 F         1 <0>        -0.1712
     28 H1          4.5143    2.2528    4.1948 H         1 <0>         0.1046
     29 H2          4.1800    3.7240    5.1393 H         1 <0>         0.0586
     30 H3          4.1955    2.1354    5.9421 H         1 <0>         0.0580
     31 H4          3.2446    3.6623    7.0078 H         1 <0>         0.1354
     32 H5          1.6977    4.5109    8.7204 H         1 <0>         0.1368
     33 H6         -0.7320    4.3212    8.3945 H         1 <0>         0.1401
     34 H7         -0.0654    2.4098    4.6147 H         1 <0>         0.1331
     35 H8         -4.7895    2.8820    4.6238 H         1 <0>         0.1984
     36 H9         -2.9263    1.0488    3.3883 H         1 <0>         0.1459
     37 H10        -1.8554    0.8645    1.1800 H         1 <0>         0.1574
     38 H11         0.0468    4.6352    1.7778 H         1 <0>         0.1568
     39 H12        -1.0272    4.8331    3.9834 H         1 <0>         0.1442
     40 H13        -2.1984    2.8386   -1.3541 H         1 <0>         0.1332
     41 H14        -1.4082    4.4142   -1.1065 H         1 <0>         0.1332
     42 H15        -0.8457    3.3301   -2.4013 H         1 <0>         0.1367
@<TRIPOS>BOND
     1    1    2 1
     2    1   28 1
     3    1   29 1
     4    1   30 1
     5    2    3 1
     6    3    8 ar
     7    3    4 ar
     8    4    5 ar
     9    4   31 1
    10    5    6 ar
    11    5   32 1
    12    6    7 ar
    13    6   33 1
    14    7    8 ar
    15    7    9 1
    16    8   34 1
    17    9   13 1
    18    9   10 2
    19   10   11 1
    20   11   12 2
    21   11   24 1
    22   12   13 1
    23   12   35 1
    24   13   14 1
    25   14   19 ar
    26   14   15 ar
    27   15   16 ar
    28   15   36 1
    29   16   17 ar
    30   16   37 1
    31   17   18 ar
    32   17   20 1
    33   18   19 ar
    34   18   38 1
    35   19   39 1
    36   20   21 2
    37   20   22 2
    38   20   23 1
    39   23   40 1
    40   23   41 1
    41   23   42 1
    42   24   25 1
    43   24   26 1
    44   24   27 1
@<TRIPOS>MOLECULE
ZINC03814588
   43    45     0     0     0
SMALL
USER_CHARGES

@<TRIPOS>ATOM
      1 C1          3.9415    2.6666    5.0247 C.3       1 <0>         0.0187
      2 O1          2.5450    2.5193    4.7600 O.3       1 <0>        -0.3044
      3 C2          1.6855    2.9874    5.7029 C.ar      1 <0>         0.1466
      4 C3          2.1782    3.5767    6.8597 C.ar      1 <0>        -0.1511
      5 C4          1.3086    4.0538    7.8226 C.ar      1 <0>        -0.0643
      6 C5         -0.0553    3.9474    7.6403 C.ar      1 <0>        -0.1072
      7 C6         -0.5597    3.3571    6.4807 C.ar      1 <0>        -0.0663
      8 C7          0.3191    2.8717    5.5121 C.ar      1 <0>        -0.1127
      9 C8         -2.0204    3.2409    6.2823 C.cat     1 <0>         0.4196
     10 C9         -4.1453    3.1514    6.6805 C.2       1 <0>        -0.0724
     11 C10        -3.9982    3.0114    5.3472 C.2       1 <0>         0.1210
     12 N1         -2.6537    3.0607    5.0847 N.pl3     1 <0>        -0.3663
     13 C11        -2.0449    2.9530    3.8271 C.ar      1 <0>         0.1056
     14 C12        -2.2765    1.8360    3.0355 C.ar      1 <0>        -0.1057
     15 C13        -1.6753    1.7329    1.7963 C.ar      1 <0>        -0.0014
     16 C14        -0.8436    2.7407    1.3438 C.ar      1 <0>        -0.6265
     17 C15        -0.6068    3.8518    2.1320 C.ar      1 <0>        -0.0016
     18 C16        -1.2092    3.9631    3.3700 C.ar      1 <0>        -0.1062
     19 S1         -0.0781    2.6052   -0.2375 S.o2      1 <0>         2.4914
     20 O2          0.0038    1.2078   -0.4822 O.2       1 <0>        -0.9204
     21 O3          1.1000    3.3936   -0.1387 O.2       1 <0>        -0.9205
     22 C17        -1.2495    3.3737   -1.3898 C.3       1 <0>        -0.6458
     23 C18        -5.4545    3.1554    7.4269 C.3       1 <0>         0.5546
     24 F1         -5.2214    3.4438    8.7758 F         1 <0>        -0.1589
     25 F2         -6.2993    4.1280    6.8813 F         1 <0>        -0.1441
     26 F3         -6.0582    1.8982    7.3163 F         1 <0>        -0.1445
     27 H1          4.5143    2.2528    4.1948 H         1 <0>         0.1155
     28 H2          4.1800    3.7240    5.1393 H         1 <0>         0.0660
     29 H3          4.1955    2.1354    5.9421 H         1 <0>         0.0652
     30 H4          3.2446    3.6623    7.0078 H         1 <0>         0.1520
     31 H5          1.6977    4.5109    8.7204 H         1 <0>         0.1533
     32 H6         -0.7320    4.3212    8.3945 H         1 <0>         0.1376
     33 H7         -0.0654    2.4098    4.6147 H         1 <0>         0.1460
     34 H8         -4.7895    2.8820    4.6238 H         1 <0>         0.2430
     35 H9         -2.9263    1.0488    3.3883 H         1 <0>         0.1551
     36 H10        -1.8554    0.8645    1.1800 H         1 <0>         0.1696
     37 H11         0.0468    4.6352    1.7778 H         1 <0>         0.1681
     38 H12        -1.0272    4.8331    3.9834 H         1 <0>         0.1511
     39 H13        -2.1984    2.8386   -1.3541 H         1 <0>         0.1353
     40 H14        -1.4082    4.4142   -1.1065 H         1 <0>         0.1350
     41 H15        -0.8457    3.3301   -2.4013 H         1 <0>         0.1433
     42 N2         -2.9327    3.2927    7.2267 N.pl3     1 <0>        -0.4608
     43 H16        -2.7440    3.4215    8.2277 H         1 <0>         0.4873
@<TRIPOS>BOND
     1    1    2 1
     2    1   27 1
     3    1   28 1
     4    1   29 1
     5    2    3 1
     6    3    8 ar
     7    3    4 ar
     8    4    5 ar
     9    4   30 1
    10    5    6 ar
    11    5   31 1
    12    6    7 ar
    13    6   32 1
    14    7    8 ar
    15    7    9 1
    16    8   33 1
    17    9   12 1
    18    9   42 2
    19   10   11 2
    20   10   23 1
    21   10   42 1
    22   11   12 1
    23   11   34 1
    24   12   13 1
    25   13   18 ar
    26   13   14 ar
    27   14   15 ar
    28   14   35 1
    29   15   16 ar
    30   15   36 1
    31   16   17 ar
    32   16   19 1
    33   17   18 ar
    34   17   37 1
    35   18   38 1
    36   19   20 2
    37   19   21 2
    38   19   22 1
    39   22   39 1
    40   22   40 1
    41   22   41 1
    42   23   24 1
    43   23   25 1
    44   23   26 1
    45   42   43 1
@<TRIPOS>MOLECULE
ZINC03814589
   42    44     0     0     0
SMALL
USER_CHARGES

@<TRIPOS>ATOM
      1 C1          4.4411    2.7447    5.1687 C.3       1 <0>        -0.1457
      2 S1          2.8011    2.3819    4.4837 S.3       1 <0>        -0.1075
      3 C2          1.6852    2.9881    5.7051 C.ar      1 <0>        -0.0804
      4 C3          2.1768    3.5791    6.8643 C.ar      1 <0>        -0.1160
      5 C4          1.3055    4.0560    7.8249 C.ar      1 <0>        -0.0952
      6 C5         -0.0585    3.9487    7.6408 C.ar      1 <0>        -0.0759
      7 C6         -0.5621    3.3577    6.4808 C.ar      1 <0>        -0.0098
      8 C7          0.3165    2.8715    5.5134 C.ar      1 <0>        -0.0893
      9 C8         -2.0228    3.2422    6.2813 C.2       1 <0>         0.2792
     10 N1         -2.9356    3.2954    7.2260 N.2       1 <0>        -0.4258
     11 C9         -4.1481    3.1543    6.6780 C.2       1 <0>        -0.0829
     12 C10        -3.9999    3.0123    5.3451 C.2       1 <0>         0.0370
     13 N2         -2.6553    3.0614    5.0834 N.pl3     1 <0>        -0.4119
     14 C11        -2.0456    2.9530    3.8263 C.ar      1 <0>         0.1564
     15 C12        -2.2767    1.8358    3.0351 C.ar      1 <0>        -0.1285
     16 C13        -1.6748    1.7320    1.7963 C.ar      1 <0>        -0.0047
     17 C14        -0.8430    2.7397    1.3437 C.ar      1 <0>        -0.6495
     18 C15        -0.6064    3.8510    2.1318 C.ar      1 <0>        -0.0034
     19 C16        -1.2095    3.9629    3.3693 C.ar      1 <0>        -0.1213
     20 S2         -0.0773    2.6039   -0.2374 S.o2      1 <0>         2.4969
     21 O1          0.0046    1.2065   -0.4819 O.2       1 <0>        -0.9297
     22 O2          1.1008    3.3924   -0.1387 O.2       1 <0>        -0.9267
     23 C17        -1.2485    3.3722   -1.3900 C.3       1 <0>        -0.6500
     24 C18        -5.4578    3.1590    7.4234 C.3       1 <0>         0.5565
     25 F1         -5.2256    3.4476    8.7725 F         1 <0>        -0.1623
     26 F2         -6.3019    4.1317    6.8770 F         1 <0>        -0.1715
     27 F3         -6.0619    1.9020    7.3128 F         1 <0>        -0.1712
     28 H1          5.2086    2.4017    4.4750 H         1 <0>         0.1132
     29 H2          4.5420    3.8194    5.3199 H         1 <0>         0.0865
     30 H3          4.5580    2.2310    6.1229 H         1 <0>         0.0860
     31 H4          3.2428    3.6653    7.0143 H         1 <0>         0.1305
     32 H5          1.6928    4.5139    8.7230 H         1 <0>         0.1374
     33 H6         -0.7360    4.3224    8.3942 H         1 <0>         0.1413
     34 H7         -0.0675    2.4089    4.6161 H         1 <0>         0.1312
     35 H8         -4.7908    2.8821    4.6212 H         1 <0>         0.1983
     36 H9         -2.9269    1.0488    3.3878 H         1 <0>         0.1460
     37 H10        -1.8542    0.8632    1.1804 H         1 <0>         0.1577
     38 H11         0.0476    4.6342    1.7776 H         1 <0>         0.1580
     39 H12        -1.0276    4.8330    3.9826 H         1 <0>         0.1441
     40 H13        -2.1975    2.8371   -1.3543 H         1 <0>         0.1330
     41 H14        -1.4073    4.4128   -1.1069 H         1 <0>         0.1332
     42 H15        -0.8446    3.3284   -2.4015 H         1 <0>         0.1368
@<TRIPOS>BOND
     1    1    2 1
     2    1   28 1
     3    1   29 1
     4    1   30 1
     5    2    3 1
     6    3    8 ar
     7    3    4 ar
     8    4    5 ar
     9    4   31 1
    10    5    6 ar
    11    5   32 1
    12    6    7 ar
    13    6   33 1
    14    7    8 ar
    15    7    9 1
    16    8   34 1
    17    9   13 1
    18    9   10 2
    19   10   11 1
    20   11   12 2
    21   11   24 1
    22   12   13 1
    23   12   35 1
    24   13   14 1
    25   14   19 ar
    26   14   15 ar
    27   15   16 ar
    28   15   36 1
    29   16   17 ar
    30   16   37 1
    31   17   18 ar
    32   17   20 1
    33   18   19 ar
    34   18   38 1
    35   19   39 1
    36   20   21 2
    37   20   22 2
    38   20   23 1
    39   23   40 1
    40   23   41 1
    41   23   42 1
    42   24   25 1
    43   24   26 1
    44   24   27 1
@<TRIPOS>MOLECULE
ZINC03814589
   43    45     0     0     0
SMALL
USER_CHARGES

@<TRIPOS>ATOM
      1 C1          4.4411    2.7447    5.1687 C.3       1 <0>        -0.1529
      2 S1          2.8011    2.3819    4.4837 S.3       1 <0>        -0.0758
      3 C2          1.6852    2.9881    5.7051 C.ar      1 <0>        -0.0783
      4 C3          2.1768    3.5791    6.8643 C.ar      1 <0>        -0.0800
      5 C4          1.3055    4.0560    7.8249 C.ar      1 <0>        -0.0820
      6 C5         -0.0585    3.9487    7.6408 C.ar      1 <0>        -0.0795
      7 C6         -0.5621    3.3577    6.4808 C.ar      1 <0>        -0.0839
      8 C7          0.3165    2.8715    5.5134 C.ar      1 <0>        -0.0590
      9 C8         -2.0228    3.2422    6.2813 C.cat     1 <0>         0.4196
     10 C9         -4.1481    3.1543    6.6780 C.2       1 <0>        -0.0724
     11 C10        -3.9999    3.0123    5.3451 C.2       1 <0>         0.1208
     12 N1         -2.6553    3.0614    5.0834 N.pl3     1 <0>        -0.3669
     13 C11        -2.0456    2.9530    3.8263 C.ar      1 <0>         0.1047
     14 C12        -2.2767    1.8358    3.0351 C.ar      1 <0>        -0.1062
     15 C13        -1.6748    1.7320    1.7963 C.ar      1 <0>        -0.0008
     16 C14        -0.8430    2.7397    1.3437 C.ar      1 <0>        -0.6267
     17 C15        -0.6064    3.8510    2.1318 C.ar      1 <0>        -0.0008
     18 C16        -1.2095    3.9629    3.3693 C.ar      1 <0>        -0.1084
     19 S2         -0.0773    2.6039   -0.2374 S.o2      1 <0>         2.4897
     20 O1          0.0046    1.2065   -0.4819 O.2       1 <0>        -0.9199
     21 O2          1.1008    3.3924   -0.1387 O.2       1 <0>        -0.9183
     22 C17        -1.2485    3.3722   -1.3900 C.3       1 <0>        -0.6463
     23 C18        -5.4578    3.1590    7.4234 C.3       1 <0>         0.5546
     24 F1         -5.2256    3.4476    8.7725 F         1 <0>        -0.1590
     25 F2         -6.3019    4.1317    6.8770 F         1 <0>        -0.1441
     26 F3         -6.0619    1.9020    7.3128 F         1 <0>        -0.1445
     27 H1          5.2086    2.4017    4.4750 H         1 <0>         0.1231
     28 H2          4.5420    3.8194    5.3199 H         1 <0>         0.0927
     29 H3          4.5580    2.2310    6.1229 H         1 <0>         0.0921
     30 H4          3.2428    3.6653    7.0143 H         1 <0>         0.1461
     31 H5          1.6928    4.5139    8.7230 H         1 <0>         0.1533
     32 H6         -0.7360    4.3224    8.3942 H         1 <0>         0.1382
     33 H7         -0.0675    2.4089    4.6161 H         1 <0>         0.1432
     34 H8         -4.7908    2.8821    4.6212 H         1 <0>         0.2430
     35 H9         -2.9269    1.0488    3.3878 H         1 <0>         0.1553
     36 H10        -1.8542    0.8632    1.1804 H         1 <0>         0.1699
     37 H11         0.0476    4.6342    1.7776 H         1 <0>         0.1692
     38 H12        -1.0276    4.8330    3.9826 H         1 <0>         0.1512
     39 H13        -2.1975    2.8371   -1.3543 H         1 <0>         0.1353
     40 H14        -1.4073    4.4128   -1.1069 H         1 <0>         0.1351
     41 H15        -0.8446    3.3284   -2.4015 H         1 <0>         0.1434
     42 N2         -2.9358    3.2953    7.2250 N.pl3     1 <0>        -0.4617
     43 H16        -2.7478    3.4248    8.2260 H         1 <0>         0.4870
@<TRIPOS>BOND
     1    1    2 1
     2    1   27 1
     3    1   28 1
     4    1   29 1
     5    2    3 1
     6    3    8 ar
     7    3    4 ar
     8    4    5 ar
     9    4   30 1
    10    5    6 ar
    11    5   31 1
    12    6    7 ar
    13    6   32 1
    14    7    8 ar
    15    7    9 1
    16    8   33 1
    17    9   12 1
    18    9   42 2
    19   10   11 2
    20   10   23 1
    21   10   42 1
    22   11   12 1
    23   11   34 1
    24   12   13 1
    25   13   18 ar
    26   13   14 ar
    27   14   15 ar
    28   14   35 1
    29   15   16 ar
    30   15   36 1
    31   16   17 ar
    32   16   19 1
    33   17   18 ar
    34   17   37 1
    35   18   38 1
    36   19   20 2
    37   19   21 2
    38   19   22 1
    39   22   39 1
    40   22   40 1
    41   22   41 1
    42   23   24 1
    43   23   25 1
    44   23   26 1
    45   42   43 1
@<TRIPOS>MOLECULE
ZINC03814590
   43    45     0     0     0
SMALL
USER_CHARGES

@<TRIPOS>ATOM
      1 C1          4.0167    2.6222    4.9399 C.3       1 <0>         0.0908
      2 N1          2.5708    2.5050    4.7351 N.pl3     1 <0>        -0.7508
      3 C2          1.6869    2.9859    5.7040 C.ar      1 <0>         0.2186
      4 C3          2.1792    3.5758    6.8628 C.ar      1 <0>        -0.1767
      5 C4          1.3086    4.0531    7.8242 C.ar      1 <0>        -0.0696
      6 C5         -0.0553    3.9468    7.6406 C.ar      1 <0>        -0.1268
      7 C6         -0.5596    3.3563    6.4809 C.ar      1 <0>         0.0151
      8 C7          0.3186    2.8703    5.5128 C.ar      1 <0>        -0.1862
      9 C8         -2.0204    3.2409    6.2823 C.2       1 <0>         0.2837
     10 N2         -2.9326    3.2934    7.2275 N.2       1 <0>        -0.4269
     11 C9         -4.1454    3.1522    6.6802 C.2       1 <0>        -0.0825
     12 C10        -3.9981    3.0113    5.3471 C.2       1 <0>         0.0326
     13 N3         -2.6536    3.0606    5.0847 N.pl3     1 <0>        -0.4142
     14 C11        -2.0446    2.9528    3.8271 C.ar      1 <0>         0.1633
     15 C12        -2.2762    1.8358    3.0356 C.ar      1 <0>        -0.1292
     16 C13        -1.6750    1.7326    1.7964 C.ar      1 <0>        -0.0065
     17 C14        -0.8431    2.7403    1.3439 C.ar      1 <0>        -0.6535
     18 C15        -0.6064    3.8515    2.1322 C.ar      1 <0>        -0.0085
     19 C16        -1.2089    3.9629    3.3700 C.ar      1 <0>        -0.1163
     20 S1         -0.0775    2.6047   -0.2372 S.o2      1 <0>         2.4982
     21 O1          0.0044    1.2073   -0.4818 O.2       1 <0>        -0.9311
     22 O2          1.1007    3.3930   -0.1384 O.2       1 <0>        -0.9306
     23 C17        -1.2486    3.3732   -1.3898 C.3       1 <0>        -0.6491
     24 C18        -5.4547    3.1566    7.4264 C.3       1 <0>         0.5562
     25 F1         -5.2217    3.4450    8.7754 F         1 <0>        -0.1621
     26 F2         -6.2992    4.1294    6.8807 F         1 <0>        -0.1720
     27 F3         -6.0587    1.8996    7.3158 F         1 <0>        -0.1717
     28 H1          4.5406    2.1953    4.0847 H         1 <0>         0.0761
     29 H2          4.2851    3.6736    5.0425 H         1 <0>         0.0550
     30 H3          4.3002    2.0849    5.8449 H         1 <0>         0.0542
     31 H4          2.2273    2.0934    3.9267 H         1 <0>         0.4008
     32 H5          3.2454    3.6611    7.0122 H         1 <0>         0.1273
     33 H6          1.6968    4.5104    8.7223 H         1 <0>         0.1318
     34 H7         -0.7323    4.3210    8.3943 H         1 <0>         0.1340
     35 H8         -0.0659    2.4084    4.6154 H         1 <0>         0.1222
     36 H9         -4.7893    2.8816    4.6236 H         1 <0>         0.1969
     37 H10        -2.9261    1.0487    3.3883 H         1 <0>         0.1456
     38 H11        -1.8550    0.8642    1.1801 H         1 <0>         0.1568
     39 H12         0.0474    4.6348    1.7779 H         1 <0>         0.1563
     40 H13        -1.0266    4.8327    3.9836 H         1 <0>         0.1451
     41 H14        -2.1976    2.8381   -1.3541 H         1 <0>         0.1334
     42 H15        -1.4074    4.4137   -1.1065 H         1 <0>         0.1335
     43 H16        -0.8447    3.3295   -2.4012 H         1 <0>         0.1369
@<TRIPOS>BOND
     1    1    2 1
     2    1   28 1
     3    1   29 1
     4    1   30 1
     5    2    3 1
     6    2   31 1
     7    3    8 ar
     8    3    4 ar
     9    4    5 ar
    10    4   32 1
    11    5    6 ar
    12    5   33 1
    13    6    7 ar
    14    6   34 1
    15    7    8 ar
    16    7    9 1
    17    8   35 1
    18    9   13 1
    19    9   10 2
    20   10   11 1
    21   11   12 2
    22   11   24 1
    23   12   13 1
    24   12   36 1
    25   13   14 1
    26   14   19 ar
    27   14   15 ar
    28   15   16 ar
    29   15   37 1
    30   16   17 ar
    31   16   38 1
    32   17   18 ar
    33   17   20 1
    34   18   19 ar
    35   18   39 1
    36   19   40 1
    37   20   21 2
    38   20   22 2
    39   20   23 1
    40   23   41 1
    41   23   42 1
    42   23   43 1
    43   24   25 1
    44   24   26 1
    45   24   27 1
@<TRIPOS>MOLECULE
ZINC03814590
   44    46     0     0     0
SMALL
USER_CHARGES

@<TRIPOS>ATOM
      1 C1          4.0167    2.6222    4.9399 C.3       1 <0>         0.0805
      2 N1          2.5708    2.5050    4.7351 N.pl3     1 <0>        -0.7383
      3 C2          1.6869    2.9859    5.7040 C.ar      1 <0>         0.2298
      4 C3          2.1792    3.5758    6.8628 C.ar      1 <0>        -0.1382
      5 C4          1.3086    4.0531    7.8242 C.ar      1 <0>        -0.0580
      6 C5         -0.0553    3.9468    7.6406 C.ar      1 <0>        -0.1278
      7 C6         -0.5596    3.3563    6.4809 C.ar      1 <0>        -0.0575
      8 C7          0.3186    2.8703    5.5128 C.ar      1 <0>        -0.1595
      9 C8         -2.0204    3.2409    6.2823 C.cat     1 <0>         0.4237
     10 C9         -4.1454    3.1522    6.6802 C.2       1 <0>        -0.0732
     11 C10        -3.9981    3.0113    5.3471 C.2       1 <0>         0.1180
     12 N2         -2.6536    3.0606    5.0847 N.pl3     1 <0>        -0.3705
     13 C11        -2.0446    2.9528    3.8271 C.ar      1 <0>         0.1118
     14 C12        -2.2762    1.8358    3.0356 C.ar      1 <0>        -0.1070
     15 C13        -1.6750    1.7326    1.7964 C.ar      1 <0>        -0.0027
     16 C14        -0.8431    2.7403    1.3439 C.ar      1 <0>        -0.6307
     17 C15        -0.6064    3.8515    2.1322 C.ar      1 <0>        -0.0058
     18 C16        -1.2089    3.9629    3.3700 C.ar      1 <0>        -0.1035
     19 S1         -0.0775    2.6047   -0.2372 S.o2      1 <0>         2.4911
     20 O1          0.0044    1.2073   -0.4818 O.2       1 <0>        -0.9212
     21 O2          1.1007    3.3930   -0.1384 O.2       1 <0>        -0.9221
     22 C17        -1.2486    3.3732   -1.3898 C.3       1 <0>        -0.6454
     23 C18        -5.4547    3.1566    7.4264 C.3       1 <0>         0.5544
     24 F1         -5.2217    3.4450    8.7754 F         1 <0>        -0.1589
     25 F2         -6.2992    4.1294    6.8807 F         1 <0>        -0.1446
     26 F3         -6.0587    1.8996    7.3158 F         1 <0>        -0.1452
     27 H1          4.5406    2.1953    4.0847 H         1 <0>         0.0865
     28 H2          4.2851    3.6736    5.0425 H         1 <0>         0.0634
     29 H3          4.3002    2.0849    5.8449 H         1 <0>         0.0625
     30 H4          2.2273    2.0934    3.9267 H         1 <0>         0.4068
     31 H5          3.2454    3.6611    7.0122 H         1 <0>         0.1439
     32 H6          1.6968    4.5104    8.7223 H         1 <0>         0.1483
     33 H7         -0.7323    4.3210    8.3943 H         1 <0>         0.1314
     34 H8         -0.0659    2.4084    4.6154 H         1 <0>         0.1345
     35 H9         -4.7893    2.8816    4.6236 H         1 <0>         0.2415
     36 H10        -2.9261    1.0487    3.3883 H         1 <0>         0.1548
     37 H11        -1.8550    0.8642    1.1801 H         1 <0>         0.1690
     38 H12         0.0474    4.6348    1.7779 H         1 <0>         0.1675
     39 H13        -1.0266    4.8327    3.9836 H         1 <0>         0.1521
     40 H14        -2.1976    2.8381   -1.3541 H         1 <0>         0.1356
     41 H15        -1.4074    4.4137   -1.1065 H         1 <0>         0.1353
     42 H16        -0.8447    3.3295   -2.4012 H         1 <0>         0.1435
     43 N3         -2.9328    3.2933    7.2265 N.pl3     1 <0>        -0.4630
     44 H17        -2.7442    3.4224    8.2275 H         1 <0>         0.4873
@<TRIPOS>BOND
     1    1    2 1
     2    1   27 1
     3    1   28 1
     4    1   29 1
     5    2    3 1
     6    2   30 1
     7    3    8 ar
     8    3    4 ar
     9    4    5 ar
    10    4   31 1
    11    5    6 ar
    12    5   32 1
    13    6    7 ar
    14    6   33 1
    15    7    8 ar
    16    7    9 1
    17    8   34 1
    18    9   12 1
    19    9   43 2
    20   10   11 2
    21   10   23 1
    22   10   43 1
    23   11   12 1
    24   11   35 1
    25   12   13 1
    26   13   18 ar
    27   13   14 ar
    28   14   15 ar
    29   14   36 1
    30   15   16 ar
    31   15   37 1
    32   16   17 ar
    33   16   19 1
    34   17   18 ar
    35   17   38 1
    36   18   39 1
    37   19   20 2
    38   19   21 2
    39   19   22 1
    40   22   40 1
    41   22   41 1
    42   22   42 1
    43   23   24 1
    44   23   25 1
    45   23   26 1
    46   43   44 1
@<TRIPOS>MOLECULE
ZINC03814591
   40    42     0     0     0
SMALL
USER_CHARGES

@<TRIPOS>ATOM
      1 C1         -7.7488    5.2653    0.1602 C.3       1 <0>        -0.6484
      2 S1         -6.7082    4.2322    1.2281 S.o2      1 <0>         2.4983
      3 O1         -6.7227    2.8865    0.7719 O.2       1 <0>        -0.9289
      4 O2         -6.9544    4.5368    2.5940 O.2       1 <0>        -0.9290
      5 C2         -5.0628    4.7893    0.9327 C.ar      1 <0>        -0.6499
      6 C3         -4.5309    5.8083    1.7014 C.ar      1 <0>        -0.0034
      7 C4         -3.2417    6.2474    1.4720 C.ar      1 <0>        -0.1263
      8 C5         -2.4794    5.6643    0.4687 C.ar      1 <0>         0.1520
      9 C6         -3.0181    4.6449   -0.3049 C.ar      1 <0>        -0.1264
     10 C7         -4.3059    4.2062   -0.0669 C.ar      1 <0>        -0.0052
     11 N1         -1.1709    6.1076    0.2336 N.pl3     1 <0>        -0.4096
     12 C8         -0.7842    7.3893   -0.0609 C.2       1 <0>         0.0458
     13 C9          0.5554    7.3717   -0.2154 C.2       1 <0>        -0.0798
     14 N2          0.9879    6.1211   -0.0177 N.2       1 <0>        -0.4175
     15 C10        -0.0371    5.3451    0.2575 C.2       1 <0>         0.2678
     16 C11         0.0255    3.8947    0.5386 C.ar      1 <0>        -0.0200
     17 C12        -0.9889    3.2788    1.2732 C.ar      1 <0>        -0.0584
     18 C13        -0.9272    1.9244    1.5275 C.ar      1 <0>        -0.1078
     19 C14         0.1432    1.1788    1.0657 C.ar      1 <0>        -0.0375
     20 C15         1.1518    1.7832    0.3371 C.ar      1 <0>        -0.0395
     21 C16         1.0992    3.1361    0.0710 C.ar      1 <0>        -0.0115
     22 N3          2.2903    0.9769   -0.1578 N.pl3     1 <0>         0.0247
     23 O3          2.3382   -0.2173    0.0767 O.2       1 <0>        -0.1493
     24 O4          3.1791    1.5077   -0.7994 O.3       1 <0>        -0.1472
     25 C17         1.4190    8.5595   -0.5540 C.3       1 <0>         0.5562
     26 F1          2.7392    8.1372   -0.7436 F         1 <0>        -0.1602
     27 F2          0.9481    9.1591   -1.7269 F         1 <0>        -0.1699
     28 F3          1.3713    9.4846    0.4944 F         1 <0>        -0.1700
     29 H1         -7.4557    5.1233   -0.8800 H         1 <0>         0.1336
     30 H2         -8.7935    4.9804    0.2854 H         1 <0>         0.1382
     31 H3         -7.6227    6.3129    0.4335 H         1 <0>         0.1337
     32 H4         -5.1244    6.2615    2.4817 H         1 <0>         0.1596
     33 H5         -2.8270    7.0438    2.0722 H         1 <0>         0.1481
     34 H6         -2.4292    4.1927   -1.0892 H         1 <0>         0.1446
     35 H7         -4.7238    3.4101   -0.6652 H         1 <0>         0.1593
     36 H8         -1.4305    8.2494   -0.1557 H         1 <0>         0.2021
     37 H9         -1.8224    3.8605    1.6383 H         1 <0>         0.1420
     38 H10        -1.7137    1.4457    2.0920 H         1 <0>         0.1587
     39 H11         0.1891    0.1195    1.2713 H         1 <0>         0.1628
     40 H12         1.8871    3.6067   -0.4983 H         1 <0>         0.1680
@<TRIPOS>BOND
     1    1    2 1
     2    1   29 1
     3    1   30 1
     4    1   31 1
     5    2    3 2
     6    2    4 2
     7    2    5 1
     8    5   10 ar
     9    5    6 ar
    10    6    7 ar
    11    6   32 1
    12    7    8 ar
    13    7   33 1
    14    8    9 ar
    15    8   11 1
    16    9   10 ar
    17    9   34 1
    18   10   35 1
    19   11   15 1
    20   11   12 1
    21   12   13 2
    22   12   36 1
    23   13   14 1
    24   13   25 1
    25   14   15 2
    26   15   16 1
    27   16   21 ar
    28   16   17 ar
    29   17   18 ar
    30   17   37 1
    31   18   19 ar
    32   18   38 1
    33   19   20 ar
    34   19   39 1
    35   20   21 ar
    36   20   22 1
    37   21   40 1
    38   22   23 2
    39   22   24 1
    40   25   26 1
    41   25   27 1
    42   25   28 1
@<TRIPOS>MOLECULE
ZINC03814591
   41    43     0     0     0
SMALL
USER_CHARGES

@<TRIPOS>ATOM
      1 C1         -7.7488    5.2653    0.1602 C.3       1 <0>        -0.6447
      2 S1         -6.7082    4.2322    1.2281 S.o2      1 <0>         2.4907
      3 O1         -6.7227    2.8865    0.7719 O.2       1 <0>        -0.9199
      4 O2         -6.9544    4.5368    2.5940 O.2       1 <0>        -0.9189
      5 C2         -5.0628    4.7893    0.9327 C.ar      1 <0>        -0.6262
      6 C3         -4.5309    5.8083    1.7014 C.ar      1 <0>         0.0006
      7 C4         -3.2417    6.2474    1.4720 C.ar      1 <0>        -0.1036
      8 C5         -2.4794    5.6643    0.4687 C.ar      1 <0>         0.0990
      9 C6         -3.0181    4.6449   -0.3049 C.ar      1 <0>        -0.1126
     10 C7         -4.3059    4.2062   -0.0669 C.ar      1 <0>        -0.0021
     11 N1         -1.1709    6.1076    0.2336 N.pl3     1 <0>        -0.3602
     12 C8         -0.7842    7.3893   -0.0609 C.2       1 <0>         0.1259
     13 C9          0.5554    7.3717   -0.2154 C.2       1 <0>        -0.0656
     14 C10        -0.0371    5.3451    0.2575 C.cat     1 <0>         0.4082
     15 C11         0.0255    3.8947    0.5386 C.ar      1 <0>        -0.0967
     16 C12        -0.9889    3.2788    1.2732 C.ar      1 <0>        -0.0270
     17 C13        -0.9272    1.9244    1.5275 C.ar      1 <0>        -0.0964
     18 C14         0.1432    1.1788    1.0657 C.ar      1 <0>         0.0011
     19 C15         1.1518    1.7832    0.3371 C.ar      1 <0>        -0.0313
     20 C16         1.0992    3.1361    0.0710 C.ar      1 <0>        -0.0119
     21 N2          2.2903    0.9769   -0.1578 N.pl3     1 <0>         0.0159
     22 O3          2.3382   -0.2173    0.0767 O.2       1 <0>        -0.1193
     23 O4          3.1791    1.5077   -0.7994 O.3       1 <0>        -0.1396
     24 C17         1.4190    8.5595   -0.5540 C.3       1 <0>         0.5539
     25 F1          2.7392    8.1372   -0.7436 F         1 <0>        -0.1567
     26 F2          0.9481    9.1591   -1.7269 F         1 <0>        -0.1420
     27 F3          1.3713    9.4846    0.4944 F         1 <0>        -0.1429
     28 H1         -7.4557    5.1233   -0.8800 H         1 <0>         0.1354
     29 H2         -8.7935    4.9804    0.2854 H         1 <0>         0.1447
     30 H3         -7.6227    6.3129    0.4335 H         1 <0>         0.1358
     31 H4         -5.1244    6.2615    2.4817 H         1 <0>         0.1719
     32 H5         -2.8270    7.0438    2.0722 H         1 <0>         0.1574
     33 H6         -2.4292    4.1927   -1.0892 H         1 <0>         0.1515
     34 H7         -4.7238    3.4101   -0.6652 H         1 <0>         0.1706
     35 H8         -1.4305    8.2494   -0.1557 H         1 <0>         0.2468
     36 H9         -1.8224    3.8605    1.6383 H         1 <0>         0.1551
     37 H10        -1.7137    1.4457    2.0920 H         1 <0>         0.1756
     38 H11         0.1891    0.1195    1.2713 H         1 <0>         0.1790
     39 H12         1.8871    3.6067   -0.4983 H         1 <0>         0.1651
     40 N3          0.9869    6.1214   -0.0176 N.pl3     1 <0>        -0.4559
     41 H13         1.9656    5.8157   -0.0723 H         1 <0>         0.4895
@<TRIPOS>BOND
     1    1    2 1
     2    1   28 1
     3    1   29 1
     4    1   30 1
     5    2    3 2
     6    2    4 2
     7    2    5 1
     8    5   10 ar
     9    5    6 ar
    10    6    7 ar
    11    6   31 1
    12    7    8 ar
    13    7   32 1
    14    8    9 ar
    15    8   11 1
    16    9   10 ar
    17    9   33 1
    18   10   34 1
    19   11   14 1
    20   11   12 1
    21   12   13 2
    22   12   35 1
    23   13   24 1
    24   13   40 1
    25   14   15 1
    26   14   40 2
    27   15   20 ar
    28   15   16 ar
    29   16   17 ar
    30   16   36 1
    31   17   18 ar
    32   17   37 1
    33   18   19 ar
    34   18   38 1
    35   19   20 ar
    36   19   21 1
    37   20   39 1
    38   21   22 2
    39   21   23 1
    40   24   25 1
    41   24   26 1
    42   24   27 1
    43   40   41 1
@<TRIPOS>MOLECULE
ZINC03814592
   38    40     0     0     0
SMALL
USER_CHARGES

@<TRIPOS>ATOM
      1 C1         -1.2099    3.0682   -1.3827 C.3       1 <0>        -0.6489
      2 S1         -0.0602    2.3170   -0.1976 S.o2      1 <0>         2.4989
      3 O1         -0.0062    0.9104   -0.3924 O.2       1 <0>        -0.9308
      4 O2          1.1335    3.0840   -0.1203 O.2       1 <0>        -0.9304
      5 C2         -0.8301    2.5240    1.3737 C.ar      1 <0>        -0.6519
      6 C3         -0.5740    3.6573    2.1236 C.ar      1 <0>        -0.0038
      7 C4         -1.1798    3.8247    3.3535 C.ar      1 <0>        -0.1209
      8 C5         -2.0387    2.8490    3.8412 C.ar      1 <0>         0.1611
      9 C6         -2.2898    1.7097    3.0883 C.ar      1 <0>        -0.1287
     10 C7         -1.6847    1.5503    1.8570 C.ar      1 <0>        -0.0053
     11 N1         -2.6514    3.0138    5.0908 N.pl3     1 <0>        -0.4098
     12 C8         -3.9974    2.9837    5.3500 C.2       1 <0>         0.0366
     13 C9         -4.1486    3.1826    6.6752 C.2       1 <0>        -0.0836
     14 N2         -2.9368    3.3396    7.2207 N.2       1 <0>        -0.4097
     15 C10        -2.0214    3.2413    6.2821 C.2       1 <0>         0.2725
     16 C11        -0.5611    3.3569    6.4811 C.ar      1 <0>        -0.0233
     17 C12         0.2995    2.4092    5.9249 C.ar      1 <0>        -0.0814
     18 C13         1.6610    2.5227    6.1143 C.ar      1 <0>        -0.1122
     19 C14         2.1752    3.5732    6.8540 C.ar      1 <0>        -0.0848
     20 C15         1.3290    4.5160    7.4088 C.ar      1 <0>        -0.1103
     21 C16        -0.0360    4.4180    7.2218 C.ar      1 <0>         0.0010
     22 Cl1        -1.0966    5.6064    7.9121 Cl        1 <0>        -0.0402
     23 C17        -5.4605    3.2264    7.4155 C.3       1 <0>         0.5559
     24 F1         -5.2305    3.5702    8.7520 F         1 <0>        -0.1616
     25 F2         -6.2971    4.1801    6.8259 F         1 <0>        -0.1718
     26 F3         -6.0717    1.9694    7.3559 F         1 <0>        -0.1717
     27 H1         -2.1699    2.5543   -1.3332 H         1 <0>         0.1333
     28 H2         -1.3483    4.1211   -1.1371 H         1 <0>         0.1333
     29 H3         -0.8023    2.9805   -2.3898 H         1 <0>         0.1370
     30 H4          0.0971    4.4142    1.7453 H         1 <0>         0.1567
     31 H5         -0.9826    4.7119    3.9369 H         1 <0>         0.1421
     32 H6         -2.9577    0.9492    3.4650 H         1 <0>         0.1456
     33 H7         -1.8796    0.6644    1.2709 H         1 <0>         0.1570
     34 H8         -4.7869    2.8277    4.6298 H         1 <0>         0.1980
     35 H9         -0.1000    1.5885    5.3476 H         1 <0>         0.1295
     36 H10         2.3276    1.7900    5.6839 H         1 <0>         0.1385
     37 H11         3.2421    3.6570    6.9991 H         1 <0>         0.1407
     38 H12         1.7367    5.3332    7.9853 H         1 <0>         0.1435
@<TRIPOS>BOND
     1    1    2 1
     2    1   27 1
     3    1   28 1
     4    1   29 1
     5    2    3 2
     6    2    4 2
     7    2    5 1
     8    5   10 ar
     9    5    6 ar
    10    6    7 ar
    11    6   30 1
    12    7    8 ar
    13    7   31 1
    14    8    9 ar
    15    8   11 1
    16    9   10 ar
    17    9   32 1
    18   10   33 1
    19   11   15 1
    20   11   12 1
    21   12   13 2
    22   12   34 1
    23   13   14 1
    24   13   23 1
    25   14   15 2
    26   15   16 1
    27   16   21 ar
    28   16   17 ar
    29   17   18 ar
    30   17   35 1
    31   18   19 ar
    32   18   36 1
    33   19   20 ar
    34   19   37 1
    35   20   21 ar
    36   20   38 1
    37   21   22 1
    38   23   24 1
    39   23   25 1
    40   23   26 1
@<TRIPOS>MOLECULE
ZINC03814592
   39    41     0     0     0
SMALL
USER_CHARGES

@<TRIPOS>ATOM
      1 C1         -1.2099    3.0682   -1.3827 C.3       1 <0>        -0.6453
      2 S1         -0.0602    2.3170   -0.1976 S.o2      1 <0>         2.4916
      3 O1         -0.0062    0.9104   -0.3924 O.2       1 <0>        -0.9207
      4 O2          1.1335    3.0840   -0.1203 O.2       1 <0>        -0.9213
      5 C2         -0.8301    2.5240    1.3737 C.ar      1 <0>        -0.6278
      6 C3         -0.5740    3.6573    2.1236 C.ar      1 <0>        -0.0010
      7 C4         -1.1798    3.8247    3.3535 C.ar      1 <0>        -0.1044
      8 C5         -2.0387    2.8490    3.8412 C.ar      1 <0>         0.1077
      9 C6         -2.2898    1.7097    3.0883 C.ar      1 <0>        -0.1066
     10 C7         -1.6847    1.5503    1.8570 C.ar      1 <0>        -0.0013
     11 N1         -2.6514    3.0138    5.0908 N.pl3     1 <0>        -0.3591
     12 C8         -3.9974    2.9837    5.3500 C.2       1 <0>         0.1214
     13 C9         -4.1486    3.1826    6.6752 C.2       1 <0>        -0.0703
     14 C10        -2.0214    3.2413    6.2821 C.cat     1 <0>         0.4102
     15 C11        -0.5611    3.3569    6.4811 C.ar      1 <0>        -0.1060
     16 C12         0.2995    2.4092    5.9249 C.ar      1 <0>        -0.0478
     17 C13         1.6610    2.5227    6.1143 C.ar      1 <0>        -0.1020
     18 C14         2.1752    3.5732    6.8540 C.ar      1 <0>        -0.0442
     19 C15         1.3290    4.5160    7.4088 C.ar      1 <0>        -0.0965
     20 C16        -0.0360    4.4180    7.2218 C.ar      1 <0>        -0.0003
     21 Cl1        -1.0966    5.6064    7.9121 Cl        1 <0>        -0.0400
     22 C17        -5.4605    3.2264    7.4155 C.3       1 <0>         0.5539
     23 F1         -5.2305    3.5702    8.7520 F         1 <0>        -0.1580
     24 F2         -6.2971    4.1801    6.8259 F         1 <0>        -0.1430
     25 F3         -6.0717    1.9694    7.3559 F         1 <0>        -0.1436
     26 H1         -2.1699    2.5543   -1.3332 H         1 <0>         0.1354
     27 H2         -1.3483    4.1211   -1.1371 H         1 <0>         0.1351
     28 H3         -0.8023    2.9805   -2.3898 H         1 <0>         0.1437
     29 H4          0.0971    4.4142    1.7453 H         1 <0>         0.1681
     30 H5         -0.9826    4.7119    3.9369 H         1 <0>         0.1488
     31 H6         -2.9577    0.9492    3.4650 H         1 <0>         0.1550
     32 H7         -1.8796    0.6644    1.2709 H         1 <0>         0.1695
     33 H8         -4.7869    2.8277    4.6298 H         1 <0>         0.2449
     34 H9         -0.1000    1.5885    5.3476 H         1 <0>         0.1447
     35 H10         2.3276    1.7900    5.6839 H         1 <0>         0.1567
     36 H11         3.2421    3.6570    6.9991 H         1 <0>         0.1584
     37 H12         1.7367    5.3332    7.9853 H         1 <0>         0.1604
     38 N2         -2.9370    3.3394    7.2197 N.pl3     1 <0>        -0.4526
     39 H13        -2.7512    3.5099    8.2151 H         1 <0>         0.4862
@<TRIPOS>BOND
     1    1    2 1
     2    1   26 1
     3    1   27 1
     4    1   28 1
     5    2    3 2
     6    2    4 2
     7    2    5 1
     8    5   10 ar
     9    5    6 ar
    10    6    7 ar
    11    6   29 1
    12    7    8 ar
    13    7   30 1
    14    8    9 ar
    15    8   11 1
    16    9   10 ar
    17    9   31 1
    18   10   32 1
    19   11   14 1
    20   11   12 1
    21   12   13 2
    22   12   33 1
    23   13   22 1
    24   13   38 1
    25   14   15 1
    26   14   38 2
    27   15   20 ar
    28   15   16 ar
    29   16   17 ar
    30   16   34 1
    31   17   18 ar
    32   17   35 1
    33   18   19 ar
    34   18   36 1
    35   19   20 ar
    36   19   37 1
    37   20   21 1
    38   22   23 1
    39   22   24 1
    40   22   25 1
    41   38   39 1
@<TRIPOS>MOLECULE
ZINC03814593
   41    43     0     0     0
SMALL
USER_CHARGES

@<TRIPOS>ATOM
      1 C1         -1.9019    1.6915   -1.0999 C.3       1 <0>        -0.1149
      2 C2         -0.8850    2.2672   -0.1484 C.ar      1 <0>        -0.0365
      3 C3         -0.8711    3.6222    0.1120 C.ar      1 <0>        -0.1210
      4 C4          0.0660    4.1531    0.9801 C.ar      1 <0>        -0.0922
      5 C5          0.9906    3.3295    1.5979 C.ar      1 <0>        -0.1236
      6 C6          0.9837    1.9724    1.3506 C.ar      1 <0>        -0.0869
      7 C7          0.0411    1.4304    0.4754 C.ar      1 <0>        -0.0378
      8 C8          0.0280   -0.0234    0.2058 C.2       1 <0>         0.2841
      9 N1         -1.0309   -0.8022    0.2337 N.2       1 <0>        -0.4246
     10 C9         -0.6666   -2.0548   -0.0640 C.2       1 <0>        -0.0849
     11 C10         0.6648   -2.0725   -0.2780 C.2       1 <0>         0.0313
     12 N2          1.1153   -0.7889   -0.1094 N.pl3     1 <0>        -0.4123
     13 C11         2.4389   -0.3460   -0.2356 C.ar      1 <0>         0.1628
     14 C12         2.7479    0.6798   -1.1187 C.ar      1 <0>        -0.1192
     15 C13         4.0526    1.1173   -1.2374 C.ar      1 <0>        -0.0043
     16 C14         5.0522    0.5276   -0.4856 C.ar      1 <0>        -0.6521
     17 C15         4.7483   -0.4978    0.3909 C.ar      1 <0>        -0.0058
     18 C16         3.4447   -0.9361    0.5179 C.ar      1 <0>        -0.1296
     19 S1          6.7163    1.0844   -0.6444 S.o2      1 <0>         2.4990
     20 O1          6.6076    2.4335   -1.0771 O.2       1 <0>        -0.9304
     21 O2          7.3243    0.7698    0.6009 O.2       1 <0>        -0.9310
     22 C17         7.4266    0.0607   -1.9627 C.3       1 <0>        -0.6490
     23 C18        -1.5872   -3.2455   -0.1404 C.3       1 <0>         0.5570
     24 F1         -1.6693   -3.8529    1.1171 F         1 <0>        -0.1708
     25 F2         -2.8606   -2.8255   -0.5395 F         1 <0>        -0.1645
     26 F3         -1.0863   -4.1633   -1.0698 F         1 <0>        -0.1722
     27 H1         -2.7996    1.4132   -0.5477 H         1 <0>         0.0835
     28 H2         -2.1557    2.4360   -1.8546 H         1 <0>         0.0683
     29 H3         -1.4861    0.8088   -1.5858 H         1 <0>         0.0646
     30 H4         -1.5905    4.2703   -0.3664 H         1 <0>         0.1323
     31 H5          0.0758    5.2150    1.1768 H         1 <0>         0.1302
     32 H6          1.7194    3.7502    2.2749 H         1 <0>         0.1304
     33 H7          1.7058    1.3307    1.8334 H         1 <0>         0.1197
     34 H8          1.2629   -2.9347   -0.5335 H         1 <0>         0.1973
     35 H9          1.9683    1.1377   -1.7094 H         1 <0>         0.1424
     36 H10         4.2929    1.9182   -1.9209 H         1 <0>         0.1562
     37 H11         5.5312   -0.9567    0.9765 H         1 <0>         0.1566
     38 H12         3.2081   -1.7373    1.2024 H         1 <0>         0.1447
     39 H13         6.8619    0.2102   -2.8830 H         1 <0>         0.1332
     40 H14         8.4662    0.3459   -2.1240 H         1 <0>         0.1369
     41 H15         7.3786   -0.9891   -1.6734 H         1 <0>         0.1332
@<TRIPOS>BOND
     1    1    2 1
     2    1   27 1
     3    1   28 1
     4    1   29 1
     5    2    7 ar
     6    2    3 ar
     7    3    4 ar
     8    3   30 1
     9    4    5 ar
    10    4   31 1
    11    5    6 ar
    12    5   32 1
    13    6    7 ar
    14    6   33 1
    15    7    8 1
    16    8   12 1
    17    8    9 2
    18    9   10 1
    19   10   11 2
    20   10   23 1
    21   11   12 1
    22   11   34 1
    23   12   13 1
    24   13   18 ar
    25   13   14 ar
    26   14   15 ar
    27   14   35 1
    28   15   16 ar
    29   15   36 1
    30   16   17 ar
    31   16   19 1
    32   17   18 ar
    33   17   37 1
    34   18   38 1
    35   19   20 2
    36   19   21 2
    37   19   22 1
    38   22   39 1
    39   22   40 1
    40   22   41 1
    41   23   24 1
    42   23   25 1
    43   23   26 1
@<TRIPOS>MOLECULE
ZINC03814593
   42    44     0     0     0
SMALL
USER_CHARGES

@<TRIPOS>ATOM
      1 C1         -1.9019    1.6915   -1.0999 C.3       1 <0>        -0.1439
      2 C2         -0.8850    2.2672   -0.1484 C.ar      1 <0>        -0.0297
      3 C3         -0.8711    3.6222    0.1120 C.ar      1 <0>        -0.1118
      4 C4          0.0660    4.1531    0.9801 C.ar      1 <0>        -0.0517
      5 C5          0.9906    3.3295    1.5979 C.ar      1 <0>        -0.1144
      6 C6          0.9837    1.9724    1.3506 C.ar      1 <0>        -0.0550
      7 C7          0.0411    1.4304    0.4754 C.ar      1 <0>        -0.1208
      8 C8          0.0280   -0.0234    0.2058 C.cat     1 <0>         0.4231
      9 C9         -0.6666   -2.0548   -0.0640 C.2       1 <0>        -0.0742
     10 C10         0.6648   -2.0725   -0.2780 C.2       1 <0>         0.1174
     11 N1          1.1153   -0.7889   -0.1094 N.pl3     1 <0>        -0.3649
     12 C11         2.4389   -0.3460   -0.2356 C.ar      1 <0>         0.1108
     13 C12         2.7479    0.6798   -1.1187 C.ar      1 <0>        -0.1030
     14 C13         4.0526    1.1173   -1.2374 C.ar      1 <0>        -0.0016
     15 C14         5.0522    0.5276   -0.4856 C.ar      1 <0>        -0.6285
     16 C15         4.7483   -0.4978    0.3909 C.ar      1 <0>        -0.0017
     17 C16         3.4447   -0.9361    0.5179 C.ar      1 <0>        -0.1083
     18 S1          6.7163    1.0844   -0.6444 S.o2      1 <0>         2.4919
     19 O1          6.6076    2.4335   -1.0771 O.2       1 <0>        -0.9215
     20 O2          7.3243    0.7698    0.6009 O.2       1 <0>        -0.9211
     21 C17         7.4266    0.0607   -1.9627 C.3       1 <0>        -0.6455
     22 C18        -1.5872   -3.2455   -0.1404 C.3       1 <0>         0.5536
     23 F1         -1.6693   -3.8529    1.1171 F         1 <0>        -0.1473
     24 F2         -2.8606   -2.8255   -0.5395 F         1 <0>        -0.1569
     25 F3         -1.0863   -4.1633   -1.0698 F         1 <0>        -0.1431
     26 H1         -2.7996    1.4132   -0.5477 H         1 <0>         0.0884
     27 H2         -2.1557    2.4360   -1.8546 H         1 <0>         0.0998
     28 H3         -1.4861    0.8088   -1.5858 H         1 <0>         0.0606
     29 H4         -1.5905    4.2703   -0.3664 H         1 <0>         0.1485
     30 H5          0.0758    5.2150    1.1768 H         1 <0>         0.1473
     31 H6          1.7194    3.7502    2.2749 H         1 <0>         0.1480
     32 H7          1.7058    1.3307    1.8334 H         1 <0>         0.1339
     33 H8          1.2629   -2.9347   -0.5335 H         1 <0>         0.2427
     34 H9          1.9683    1.1377   -1.7094 H         1 <0>         0.1488
     35 H10         4.2929    1.9182   -1.9209 H         1 <0>         0.1673
     36 H11         5.5312   -0.9567    0.9765 H         1 <0>         0.1688
     37 H12         3.2081   -1.7373    1.2024 H         1 <0>         0.1538
     38 H13         6.8619    0.2102   -2.8830 H         1 <0>         0.1349
     39 H14         8.4662    0.3459   -2.1240 H         1 <0>         0.1435
     40 H15         7.3786   -0.9891   -1.6734 H         1 <0>         0.1353
     41 N2         -1.0299   -0.8025    0.2335 N.pl3     1 <0>        -0.4598
     42 H16        -1.9862   -0.4975    0.4497 H         1 <0>         0.4865
@<TRIPOS>BOND
     1    1    2 1
     2    1   26 1
     3    1   27 1
     4    1   28 1
     5    2    7 ar
     6    2    3 ar
     7    3    4 ar
     8    3   29 1
     9    4    5 ar
    10    4   30 1
    11    5    6 ar
    12    5   31 1
    13    6    7 ar
    14    6   32 1
    15    7    8 1
    16    8   11 1
    17    8   41 2
    18    9   10 2
    19    9   22 1
    20    9   41 1
    21   10   11 1
    22   10   33 1
    23   11   12 1
    24   12   17 ar
    25   12   13 ar
    26   13   14 ar
    27   13   34 1
    28   14   15 ar
    29   14   35 1
    30   15   16 ar
    31   15   18 1
    32   16   17 ar
    33   16   36 1
    34   17   37 1
    35   18   19 2
    36   18   20 2
    37   18   21 1
    38   21   38 1
    39   21   39 1
    40   21   40 1
    41   22   23 1
    42   22   24 1
    43   22   25 1
    44   41   42 1
@<TRIPOS>MOLECULE
ZINC03814594
   37    39     0     0     0
SMALL
USER_CHARGES

@<TRIPOS>ATOM
      1 C1         -0.9465    3.0942    1.6045 C.ar      1 <0>        -0.1272
      2 C2         -1.1934    1.8822    0.9836 C.ar      1 <0>        -0.0666
      3 C3         -0.2709    1.3486    0.1025 C.ar      1 <0>        -0.1537
      4 C4          0.9101    2.0191   -0.1556 C.ar      1 <0>         0.1454
      5 C5          1.1668    3.2408    0.4727 C.ar      1 <0>        -0.0683
      6 C6          0.2276    3.7743    1.3565 C.ar      1 <0>        -0.0648
      7 C7          2.4273    3.9642    0.2028 C.2       1 <0>         0.2760
      8 N1          3.6331    3.4399    0.2106 N.2       1 <0>        -0.4176
      9 C8          4.5305    4.3895   -0.0795 C.2       1 <0>        -0.0824
     10 C9          3.8750    5.5525   -0.2685 C.2       1 <0>         0.0365
     11 N2          2.5399    5.2941   -0.0917 N.pl3     1 <0>        -0.4117
     12 C10         1.4907    6.2176   -0.1937 C.ar      1 <0>         0.1660
     13 C11         0.4405    5.9831   -1.0711 C.ar      1 <0>        -0.1222
     14 C12        -0.5945    6.8928   -1.1658 C.ar      1 <0>         0.0042
     15 C13        -0.5804    8.0410   -0.3953 C.ar      1 <0>        -0.6695
     16 C14         0.4669    8.2798    0.4755 C.ar      1 <0>        -0.0023
     17 C15         1.5023    7.3715    0.5782 C.ar      1 <0>        -0.1296
     18 S1         -1.8992    9.2024   -0.5240 S.o2      1 <0>         2.7025
     19 O1         -3.0267    8.4848   -1.0068 O.2       1 <0>        -0.9550
     20 O2         -1.9234    9.9264    0.6985 O.2       1 <0>        -0.9528
     21 N3         -1.4849   10.2847   -1.7069 N.pl3     1 <0>        -1.2461
     22 C16         6.0218    4.1935   -0.1728 C.3       1 <0>         0.5572
     23 F1          6.5997    4.4073    1.0832 F         1 <0>        -0.1702
     24 F2          6.2950    2.8882   -0.5958 F         1 <0>        -0.1631
     25 F3          6.5550    5.1029   -1.0924 F         1 <0>        -0.1713
     26 F4          1.8133    1.4952   -1.0130 F         1 <0>        -0.1204
     27 H1         -1.6733    3.5065    2.2886 H         1 <0>         0.1397
     28 H2         -2.1126    1.3524    1.1854 H         1 <0>         0.1420
     29 H3         -0.4715    0.4042   -0.3815 H         1 <0>         0.1464
     30 H4          0.4197    4.7181    1.8451 H         1 <0>         0.1304
     31 H5          4.3176    6.5069   -0.5128 H         1 <0>         0.2002
     32 H6          0.4310    5.0885   -1.6761 H         1 <0>         0.1431
     33 H7         -1.4138    6.7090   -1.8451 H         1 <0>         0.1575
     34 H8          0.4753    9.1776    1.0757 H         1 <0>         0.1581
     35 H9          2.3203    7.5590    1.2580 H         1 <0>         0.1470
     36 H10        -2.1760   10.7133   -2.2357 H         1 <0>         0.4247
     37 H11        -0.5512   10.4900   -1.8710 H         1 <0>         0.4181
@<TRIPOS>BOND
     1    1    6 ar
     2    1    2 ar
     3    1   27 1
     4    2    3 ar
     5    2   28 1
     6    3    4 ar
     7    3   29 1
     8    4    5 ar
     9    4   26 1
    10    5    6 ar
    11    5    7 1
    12    6   30 1
    13    7   11 1
    14    7    8 2
    15    8    9 1
    16    9   10 2
    17    9   22 1
    18   10   11 1
    19   10   31 1
    20   11   12 1
    21   12   17 ar
    22   12   13 ar
    23   13   14 ar
    24   13   32 1
    25   14   15 ar
    26   14   33 1
    27   15   16 ar
    28   15   18 1
    29   16   17 ar
    30   16   34 1
    31   17   35 1
    32   18   19 2
    33   18   20 2
    34   18   21 1
    35   21   36 1
    36   21   37 1
    37   22   23 1
    38   22   24 1
    39   22   25 1
@<TRIPOS>MOLECULE
ZINC03814594
   38    40     0     0     0
SMALL
USER_CHARGES

@<TRIPOS>ATOM
      1 C1         -0.9465    3.0942    1.6045 C.ar      1 <0>        -0.1160
      2 C2         -1.1934    1.8822    0.9836 C.ar      1 <0>        -0.0276
      3 C3         -0.2709    1.3486    0.1025 C.ar      1 <0>        -0.1408
      4 C4          0.9101    2.0191   -0.1556 C.ar      1 <0>         0.1500
      5 C5          1.1668    3.2408    0.4727 C.ar      1 <0>        -0.1485
      6 C6          0.2276    3.7743    1.3565 C.ar      1 <0>        -0.0351
      7 C7          2.4273    3.9642    0.2028 C.cat     1 <0>         0.4142
      8 C8          4.5305    4.3895   -0.0795 C.2       1 <0>        -0.0688
      9 C9          3.8750    5.5525   -0.2685 C.2       1 <0>         0.1201
     10 N1          2.5399    5.2941   -0.0917 N.pl3     1 <0>        -0.3624
     11 C10         1.4907    6.2176   -0.1937 C.ar      1 <0>         0.1136
     12 C11         0.4405    5.9831   -1.0711 C.ar      1 <0>        -0.1058
     13 C12        -0.5945    6.8928   -1.1658 C.ar      1 <0>         0.0072
     14 C13        -0.5804    8.0410   -0.3953 C.ar      1 <0>        -0.6461
     15 C14         0.4669    8.2798    0.4755 C.ar      1 <0>         0.0019
     16 C15         1.5023    7.3715    0.5782 C.ar      1 <0>        -0.1080
     17 S1         -1.8992    9.2024   -0.5240 S.o2      1 <0>         2.6978
     18 O1         -3.0267    8.4848   -1.0068 O.2       1 <0>        -0.9454
     19 O2         -1.9234    9.9264    0.6985 O.2       1 <0>        -0.9415
     20 N2         -1.4849   10.2847   -1.7069 N.pl3     1 <0>        -1.2426
     21 C16         6.0218    4.1935   -0.1728 C.3       1 <0>         0.5537
     22 F1          6.5997    4.4073    1.0832 F         1 <0>        -0.1467
     23 F2          6.2950    2.8882   -0.5958 F         1 <0>        -0.1554
     24 F3          6.5550    5.1029   -1.0924 F         1 <0>        -0.1423
     25 F4          1.8133    1.4952   -1.0130 F         1 <0>        -0.1235
     26 H1         -1.6733    3.5065    2.2886 H         1 <0>         0.1571
     27 H2         -2.1126    1.3524    1.1854 H         1 <0>         0.1591
     28 H3         -0.4715    0.4042   -0.3815 H         1 <0>         0.1627
     29 H4          0.4197    4.7181    1.8451 H         1 <0>         0.1450
     30 H5          4.3176    6.5069   -0.5128 H         1 <0>         0.2452
     31 H6          0.4310    5.0885   -1.6761 H         1 <0>         0.1497
     32 H7         -1.4138    6.7090   -1.8451 H         1 <0>         0.1688
     33 H8          0.4753    9.1776    1.0757 H         1 <0>         0.1704
     34 H9          2.3203    7.5590    1.2580 H         1 <0>         0.1561
     35 H10        -2.1760   10.7133   -2.2357 H         1 <0>         0.4295
     36 H11        -0.5512   10.4900   -1.8710 H         1 <0>         0.4187
     37 N3          3.6329    3.4409    0.2104 N.pl3     1 <0>        -0.4529
     38 H12         3.8517    2.4573    0.4080 H         1 <0>         0.4888
@<TRIPOS>BOND
     1    1    6 ar
     2    1    2 ar
     3    1   26 1
     4    2    3 ar
     5    2   27 1
     6    3    4 ar
     7    3   28 1
     8    4    5 ar
     9    4   25 1
    10    5    6 ar
    11    5    7 1
    12    6   29 1
    13    7   10 1
    14    7   37 2
    15    8    9 2
    16    8   21 1
    17    8   37 1
    18    9   10 1
    19    9   30 1
    20   10   11 1
    21   11   16 ar
    22   11   12 ar
    23   12   13 ar
    24   12   31 1
    25   13   14 ar
    26   13   32 1
    27   14   15 ar
    28   14   17 1
    29   15   16 ar
    30   15   33 1
    31   16   34 1
    32   17   18 2
    33   17   19 2
    34   17   20 1
    35   20   35 1
    36   20   36 1
    37   21   22 1
    38   21   23 1
    39   21   24 1
    40   37   38 1
@<TRIPOS>MOLECULE
ZINC03814595
   40    42     0     0     0
SMALL
USER_CHARGES

@<TRIPOS>ATOM
      1 C1         -1.9019    1.6915   -1.0999 C.3       1 <0>        -0.1151
      2 C2         -0.8850    2.2672   -0.1484 C.ar      1 <0>        -0.0362
      3 C3         -0.8711    3.6222    0.1120 C.ar      1 <0>        -0.1208
      4 C4          0.0660    4.1531    0.9801 C.ar      1 <0>        -0.0920
      5 C5          0.9906    3.3295    1.5979 C.ar      1 <0>        -0.1238
      6 C6          0.9837    1.9724    1.3506 C.ar      1 <0>        -0.0875
      7 C7          0.0411    1.4304    0.4754 C.ar      1 <0>        -0.0383
      8 C8          0.0280   -0.0234    0.2058 C.2       1 <0>         0.2845
      9 N1         -1.0309   -0.8022    0.2337 N.2       1 <0>        -0.4241
     10 C9         -0.6666   -2.0548   -0.0640 C.2       1 <0>        -0.0843
     11 C10         0.6648   -2.0725   -0.2780 C.2       1 <0>         0.0314
     12 N2          1.1153   -0.7889   -0.1094 N.pl3     1 <0>        -0.4134
     13 C11         2.4389   -0.3460   -0.2356 C.ar      1 <0>         0.1680
     14 C12         2.7479    0.6798   -1.1187 C.ar      1 <0>        -0.1204
     15 C13         4.0526    1.1173   -1.2374 C.ar      1 <0>         0.0036
     16 C14         5.0522    0.5276   -0.4856 C.ar      1 <0>        -0.6698
     17 C15         4.7483   -0.4978    0.3909 C.ar      1 <0>        -0.0031
     18 C16         3.4447   -0.9361    0.5179 C.ar      1 <0>        -0.1306
     19 S1          6.7165    1.0836   -0.6452 S.o2      1 <0>         2.7024
     20 O1          6.6542    2.4191   -1.1268 O.2       1 <0>        -0.9552
     21 O2          7.3772    0.7403    0.5651 O.2       1 <0>        -0.9532
     22 N3          7.4215    0.1815   -1.8417 N.pl3     1 <0>        -1.2462
     23 C17        -1.5872   -3.2455   -0.1404 C.3       1 <0>         0.5570
     24 F1         -1.6693   -3.8529    1.1171 F         1 <0>        -0.1707
     25 F2         -2.8606   -2.8255   -0.5395 F         1 <0>        -0.1644
     26 F3         -1.0863   -4.1633   -1.0698 F         1 <0>        -0.1720
     27 H1         -2.7996    1.4132   -0.5477 H         1 <0>         0.0836
     28 H2         -2.1557    2.4360   -1.8546 H         1 <0>         0.0685
     29 H3         -1.4861    0.8088   -1.5858 H         1 <0>         0.0646
     30 H4         -1.5905    4.2703   -0.3664 H         1 <0>         0.1325
     31 H5          0.0758    5.2150    1.1768 H         1 <0>         0.1304
     32 H6          1.7194    3.7502    2.2749 H         1 <0>         0.1306
     33 H7          1.7058    1.3307    1.8334 H         1 <0>         0.1197
     34 H8          1.2629   -2.9347   -0.5335 H         1 <0>         0.1977
     35 H9          1.9683    1.1377   -1.7094 H         1 <0>         0.1436
     36 H10         4.2929    1.9182   -1.9209 H         1 <0>         0.1568
     37 H11         5.5312   -0.9567    0.9765 H         1 <0>         0.1574
     38 H12         3.2081   -1.7373    1.2024 H         1 <0>         0.1460
     39 H13         8.1295    0.5634   -2.3837 H         1 <0>         0.4245
     40 H14         7.1264   -0.7288   -2.0005 H         1 <0>         0.4180
@<TRIPOS>BOND
     1    1    2 1
     2    1   27 1
     3    1   28 1
     4    1   29 1
     5    2    7 ar
     6    2    3 ar
     7    3    4 ar
     8    3   30 1
     9    4    5 ar
    10    4   31 1
    11    5    6 ar
    12    5   32 1
    13    6    7 ar
    14    6   33 1
    15    7    8 1
    16    8   12 1
    17    8    9 2
    18    9   10 1
    19   10   11 2
    20   10   23 1
    21   11   12 1
    22   11   34 1
    23   12   13 1
    24   13   18 ar
    25   13   14 ar
    26   14   15 ar
    27   14   35 1
    28   15   16 ar
    29   15   36 1
    30   16   17 ar
    31   16   19 1
    32   17   18 ar
    33   17   37 1
    34   18   38 1
    35   19   20 2
    36   19   21 2
    37   19   22 1
    38   22   39 1
    39   22   40 1
    40   23   24 1
    41   23   25 1
    42   23   26 1
@<TRIPOS>MOLECULE
ZINC03814595
   41    43     0     0     0
SMALL
USER_CHARGES

@<TRIPOS>ATOM
      1 C1         -1.9019    1.6915   -1.0999 C.3       1 <0>        -0.1441
      2 C2         -0.8850    2.2672   -0.1484 C.ar      1 <0>        -0.0293
      3 C3         -0.8711    3.6222    0.1120 C.ar      1 <0>        -0.1117
      4 C4          0.0660    4.1531    0.9801 C.ar      1 <0>        -0.0514
      5 C5          0.9906    3.3295    1.5979 C.ar      1 <0>        -0.1146
      6 C6          0.9837    1.9724    1.3506 C.ar      1 <0>        -0.0556
      7 C7          0.0411    1.4304    0.4754 C.ar      1 <0>        -0.1213
      8 C8          0.0280   -0.0234    0.2058 C.cat     1 <0>         0.4237
      9 C9         -0.6666   -2.0548   -0.0640 C.2       1 <0>        -0.0737
     10 C10         0.6648   -2.0725   -0.2780 C.2       1 <0>         0.1176
     11 N1          1.1153   -0.7889   -0.1094 N.pl3     1 <0>        -0.3662
     12 C11         2.4389   -0.3460   -0.2356 C.ar      1 <0>         0.1162
     13 C12         2.7479    0.6798   -1.1187 C.ar      1 <0>        -0.1042
     14 C13         4.0526    1.1173   -1.2374 C.ar      1 <0>         0.0066
     15 C14         5.0522    0.5276   -0.4856 C.ar      1 <0>        -0.6467
     16 C15         4.7483   -0.4978    0.3909 C.ar      1 <0>         0.0013
     17 C16         3.4447   -0.9361    0.5179 C.ar      1 <0>        -0.1093
     18 S1          6.7165    1.0836   -0.6452 S.o2      1 <0>         2.6978
     19 O1          6.6542    2.4191   -1.1268 O.2       1 <0>        -0.9457
     20 O2          7.3772    0.7403    0.5651 O.2       1 <0>        -0.9420
     21 N2          7.4215    0.1815   -1.8417 N.pl3     1 <0>        -1.2427
     22 C17        -1.5872   -3.2455   -0.1404 C.3       1 <0>         0.5536
     23 F1         -1.6693   -3.8529    1.1171 F         1 <0>        -0.1472
     24 F2         -2.8606   -2.8255   -0.5395 F         1 <0>        -0.1568
     25 F3         -1.0863   -4.1633   -1.0698 F         1 <0>        -0.1430
     26 H1         -2.7996    1.4132   -0.5477 H         1 <0>         0.0886
     27 H2         -2.1557    2.4360   -1.8546 H         1 <0>         0.1000
     28 H3         -1.4861    0.8088   -1.5858 H         1 <0>         0.0606
     29 H4         -1.5905    4.2703   -0.3664 H         1 <0>         0.1487
     30 H5          0.0758    5.2150    1.1768 H         1 <0>         0.1475
     31 H6          1.7194    3.7502    2.2749 H         1 <0>         0.1482
     32 H7          1.7058    1.3307    1.8334 H         1 <0>         0.1340
     33 H8          1.2629   -2.9347   -0.5335 H         1 <0>         0.2431
     34 H9          1.9683    1.1377   -1.7094 H         1 <0>         0.1501
     35 H10         4.2929    1.9182   -1.9209 H         1 <0>         0.1680
     36 H11         5.5312   -0.9567    0.9765 H         1 <0>         0.1697
     37 H12         3.2081   -1.7373    1.2024 H         1 <0>         0.1552
     38 H13         8.1295    0.5634   -2.3837 H         1 <0>         0.4293
     39 H14         7.1264   -0.7288   -2.0005 H         1 <0>         0.4186
     40 N3         -1.0299   -0.8025    0.2335 N.pl3     1 <0>        -0.4595
     41 H15        -1.9862   -0.4975    0.4497 H         1 <0>         0.4868
@<TRIPOS>BOND
     1    1    2 1
     2    1   26 1
     3    1   27 1
     4    1   28 1
     5    2    7 ar
     6    2    3 ar
     7    3    4 ar
     8    3   29 1
     9    4    5 ar
    10    4   30 1
    11    5    6 ar
    12    5   31 1
    13    6    7 ar
    14    6   32 1
    15    7    8 1
    16    8   11 1
    17    8   40 2
    18    9   10 2
    19    9   22 1
    20    9   40 1
    21   10   11 1
    22   10   33 1
    23   11   12 1
    24   12   17 ar
    25   12   13 ar
    26   13   14 ar
    27   13   34 1
    28   14   15 ar
    29   14   35 1
    30   15   16 ar
    31   15   18 1
    32   16   17 ar
    33   16   36 1
    34   17   37 1
    35   18   19 2
    36   18   20 2
    37   18   21 1
    38   21   38 1
    39   21   39 1
    40   22   23 1
    41   22   24 1
    42   22   25 1
    43   40   41 1
@<TRIPOS>MOLECULE
ZINC03814596
   42    44     0     0     0
SMALL
USER_CHARGES

@<TRIPOS>ATOM
      1 C1          3.9591    4.3019    8.2522 C.3       1 <0>         0.0222
      2 O1          3.5180    3.6857    7.0407 O.3       1 <0>        -0.3036
      3 C2          2.1759    3.5779    6.8564 C.ar      1 <0>         0.1188
      4 C3          1.3035    4.0565    7.8241 C.ar      1 <0>        -0.1812
      5 C4         -0.0588    3.9496    7.6411 C.ar      1 <0>        -0.0353
      6 C5         -0.5619    3.3585    6.4807 C.ar      1 <0>        -0.0412
      7 C6          0.3174    2.8726    5.5113 C.ar      1 <0>        -0.1058
      8 C7          1.6799    2.9878    5.6990 C.ar      1 <0>         0.0762
      9 F1          2.5324    2.5224    4.7599 F         1 <0>        -0.1229
     10 C8         -2.0218    3.2419    6.2818 C.2       1 <0>         0.2849
     11 N1         -2.9346    3.2938    7.2270 N.2       1 <0>        -0.4273
     12 C9         -4.1477    3.1528    6.6791 C.2       1 <0>        -0.0817
     13 C10        -4.0003    3.0123    5.3464 C.2       1 <0>         0.0376
     14 N2         -2.6548    3.0622    5.0839 N.pl3     1 <0>        -0.4133
     15 C11        -2.0458    2.9553    3.8263 C.ar      1 <0>         0.1553
     16 C12        -2.2769    1.8387    3.0341 C.ar      1 <0>        -0.1278
     17 C13        -1.6755    1.7365    1.7949 C.ar      1 <0>        -0.0046
     18 C14        -0.8440    2.7447    1.3430 C.ar      1 <0>        -0.6503
     19 C15        -0.6074    3.8553    2.1321 C.ar      1 <0>        -0.0059
     20 C16        -1.2104    3.9660    3.3698 C.ar      1 <0>        -0.1241
     21 S1         -0.0787    2.6106   -0.2384 S.o2      1 <0>         2.4979
     22 O2          0.0034    1.2134   -0.4842 O.2       1 <0>        -0.9296
     23 O3          1.0992    3.3991   -0.1392 O.2       1 <0>        -0.9281
     24 C17        -1.2503    3.3797   -1.3900 C.3       1 <0>        -0.6489
     25 C18        -5.4571    3.1570    7.4250 C.3       1 <0>         0.5564
     26 F2         -5.2244    3.4450    8.7741 F         1 <0>        -0.1623
     27 F3         -6.3015    4.1299    6.8794 F         1 <0>        -0.1714
     28 F4         -6.0611    1.9000    7.3139 F         1 <0>        -0.1710
     29 H1          5.0486    4.3243    8.2727 H         1 <0>         0.1079
     30 H2          3.5737    5.3203    8.3031 H         1 <0>         0.0620
     31 H3          3.5913    3.7312    9.1049 H         1 <0>         0.0623
     32 H4          1.6925    4.5138    8.7219 H         1 <0>         0.1500
     33 H5         -0.7362    4.3225    8.3950 H         1 <0>         0.1494
     34 H6         -0.0680    2.4110    4.6142 H         1 <0>         0.1437
     35 H7         -4.7915    2.8826    4.6229 H         1 <0>         0.1984
     36 H8         -2.9265    1.0511    3.3863 H         1 <0>         0.1471
     37 H9         -1.8552    0.8683    1.1781 H         1 <0>         0.1585
     38 H10         0.0462    4.6389    1.7785 H         1 <0>         0.1584
     39 H11        -1.0284    4.8355    3.9840 H         1 <0>         0.1458
     40 H12        -2.1992    2.8444   -1.3546 H         1 <0>         0.1332
     41 H13        -1.4092    4.4200   -1.1059 H         1 <0>         0.1333
     42 H14        -0.8466    3.3370   -2.4016 H         1 <0>         0.1372
@<TRIPOS>BOND
     1    1    2 1
     2    1   29 1
     3    1   30 1
     4    1   31 1
     5    2    3 1
     6    3    8 ar
     7    3    4 ar
     8    4    5 ar
     9    4   32 1
    10    5    6 ar
    11    5   33 1
    12    6    7 ar
    13    6   10 1
    14    7    8 ar
    15    7   34 1
    16    8    9 1
    17   10   14 1
    18   10   11 2
    19   11   12 1
    20   12   13 2
    21   12   25 1
    22   13   14 1
    23   13   35 1
    24   14   15 1
    25   15   20 ar
    26   15   16 ar
    27   16   17 ar
    28   16   36 1
    29   17   18 ar
    30   17   37 1
    31   18   19 ar
    32   18   21 1
    33   19   20 ar
    34   19   38 1
    35   20   39 1
    36   21   22 2
    37   21   23 2
    38   21   24 1
    39   24   40 1
    40   24   41 1
    41   24   42 1
    42   25   26 1
    43   25   27 1
    44   25   28 1
@<TRIPOS>MOLECULE
ZINC03814596
   43    45     0     0     0
SMALL
USER_CHARGES

@<TRIPOS>ATOM
      1 C1          3.9591    4.3019    8.2522 C.3       1 <0>         0.0148
      2 O1          3.5180    3.6857    7.0407 O.3       1 <0>        -0.2877
      3 C2          2.1759    3.5779    6.8564 C.ar      1 <0>         0.1659
      4 C3          1.3035    4.0565    7.8241 C.ar      1 <0>        -0.1796
      5 C4         -0.0588    3.9496    7.6411 C.ar      1 <0>        -0.0274
      6 C5         -0.5619    3.3585    6.4807 C.ar      1 <0>        -0.1247
      7 C6          0.3174    2.8726    5.5113 C.ar      1 <0>        -0.0721
      8 C7          1.6799    2.9878    5.6990 C.ar      1 <0>         0.0859
      9 F1          2.5324    2.5224    4.7599 F         1 <0>        -0.1064
     10 C8         -2.0218    3.2419    6.2818 C.cat     1 <0>         0.4266
     11 C9         -4.1477    3.1528    6.6791 C.2       1 <0>        -0.0722
     12 C10        -4.0003    3.0123    5.3464 C.2       1 <0>         0.1215
     13 N1         -2.6548    3.0622    5.0839 N.pl3     1 <0>        -0.3695
     14 C11        -2.0458    2.9553    3.8263 C.ar      1 <0>         0.1044
     15 C12        -2.2769    1.8387    3.0341 C.ar      1 <0>        -0.1058
     16 C13        -1.6755    1.7365    1.7949 C.ar      1 <0>        -0.0006
     17 C14        -0.8440    2.7447    1.3430 C.ar      1 <0>        -0.6275
     18 C15        -0.6074    3.8553    2.1321 C.ar      1 <0>        -0.0030
     19 C16        -1.2104    3.9660    3.3698 C.ar      1 <0>        -0.1116
     20 S1         -0.0787    2.6106   -0.2384 S.o2      1 <0>         2.4907
     21 O2          0.0034    1.2134   -0.4842 O.2       1 <0>        -0.9197
     22 O3          1.0992    3.3991   -0.1392 O.2       1 <0>        -0.9194
     23 C17        -1.2503    3.3797   -1.3900 C.3       1 <0>        -0.6453
     24 C18        -5.4571    3.1570    7.4250 C.3       1 <0>         0.5544
     25 F2         -5.2244    3.4450    8.7741 F         1 <0>        -0.1592
     26 F3         -6.3015    4.1299    6.8794 F         1 <0>        -0.1442
     27 F4         -6.0611    1.9000    7.3139 F         1 <0>        -0.1446
     28 H1          5.0486    4.3243    8.2727 H         1 <0>         0.1201
     29 H2          3.5737    5.3203    8.3031 H         1 <0>         0.0703
     30 H3          3.5913    3.7312    9.1049 H         1 <0>         0.0702
     31 H4          1.6925    4.5138    8.7219 H         1 <0>         0.1655
     32 H5         -0.7362    4.3225    8.3950 H         1 <0>         0.1469
     33 H6         -0.0680    2.4110    4.6142 H         1 <0>         0.1562
     34 H7         -4.7915    2.8826    4.6229 H         1 <0>         0.2425
     35 H8         -2.9265    1.0511    3.3863 H         1 <0>         0.1562
     36 H9         -1.8552    0.8683    1.1781 H         1 <0>         0.1705
     37 H10         0.0462    4.6389    1.7785 H         1 <0>         0.1695
     38 H11        -1.0284    4.8355    3.9840 H         1 <0>         0.1526
     39 H12        -2.1992    2.8444   -1.3546 H         1 <0>         0.1354
     40 H13        -1.4092    4.4200   -1.1059 H         1 <0>         0.1351
     41 H14        -0.8466    3.3370   -2.4016 H         1 <0>         0.1436
     42 N2         -2.9348    3.2937    7.2260 N.pl3     1 <0>        -0.4648
     43 H15        -2.7465    3.4222    8.2272 H         1 <0>         0.4864
@<TRIPOS>BOND
     1    1    2 1
     2    1   28 1
     3    1   29 1
     4    1   30 1
     5    2    3 1
     6    3    8 ar
     7    3    4 ar
     8    4    5 ar
     9    4   31 1
    10    5    6 ar
    11    5   32 1
    12    6    7 ar
    13    6   10 1
    14    7    8 ar
    15    7   33 1
    16    8    9 1
    17   10   13 1
    18   10   42 2
    19   11   12 2
    20   11   24 1
    21   11   42 1
    22   12   13 1
    23   12   34 1
    24   13   14 1
    25   14   19 ar
    26   14   15 ar
    27   15   16 ar
    28   15   35 1
    29   16   17 ar
    30   16   36 1
    31   17   18 ar
    32   17   20 1
    33   18   19 ar
    34   18   37 1
    35   19   38 1
    36   20   21 2
    37   20   22 2
    38   20   23 1
    39   23   39 1
    40   23   40 1
    41   23   41 1
    42   24   25 1
    43   24   26 1
    44   24   27 1
    45   42   43 1
@<TRIPOS>MOLECULE
ZINC03814597
   42    44     0     0     0
SMALL
USER_CHARGES

@<TRIPOS>ATOM
      1 C1          4.0747    4.5285    8.7080 C.3       1 <0>        -0.1590
      2 S1          3.9163    3.7137    7.0951 S.3       1 <0>        -0.0681
      3 C2          2.1761    3.5755    6.8564 C.ar      1 <0>        -0.0648
      4 C3          1.3019    4.0555    7.8264 C.ar      1 <0>        -0.1233
      5 C4         -0.0591    3.9484    7.6428 C.ar      1 <0>        -0.0430
      6 C5         -0.5619    3.3573    6.4816 C.ar      1 <0>        -0.0258
      7 C6          0.3173    2.8709    5.5116 C.ar      1 <0>        -0.0793
      8 C7          1.6783    2.9857    5.6976 C.ar      1 <0>        -0.0225
      9 Cl1         2.7724    2.3875    4.4899 Cl        1 <0>        -0.0361
     10 C8         -2.0214    3.2414    6.2824 C.2       1 <0>         0.2807
     11 N1         -2.9346    3.2929    7.2276 N.2       1 <0>        -0.4257
     12 C9         -4.1477    3.1521    6.6792 C.2       1 <0>        -0.0818
     13 C10        -4.0002    3.0126    5.3466 C.2       1 <0>         0.0392
     14 N2         -2.6544    3.0622    5.0841 N.pl3     1 <0>        -0.4127
     15 C11        -2.0453    2.9556    3.8265 C.ar      1 <0>         0.1549
     16 C12        -2.2766    1.8393    3.0339 C.ar      1 <0>        -0.1275
     17 C13        -1.6752    1.7373    1.7948 C.ar      1 <0>        -0.0040
     18 C14        -0.8437    2.7457    1.3431 C.ar      1 <0>        -0.6498
     19 C15        -0.6072    3.8562    2.1324 C.ar      1 <0>        -0.0046
     20 C16        -1.2095    3.9662    3.3705 C.ar      1 <0>        -0.1235
     21 S2         -0.0783    2.6119   -0.2383 S.o2      1 <0>         2.4958
     22 O1          0.0039    1.2148   -0.4843 O.2       1 <0>        -0.9293
     23 O2          1.0996    3.4005   -0.1389 O.2       1 <0>        -0.9272
     24 C17        -1.2499    3.3812   -1.3898 C.3       1 <0>        -0.6492
     25 C18        -5.4572    3.1560    7.4250 C.3       1 <0>         0.5564
     26 F1         -5.2247    3.4434    8.7742 F         1 <0>        -0.1622
     27 F2         -6.3015    4.1293    6.8797 F         1 <0>        -0.1713
     28 F3         -6.0613    1.8991    7.3132 F         1 <0>        -0.1708
     29 H1          3.5864    5.5023    8.6727 H         1 <0>         0.0879
     30 H2          3.6028    3.9130    9.4739 H         1 <0>         0.0882
     31 H3          5.1301    4.6597    8.9467 H         1 <0>         0.1151
     32 H4          1.6908    4.5128    8.7241 H         1 <0>         0.1430
     33 H5         -0.7369    4.3210    8.3966 H         1 <0>         0.1483
     34 H6         -0.0687    2.4090    4.6149 H         1 <0>         0.1402
     35 H7         -4.7914    2.8835    4.6230 H         1 <0>         0.1989
     36 H8         -2.9265    1.0518    3.3858 H         1 <0>         0.1469
     37 H9         -1.8548    0.8693    1.1778 H         1 <0>         0.1583
     38 H10         0.0460    4.6402    1.7787 H         1 <0>         0.1584
     39 H11        -1.0276    4.8356    3.9848 H         1 <0>         0.1450
     40 H12        -2.1987    2.8459   -1.3545 H         1 <0>         0.1333
     41 H13        -1.4088    4.4214   -1.1055 H         1 <0>         0.1335
     42 H14        -0.8461    3.3387   -2.4014 H         1 <0>         0.1372
@<TRIPOS>BOND
     1    1    2 1
     2    1   29 1
     3    1   30 1
     4    1   31 1
     5    2    3 1
     6    3    8 ar
     7    3    4 ar
     8    4    5 ar
     9    4   32 1
    10    5    6 ar
    11    5   33 1
    12    6    7 ar
    13    6   10 1
    14    7    8 ar
    15    7   34 1
    16    8    9 1
    17   10   14 1
    18   10   11 2
    19   11   12 1
    20   12   13 2
    21   12   25 1
    22   13   14 1
    23   13   35 1
    24   14   15 1
    25   15   20 ar
    26   15   16 ar
    27   16   17 ar
    28   16   36 1
    29   17   18 ar
    30   17   37 1
    31   18   19 ar
    32   18   21 1
    33   19   20 ar
    34   19   38 1
    35   20   39 1
    36   21   22 2
    37   21   23 2
    38   21   24 1
    39   24   40 1
    40   24   41 1
    41   24   42 1
    42   25   26 1
    43   25   27 1
    44   25   28 1
@<TRIPOS>MOLECULE
ZINC03814597
   43    45     0     0     0
SMALL
USER_CHARGES

@<TRIPOS>ATOM
      1 C1          4.0747    4.5285    8.7080 C.3       1 <0>        -0.1720
      2 S1          3.9163    3.7137    7.0951 S.3       1 <0>        -0.0109
      3 C2          2.1761    3.5755    6.8564 C.ar      1 <0>        -0.0335
      4 C3          1.3019    4.0555    7.8264 C.ar      1 <0>        -0.1233
      5 C4         -0.0591    3.9484    7.6428 C.ar      1 <0>        -0.0349
      6 C5         -0.5619    3.3573    6.4816 C.ar      1 <0>        -0.1157
      7 C6          0.3173    2.8709    5.5116 C.ar      1 <0>        -0.0386
      8 C7          1.6783    2.9857    5.6976 C.ar      1 <0>        -0.0311
      9 Cl1         2.7724    2.3875    4.4899 Cl        1 <0>        -0.0078
     10 C8         -2.0214    3.2414    6.2824 C.cat     1 <0>         0.4249
     11 C9         -4.1477    3.1521    6.6792 C.2       1 <0>        -0.0720
     12 C10        -4.0002    3.0126    5.3466 C.2       1 <0>         0.1215
     13 N1         -2.6544    3.0622    5.0841 N.pl3     1 <0>        -0.3698
     14 C11        -2.0453    2.9556    3.8265 C.ar      1 <0>         0.1050
     15 C12        -2.2766    1.8393    3.0339 C.ar      1 <0>        -0.1058
     16 C13        -1.6752    1.7373    1.7948 C.ar      1 <0>        -0.0002
     17 C14        -0.8437    2.7457    1.3431 C.ar      1 <0>        -0.6276
     18 C15        -0.6072    3.8562    2.1324 C.ar      1 <0>        -0.0020
     19 C16        -1.2095    3.9662    3.3705 C.ar      1 <0>        -0.1112
     20 S2         -0.0783    2.6119   -0.2383 S.o2      1 <0>         2.4887
     21 O1          0.0039    1.2148   -0.4843 O.2       1 <0>        -0.9196
     22 O2          1.0996    3.4005   -0.1389 O.2       1 <0>        -0.9189
     23 C17        -1.2499    3.3812   -1.3898 C.3       1 <0>        -0.6456
     24 C18        -5.4572    3.1560    7.4250 C.3       1 <0>         0.5544
     25 F1         -5.2247    3.4434    8.7742 F         1 <0>        -0.1593
     26 F2         -6.3015    4.1293    6.8797 F         1 <0>        -0.1443
     27 F3         -6.0613    1.8991    7.3132 F         1 <0>        -0.1446
     28 H1          3.5864    5.5023    8.6727 H         1 <0>         0.0949
     29 H2          3.6028    3.9130    9.4739 H         1 <0>         0.0948
     30 H3          5.1301    4.6597    8.9467 H         1 <0>         0.1262
     31 H4          1.6908    4.5128    8.7241 H         1 <0>         0.1568
     32 H5         -0.7369    4.3210    8.3966 H         1 <0>         0.1444
     33 H6         -0.0687    2.4090    4.6149 H         1 <0>         0.1512
     34 H7         -4.7914    2.8835    4.6230 H         1 <0>         0.2426
     35 H8         -2.9265    1.0518    3.3858 H         1 <0>         0.1560
     36 H9         -1.8548    0.8693    1.1778 H         1 <0>         0.1703
     37 H10         0.0460    4.6402    1.7787 H         1 <0>         0.1694
     38 H11        -1.0276    4.8356    3.9848 H         1 <0>         0.1521
     39 H12        -2.1987    2.8459   -1.3545 H         1 <0>         0.1355
     40 H13        -1.4088    4.4214   -1.1055 H         1 <0>         0.1353
     41 H14        -0.8461    3.3387   -2.4014 H         1 <0>         0.1436
     42 N2         -2.9348    3.2928    7.2266 N.pl3     1 <0>        -0.4652
     43 H15        -2.7468    3.4209    8.2278 H         1 <0>         0.4862
@<TRIPOS>BOND
     1    1    2 1
     2    1   28 1
     3    1   29 1
     4    1   30 1
     5    2    3 1
     6    3    8 ar
     7    3    4 ar
     8    4    5 ar
     9    4   31 1
    10    5    6 ar
    11    5   32 1
    12    6    7 ar
    13    6   10 1
    14    7    8 ar
    15    7   33 1
    16    8    9 1
    17   10   13 1
    18   10   42 2
    19   11   12 2
    20   11   24 1
    21   11   42 1
    22   12   13 1
    23   12   34 1
    24   13   14 1
    25   14   19 ar
    26   14   15 ar
    27   15   16 ar
    28   15   35 1
    29   16   17 ar
    30   16   36 1
    31   17   18 ar
    32   17   20 1
    33   18   19 ar
    34   18   37 1
    35   19   38 1
    36   20   21 2
    37   20   22 2
    38   20   23 1
    39   23   39 1
    40   23   40 1
    41   23   41 1
    42   24   25 1
    43   24   26 1
    44   24   27 1
    45   42   43 1
@<TRIPOS>MOLECULE
ZINC03814598
   46    48     0     0     0
SMALL
USER_CHARGES

@<TRIPOS>ATOM
      1 C1          3.9536    5.0984    7.1843 C.3       1 <0>         0.0266
      2 N1          3.5538    3.6920    7.0425 N.pl3     1 <0>        -0.5083
      3 C2          3.9929    2.9007    8.1996 C.3       1 <0>         0.0271
      4 C3          2.1756    3.5804    6.8544 C.ar      1 <0>         0.1166
      5 C4          1.3019    4.0587    7.8245 C.ar      1 <0>        -0.1356
      6 C5         -0.0595    3.9505    7.6416 C.ar      1 <0>        -0.0560
      7 C6         -0.5622    3.3593    6.4807 C.ar      1 <0>        -0.0198
      8 C7          0.3171    2.8740    5.5106 C.ar      1 <0>        -0.0965
      9 C8          1.6784    2.9902    5.6965 C.ar      1 <0>        -0.0122
     10 Cl1         2.7728    2.3939    4.4881 Cl        1 <0>        -0.0362
     11 C9         -2.0218    3.2420    6.2819 C.2       1 <0>         0.2794
     12 N2         -2.9346    3.2925    7.2274 N.2       1 <0>        -0.4253
     13 C10        -4.1478    3.1511    6.6794 C.2       1 <0>        -0.0822
     14 C11        -4.0006    3.0126    5.3467 C.2       1 <0>         0.0392
     15 N3         -2.6550    3.0628    5.0838 N.pl3     1 <0>        -0.4123
     16 C12        -2.0461    2.9566    3.8261 C.ar      1 <0>         0.1551
     17 C13        -2.2772    1.8404    3.0334 C.ar      1 <0>        -0.1275
     18 C14        -1.6760    1.7388    1.7941 C.ar      1 <0>        -0.0040
     19 C15        -0.8447    2.7474    1.3426 C.ar      1 <0>        -0.6496
     20 C16        -0.6081    3.8577    2.1322 C.ar      1 <0>        -0.0043
     21 C17        -1.2109    3.9676    3.3700 C.ar      1 <0>        -0.1227
     22 S1         -0.0796    2.6141   -0.2390 S.o2      1 <0>         2.4959
     23 O1          0.0027    1.2171   -0.4854 O.2       1 <0>        -0.9294
     24 O2          1.0983    3.4028   -0.1396 O.2       1 <0>        -0.9271
     25 C18        -1.2515    3.3836   -1.3901 C.3       1 <0>        -0.6493
     26 C19        -5.4571    3.1532    7.4257 C.3       1 <0>         0.5564
     27 F1         -5.2243    3.4395    8.7751 F         1 <0>        -0.1622
     28 F2         -6.3024    4.1261    6.8816 F         1 <0>        -0.1712
     29 F3         -6.0600    1.8958    7.3130 F         1 <0>        -0.1709
     30 H1          3.4469    5.5352    8.0449 H         1 <0>         0.0343
     31 H2          5.0323    5.1566    7.3297 H         1 <0>         0.0794
     32 H3          3.6783    5.6470    6.2835 H         1 <0>         0.0727
     33 H4          3.7462    1.8515    8.0370 H         1 <0>         0.0726
     34 H5          5.0708    3.0055    8.3235 H         1 <0>         0.0796
     35 H6          3.4876    3.2579    9.0970 H         1 <0>         0.0345
     36 H7          1.6908    4.5160    8.7223 H         1 <0>         0.1394
     37 H8         -0.7373    4.3224    8.3958 H         1 <0>         0.1450
     38 H9         -0.0686    2.4122    4.6137 H         1 <0>         0.1385
     39 H10        -4.7920    2.8838    4.6231 H         1 <0>         0.1989
     40 H11        -2.9266    1.0525    3.3854 H         1 <0>         0.1467
     41 H12        -1.8556    0.8709    1.1769 H         1 <0>         0.1582
     42 H13         0.0454    4.6415    1.7788 H         1 <0>         0.1582
     43 H14        -1.0290    4.8369    3.9846 H         1 <0>         0.1446
     44 H15        -2.2002    2.8482   -1.3548 H         1 <0>         0.1333
     45 H16        -1.4105    4.4237   -1.1055 H         1 <0>         0.1335
     46 H17        -0.8479    3.3414   -2.4018 H         1 <0>         0.1371
@<TRIPOS>BOND
     1    1    2 1
     2    1   30 1
     3    1   31 1
     4    1   32 1
     5    2    3 1
     6    2    4 1
     7    3   33 1
     8    3   34 1
     9    3   35 1
    10    4    9 ar
    11    4    5 ar
    12    5    6 ar
    13    5   36 1
    14    6    7 ar
    15    6   37 1
    16    7    8 ar
    17    7   11 1
    18    8    9 ar
    19    8   38 1
    20    9   10 1
    21   11   15 1
    22   11   12 2
    23   12   13 1
    24   13   14 2
    25   13   26 1
    26   14   15 1
    27   14   39 1
    28   15   16 1
    29   16   21 ar
    30   16   17 ar
    31   17   18 ar
    32   17   40 1
    33   18   19 ar
    34   18   41 1
    35   19   20 ar
    36   19   22 1
    37   20   21 ar
    38   20   42 1
    39   21   43 1
    40   22   23 2
    41   22   24 2
    42   22   25 1
    43   25   44 1
    44   25   45 1
    45   25   46 1
    46   26   27 1
    47   26   28 1
    48   26   29 1
@<TRIPOS>MOLECULE
ZINC03814598
   47    49     0     0     0
SMALL
USER_CHARGES

@<TRIPOS>ATOM
      1 C1          3.9536    5.0984    7.1843 C.3       1 <0>         0.0228
      2 N1          3.5538    3.6920    7.0425 N.pl3     1 <0>        -0.5150
      3 C2          3.9929    2.9007    8.1996 C.3       1 <0>         0.0238
      4 C3          2.1756    3.5804    6.8544 C.ar      1 <0>         0.1676
      5 C4          1.3019    4.0587    7.8245 C.ar      1 <0>        -0.1315
      6 C5         -0.0595    3.9505    7.6416 C.ar      1 <0>        -0.0518
      7 C6         -0.5622    3.3593    6.4807 C.ar      1 <0>        -0.1018
      8 C7          0.3171    2.8740    5.5106 C.ar      1 <0>        -0.0598
      9 C8          1.6784    2.9902    5.6965 C.ar      1 <0>        -0.0173
     10 Cl1         2.7728    2.3939    4.4881 Cl        1 <0>        -0.0040
     11 C9         -2.0218    3.2420    6.2819 C.cat     1 <0>         0.4209
     12 C10        -4.1478    3.1511    6.6794 C.2       1 <0>        -0.0713
     13 C11        -4.0006    3.0126    5.3467 C.2       1 <0>         0.1222
     14 N2         -2.6550    3.0628    5.0838 N.pl3     1 <0>        -0.3672
     15 C12        -2.0461    2.9566    3.8261 C.ar      1 <0>         0.1033
     16 C13        -2.2772    1.8404    3.0334 C.ar      1 <0>        -0.1052
     17 C14        -1.6760    1.7388    1.7941 C.ar      1 <0>         0.0000
     18 C15        -0.8447    2.7474    1.3426 C.ar      1 <0>        -0.6268
     19 C16        -0.6081    3.8577    2.1322 C.ar      1 <0>        -0.0016
     20 C17        -1.2109    3.9676    3.3700 C.ar      1 <0>        -0.1104
     21 S1         -0.0796    2.6141   -0.2390 S.o2      1 <0>         2.4886
     22 O1          0.0027    1.2171   -0.4854 O.2       1 <0>        -0.9194
     23 O2          1.0983    3.4028   -0.1396 O.2       1 <0>        -0.9185
     24 C18        -1.2515    3.3836   -1.3901 C.3       1 <0>        -0.6456
     25 C19        -5.4571    3.1532    7.4257 C.3       1 <0>         0.5544
     26 F1         -5.2243    3.4395    8.7751 F         1 <0>        -0.1590
     27 F2         -6.3024    4.1261    6.8816 F         1 <0>        -0.1438
     28 F3         -6.0600    1.8958    7.3130 F         1 <0>        -0.1442
     29 H1          3.4469    5.5352    8.0449 H         1 <0>         0.0387
     30 H2          5.0323    5.1566    7.3297 H         1 <0>         0.0901
     31 H3          3.6783    5.6470    6.2835 H         1 <0>         0.0770
     32 H4          3.7462    1.8515    8.0370 H         1 <0>         0.0767
     33 H5          5.0708    3.0055    8.3235 H         1 <0>         0.0903
     34 H6          3.4876    3.2579    9.0970 H         1 <0>         0.0389
     35 H7          1.6908    4.5160    8.7223 H         1 <0>         0.1556
     36 H8         -0.7373    4.3224    8.3958 H         1 <0>         0.1425
     37 H9         -0.0686    2.4122    4.6137 H         1 <0>         0.1507
     38 H10        -4.7920    2.8838    4.6231 H         1 <0>         0.2435
     39 H11        -2.9266    1.0525    3.3854 H         1 <0>         0.1561
     40 H12        -1.8556    0.8709    1.1769 H         1 <0>         0.1706
     41 H13         0.0454    4.6415    1.7788 H         1 <0>         0.1696
     42 H14        -1.0290    4.8369    3.9846 H         1 <0>         0.1517
     43 H15        -2.2002    2.8482   -1.3548 H         1 <0>         0.1355
     44 H16        -1.4105    4.4237   -1.1055 H         1 <0>         0.1353
     45 H17        -0.8479    3.3414   -2.4018 H         1 <0>         0.1437
     46 N3         -2.9348    3.2924    7.2264 N.pl3     1 <0>        -0.4627
     47 H18        -2.7465    3.4202    8.2276 H         1 <0>         0.4868
@<TRIPOS>BOND
     1    1    2 1
     2    1   29 1
     3    1   30 1
     4    1   31 1
     5    2    3 1
     6    2    4 1
     7    3   32 1
     8    3   33 1
     9    3   34 1
    10    4    9 ar
    11    4    5 ar
    12    5    6 ar
    13    5   35 1
    14    6    7 ar
    15    6   36 1
    16    7    8 ar
    17    7   11 1
    18    8    9 ar
    19    8   37 1
    20    9   10 1
    21   11   14 1
    22   11   46 2
    23   12   13 2
    24   12   25 1
    25   12   46 1
    26   13   14 1
    27   13   38 1
    28   14   15 1
    29   15   20 ar
    30   15   16 ar
    31   16   17 ar
    32   16   39 1
    33   17   18 ar
    34   17   40 1
    35   18   19 ar
    36   18   21 1
    37   19   20 ar
    38   19   41 1
    39   20   42 1
    40   21   22 2
    41   21   23 2
    42   21   24 1
    43   24   43 1
    44   24   44 1
    45   24   45 1
    46   25   26 1
    47   25   27 1
    48   25   28 1
    49   46   47 1
@<TRIPOS>MOLECULE
ZINC03814599
   43    45     0     0     0
SMALL
USER_CHARGES

@<TRIPOS>ATOM
      1 C1         -2.1830    1.7471    1.3537 C.3       1 <0>         0.0856
      2 N1         -0.8838    2.4132    1.2320 N.pl3     1 <0>        -0.7381
      3 C2          0.2622    1.6635    0.9640 C.ar      1 <0>         0.2485
      4 C3          0.1705    0.2837    0.8185 C.ar      1 <0>        -0.1879
      5 C4          1.3010   -0.4601    0.5595 C.ar      1 <0>        -0.0109
      6 C5          2.5404    0.1728    0.4431 C.ar      1 <0>        -0.0858
      7 C6          2.6303    1.5584    0.5897 C.ar      1 <0>        -0.0422
      8 C7          1.4955    2.2976    0.8487 C.ar      1 <0>        -0.1152
      9 Cl1         1.6056    4.0204    1.0318 Cl        1 <0>        -0.0596
     10 C8          3.7546   -0.6226    0.1659 C.2       1 <0>         0.2965
     11 N2          3.9234   -1.8955    0.4504 N.2       1 <0>        -0.4349
     12 C9          5.1425   -2.2800    0.0528 C.2       1 <0>        -0.0813
     13 C10         5.7688   -1.2177   -0.4914 C.2       1 <0>         0.0303
     14 N3          4.8972   -0.1602   -0.4249 N.pl3     1 <0>        -0.4168
     15 C11         5.1335    1.1453   -0.8763 C.ar      1 <0>         0.1608
     16 C12         4.2806    1.7250   -1.8060 C.ar      1 <0>        -0.1222
     17 C13         4.5129    3.0139   -2.2446 C.ar      1 <0>        -0.0042
     18 C14         5.6002    3.7227   -1.7677 C.ar      1 <0>        -0.6516
     19 C15         6.4545    3.1461   -0.8456 C.ar      1 <0>        -0.0046
     20 C16         6.2242    1.8596   -0.3990 C.ar      1 <0>        -0.1299
     21 S1          5.8976    5.3639   -2.3355 S.o2      1 <0>         2.4968
     22 O1          4.6202    5.8502   -2.7240 O.2       1 <0>        -0.9290
     23 O2          6.6203    5.9866   -1.2823 O.2       1 <0>        -0.9305
     24 C17         6.9609    5.1677   -3.7921 C.3       1 <0>        -0.6494
     25 C18         5.7195   -3.6649    0.1954 C.3       1 <0>         0.5569
     26 F1          6.3800   -3.7707    1.4241 F         1 <0>        -0.1710
     27 F2          4.6879   -4.6081    0.1377 F         1 <0>        -0.1648
     28 F3          6.6263   -3.9015   -0.8434 F         1 <0>        -0.1724
     29 H1         -2.4165    1.2332    0.4212 H         1 <0>         0.0598
     30 H2         -2.1454    1.0234    2.1679 H         1 <0>         0.0600
     31 H3         -2.9536    2.4892    1.5624 H         1 <0>         0.0797
     32 H4         -0.8203    3.3753    1.3377 H         1 <0>         0.4069
     33 H5         -0.7881   -0.2055    0.9085 H         1 <0>         0.1412
     34 H6          1.2288   -1.5317    0.4469 H         1 <0>         0.1430
     35 H7          3.5875    2.0506    0.5006 H         1 <0>         0.1323
     36 H8          6.7676   -1.2019   -0.9020 H         1 <0>         0.1968
     37 H9          3.4341    1.1700   -2.1826 H         1 <0>         0.1449
     38 H10         3.8471    3.4671   -2.9641 H         1 <0>         0.1565
     39 H11         7.3027    3.7023   -0.4747 H         1 <0>         0.1569
     40 H12         6.8921    1.4096    0.3206 H         1 <0>         0.1457
     41 H13         6.4433    4.5693   -4.5418 H         1 <0>         0.1333
     42 H14         7.1931    6.1485   -4.2071 H         1 <0>         0.1366
     43 H15         7.8851    4.6676   -3.5026 H         1 <0>         0.1333
@<TRIPOS>BOND
     1    1    2 1
     2    1   29 1
     3    1   30 1
     4    1   31 1
     5    2    3 1
     6    2   32 1
     7    3    8 ar
     8    3    4 ar
     9    4    5 ar
    10    4   33 1
    11    5    6 ar
    12    5   34 1
    13    6    7 ar
    14    6   10 1
    15    7    8 ar
    16    7   35 1
    17    8    9 1
    18   10   14 1
    19   10   11 2
    20   11   12 1
    21   12   13 2
    22   12   25 1
    23   13   14 1
    24   13   36 1
    25   14   15 1
    26   15   20 ar
    27   15   16 ar
    28   16   17 ar
    29   16   37 1
    30   17   18 ar
    31   17   38 1
    32   18   19 ar
    33   18   21 1
    34   19   20 ar
    35   19   39 1
    36   20   40 1
    37   21   22 2
    38   21   23 2
    39   21   24 1
    40   24   41 1
    41   24   42 1
    42   24   43 1
    43   25   26 1
    44   25   27 1
    45   25   28 1
@<TRIPOS>MOLECULE
ZINC03814599
   44    46     0     0     0
SMALL
USER_CHARGES

@<TRIPOS>ATOM
      1 C1         -2.1830    1.7471    1.3537 C.3       1 <0>         0.0721
      2 N1         -0.8838    2.4132    1.2320 N.pl3     1 <0>        -0.7123
      3 C2          0.2622    1.6635    0.9640 C.ar      1 <0>         0.2875
      4 C3          0.1705    0.2837    0.8185 C.ar      1 <0>        -0.1826
      5 C4          1.3010   -0.4601    0.5595 C.ar      1 <0>        -0.0057
      6 C5          2.5404    0.1728    0.4431 C.ar      1 <0>        -0.1730
      7 C6          2.6303    1.5584    0.5897 C.ar      1 <0>        -0.0046
      8 C7          1.4955    2.2976    0.8487 C.ar      1 <0>        -0.1201
      9 Cl1         1.6056    4.0204    1.0318 Cl        1 <0>        -0.0302
     10 C8          3.7546   -0.6226    0.1659 C.cat     1 <0>         0.4378
     11 C9          5.1425   -2.2800    0.0528 C.2       1 <0>        -0.0749
     12 C10         5.7688   -1.2177   -0.4914 C.2       1 <0>         0.1168
     13 N2          4.8972   -0.1602   -0.4249 N.pl3     1 <0>        -0.3772
     14 C11         5.1335    1.1453   -0.8763 C.ar      1 <0>         0.1116
     15 C12         4.2806    1.7250   -1.8060 C.ar      1 <0>        -0.1095
     16 C13         4.5129    3.0139   -2.2446 C.ar      1 <0>        -0.0018
     17 C14         5.6002    3.7227   -1.7677 C.ar      1 <0>        -0.6296
     18 C15         6.4545    3.1461   -0.8456 C.ar      1 <0>        -0.0007
     19 C16         6.2242    1.8596   -0.3990 C.ar      1 <0>        -0.1089
     20 S1          5.8976    5.3639   -2.3355 S.o2      1 <0>         2.4898
     21 O1          4.6202    5.8502   -2.7240 O.2       1 <0>        -0.9208
     22 O2          6.6203    5.9866   -1.2823 O.2       1 <0>        -0.9208
     23 C17         6.9609    5.1677   -3.7921 C.3       1 <0>        -0.6458
     24 C18         5.7195   -3.6649    0.1954 C.3       1 <0>         0.5537
     25 F1          6.3800   -3.7707    1.4241 F         1 <0>        -0.1486
     26 F2          4.6879   -4.6081    0.1377 F         1 <0>        -0.1580
     27 F3          6.6263   -3.9015   -0.8434 F         1 <0>        -0.1446
     28 H1         -2.4165    1.2332    0.4212 H         1 <0>         0.0706
     29 H2         -2.1454    1.0234    2.1679 H         1 <0>         0.0704
     30 H3         -2.9536    2.4892    1.5624 H         1 <0>         0.0925
     31 H4         -0.8203    3.3753    1.3377 H         1 <0>         0.4159
     32 H5         -0.7881   -0.2055    0.9085 H         1 <0>         0.1561
     33 H6          1.2288   -1.5317    0.4469 H         1 <0>         0.1413
     34 H7          3.5875    2.0506    0.5006 H         1 <0>         0.1443
     35 H8          6.7676   -1.2019   -0.9020 H         1 <0>         0.2401
     36 H9          3.4341    1.1700   -2.1826 H         1 <0>         0.1517
     37 H10         3.8471    3.4671   -2.9641 H         1 <0>         0.1674
     38 H11         7.3027    3.7023   -0.4747 H         1 <0>         0.1688
     39 H12         6.8921    1.4096    0.3206 H         1 <0>         0.1546
     40 H13         6.4433    4.5693   -4.5418 H         1 <0>         0.1351
     41 H14         7.1931    6.1485   -4.2071 H         1 <0>         0.1430
     42 H15         7.8851    4.6676   -3.5026 H         1 <0>         0.1354
     43 N3          3.9241   -1.8949    0.4499 N.pl3     1 <0>        -0.4717
     44 H16         3.2299   -2.4989    0.9055 H         1 <0>         0.4849
@<TRIPOS>BOND
     1    1    2 1
     2    1   28 1
     3    1   29 1
     4    1   30 1
     5    2    3 1
     6    2   31 1
     7    3    8 ar
     8    3    4 ar
     9    4    5 ar
    10    4   32 1
    11    5    6 ar
    12    5   33 1
    13    6    7 ar
    14    6   10 1
    15    7    8 ar
    16    7   34 1
    17    8    9 1
    18   10   13 1
    19   10   43 2
    20   11   12 2
    21   11   24 1
    22   11   43 1
    23   12   13 1
    24   12   35 1
    25   13   14 1
    26   14   19 ar
    27   14   15 ar
    28   15   16 ar
    29   15   36 1
    30   16   17 ar
    31   16   37 1
    32   17   18 ar
    33   17   20 1
    34   18   19 ar
    35   18   38 1
    36   19   39 1
    37   20   21 2
    38   20   22 2
    39   20   23 1
    40   23   40 1
    41   23   41 1
    42   23   42 1
    43   24   25 1
    44   24   26 1
    45   24   27 1
    46   43   44 1
@<TRIPOS>MOLECULE
ZINC03814600
   38    40     0     0     0
SMALL
USER_CHARGES

@<TRIPOS>ATOM
      1 C1         -1.1707   -0.9405    0.1864 C.3       1 <0>        -0.0707
      2 C2          0.0183   -0.0208    0.0796 C.2       1 <0>         0.0155
      3 C3          0.0039    1.3128    0.2788 C.2       1 <0>        -0.0401
      4 N1          1.2846    1.7616    0.0832 N.pl3     1 <0>        -0.4200
      5 C4          2.0449    0.6707   -0.2326 C.2       1 <0>         0.2570
      6 N2          1.2670   -0.3893   -0.2297 N.2       1 <0>        -0.4584
      7 C5          3.4936    0.6810   -0.5280 C.ar      1 <0>        -0.0169
      8 C6          4.1053    1.8457   -0.9940 C.ar      1 <0>        -0.0965
      9 C7          5.4582    1.8507   -1.2628 C.ar      1 <0>        -0.1055
     10 C8          6.2072    0.7002   -1.0812 C.ar      1 <0>        -0.0224
     11 C9          5.6047   -0.4600   -0.6246 C.ar      1 <0>        -0.1077
     12 C10         4.2536   -0.4756   -0.3474 C.ar      1 <0>        -0.0622
     13 Cl1         7.9082    0.7122   -1.4280 Cl        1 <0>        -0.0601
     14 C11         1.7292    3.0865    0.1869 C.ar      1 <0>         0.1700
     15 C12         2.7581    3.4085    1.0618 C.ar      1 <0>        -0.1279
     16 C13         3.1977    4.7144    1.1578 C.ar      1 <0>        -0.0061
     17 C14         2.6067    5.7024    0.3919 C.ar      1 <0>        -0.6562
     18 C15         1.5783    5.3857   -0.4765 C.ar      1 <0>        -0.0054
     19 C16         1.1379    4.0808   -0.5809 C.ar      1 <0>        -0.1336
     20 S1          3.1658    7.3683    0.5222 S.o2      1 <0>         2.4992
     21 O1          4.5161    7.2650    0.9525 O.2       1 <0>        -0.9308
     22 O2          2.8480    7.9565   -0.7317 O.2       1 <0>        -0.9317
     23 C17         2.1469    8.1008    1.8322 C.3       1 <0>        -0.6492
     24 H1         -1.6604   -1.0156   -0.7845 H         1 <0>         0.0727
     25 H2         -0.8382   -1.9291    0.5031 H         1 <0>         0.0744
     26 H3         -1.8737   -0.5420    0.9180 H         1 <0>         0.0723
     27 H4         -0.8547    1.9142    0.5385 H         1 <0>         0.1824
     28 H5          3.5213    2.7423   -1.1402 H         1 <0>         0.1301
     29 H6          5.9335    2.7525   -1.6195 H         1 <0>         0.1408
     30 H7          6.1938   -1.3545   -0.4855 H         1 <0>         0.1428
     31 H8          3.7847   -1.3811    0.0084 H         1 <0>         0.1456
     32 H9          3.2170    2.6380    1.6635 H         1 <0>         0.1420
     33 H10         4.0007    4.9648    1.8352 H         1 <0>         0.1556
     34 H11         1.1187    6.1595   -1.0734 H         1 <0>         0.1554
     35 H12         0.3341    3.8341   -1.2587 H         1 <0>         0.1437
     36 H13         2.2987    7.5507    2.7609 H         1 <0>         0.1329
     37 H14         2.4338    9.1425    1.9758 H         1 <0>         0.1364
     38 H15         1.0962    8.0493    1.5469 H         1 <0>         0.1327
@<TRIPOS>BOND
     1    1    2 1
     2    1   24 1
     3    1   25 1
     4    1   26 1
     5    2    6 1
     6    2    3 2
     7    3    4 1
     8    3   27 1
     9    4    5 1
    10    4   14 1
    11    5    6 2
    12    5    7 1
    13    7   12 ar
    14    7    8 ar
    15    8    9 ar
    16    8   28 1
    17    9   10 ar
    18    9   29 1
    19   10   11 ar
    20   10   13 1
    21   11   12 ar
    22   11   30 1
    23   12   31 1
    24   14   19 ar
    25   14   15 ar
    26   15   16 ar
    27   15   32 1
    28   16   17 ar
    29   16   33 1
    30   17   18 ar
    31   17   20 1
    32   18   19 ar
    33   18   34 1
    34   19   35 1
    35   20   21 2
    36   20   22 2
    37   20   23 1
    38   23   36 1
    39   23   37 1
    40   23   38 1
@<TRIPOS>MOLECULE
ZINC03814600
   39    41     0     0     0
SMALL
USER_CHARGES

@<TRIPOS>ATOM
      1 C1         -1.1707   -0.9405    0.1864 C.3       1 <0>        -0.1015
      2 C2          0.0183   -0.0208    0.0796 C.2       1 <0>         0.0506
      3 C3          0.0039    1.3128    0.2788 C.2       1 <0>         0.0275
      4 N1          1.2846    1.7616    0.0832 N.pl3     1 <0>        -0.3631
      5 C4          2.0449    0.6707   -0.2326 C.cat     1 <0>         0.3772
      6 C5          3.4936    0.6810   -0.5280 C.ar      1 <0>        -0.0959
      7 C6          4.1053    1.8457   -0.9940 C.ar      1 <0>        -0.0605
      8 C7          5.4582    1.8507   -1.2628 C.ar      1 <0>        -0.1005
      9 C8          6.2072    0.7002   -1.0812 C.ar      1 <0>         0.0100
     10 C9          5.6047   -0.4600   -0.6246 C.ar      1 <0>        -0.1013
     11 C10         4.2536   -0.4756   -0.3474 C.ar      1 <0>        -0.0596
     12 Cl1         7.9082    0.7122   -1.4280 Cl        1 <0>        -0.0237
     13 C11         1.7292    3.0865    0.1869 C.ar      1 <0>         0.1159
     14 C12         2.7581    3.4085    1.0618 C.ar      1 <0>        -0.1130
     15 C13         3.1977    4.7144    1.1578 C.ar      1 <0>        -0.0037
     16 C14         2.6067    5.7024    0.3919 C.ar      1 <0>        -0.6322
     17 C15         1.5783    5.3857   -0.4765 C.ar      1 <0>        -0.0020
     18 C16         1.1379    4.0808   -0.5809 C.ar      1 <0>        -0.1102
     19 S1          3.1658    7.3683    0.5222 S.o2      1 <0>         2.4921
     20 O1          4.5161    7.2650    0.9525 O.2       1 <0>        -0.9218
     21 O2          2.8480    7.9565   -0.7317 O.2       1 <0>        -0.9217
     22 C17         2.1469    8.1008    1.8322 C.3       1 <0>        -0.6457
     23 H1         -1.6604   -1.0156   -0.7845 H         1 <0>         0.1038
     24 H2         -0.8382   -1.9291    0.5031 H         1 <0>         0.0935
     25 H3         -1.8737   -0.5420    0.9180 H         1 <0>         0.1092
     26 H4         -0.8547    1.9142    0.5385 H         1 <0>         0.2269
     27 H5          3.5213    2.7423   -1.1402 H         1 <0>         0.1423
     28 H6          5.9335    2.7525   -1.6195 H         1 <0>         0.1572
     29 H7          6.1938   -1.3545   -0.4855 H         1 <0>         0.1580
     30 H8          3.7847   -1.3811    0.0084 H         1 <0>         0.1435
     31 H9          3.2170    2.6380    1.6635 H         1 <0>         0.1490
     32 H10         4.0007    4.9648    1.8352 H         1 <0>         0.1668
     33 H11         1.1187    6.1595   -1.0734 H         1 <0>         0.1677
     34 H12         0.3341    3.8341   -1.2587 H         1 <0>         0.1530
     35 H13         2.2987    7.5507    2.7609 H         1 <0>         0.1347
     36 H14         2.4338    9.1425    1.9758 H         1 <0>         0.1430
     37 H15         1.0962    8.0493    1.5469 H         1 <0>         0.1349
     38 N2          1.2667   -0.3883   -0.2295 N.pl3     1 <0>        -0.4788
     39 H16         1.5697   -1.3481   -0.4326 H         1 <0>         0.4782
@<TRIPOS>BOND
     1    1    2 1
     2    1   23 1
     3    1   24 1
     4    1   25 1
     5    2    3 2
     6    2   38 1
     7    3    4 1
     8    3   26 1
     9    4    5 1
    10    4   13 1
    11    5    6 1
    12    5   38 2
    13    6   11 ar
    14    6    7 ar
    15    7    8 ar
    16    7   27 1
    17    8    9 ar
    18    8   28 1
    19    9   10 ar
    20    9   12 1
    21   10   11 ar
    22   10   29 1
    23   11   30 1
    24   13   18 ar
    25   13   14 ar
    26   14   15 ar
    27   14   31 1
    28   15   16 ar
    29   15   32 1
    30   16   17 ar
    31   16   19 1
    32   17   18 ar
    33   17   33 1
    34   18   34 1
    35   19   20 2
    36   19   21 2
    37   19   22 1
    38   22   35 1
    39   22   36 1
    40   22   37 1
    41   38   39 1
@<TRIPOS>MOLECULE
ZINC03814602
   41    43     0     0     0
SMALL
USER_CHARGES

@<TRIPOS>ATOM
      1 C1          2.6307    2.4667    4.6535 C.3       1 <0>        -0.1194
      2 C2          1.6799    2.9856    5.7013 C.ar      1 <0>        -0.1120
      3 C3          0.3183    2.8708    5.5127 C.ar      1 <0>        -0.0812
      4 C4         -0.5611    3.3569    6.4812 C.ar      1 <0>        -0.0371
      5 C5         -0.0569    3.9475    7.6412 C.ar      1 <0>        -0.0465
      6 C6          1.3060    4.0524    7.8221 C.ar      1 <0>        -0.1462
      7 C7          2.1750    3.5727    6.8546 C.ar      1 <0>         0.1179
      8 F1          3.5095    3.6783    7.0366 F         1 <0>        -0.1296
      9 C8         -2.0215    3.2413    6.2821 C.2       1 <0>         0.2814
     10 N1         -2.9341    3.2938    7.2271 N.2       1 <0>        -0.4269
     11 C9         -4.1470    3.1531    6.6792 C.2       1 <0>        -0.0815
     12 C10        -3.9994    3.0122    5.3464 C.2       1 <0>         0.0370
     13 N2         -2.6543    3.0615    5.0842 N.pl3     1 <0>        -0.4136
     14 C11        -2.0451    2.9540    3.8267 C.ar      1 <0>         0.1578
     15 C12        -2.2765    1.8374    3.0348 C.ar      1 <0>        -0.1278
     16 C13        -1.6750    1.7346    1.7957 C.ar      1 <0>        -0.0046
     17 C14        -0.8433    2.7425    1.3435 C.ar      1 <0>        -0.6516
     18 C15        -0.6067    3.8535    2.1322 C.ar      1 <0>        -0.0072
     19 C16        -1.2092    3.9643    3.3702 C.ar      1 <0>        -0.1223
     20 S1         -0.0778    2.6077   -0.2377 S.o2      1 <0>         2.4977
     21 O1          0.0043    1.2104   -0.4829 O.2       1 <0>        -0.9298
     22 O2          1.1002    3.3962   -0.1387 O.2       1 <0>        -0.9291
     23 C17        -1.2492    3.3765   -1.3898 C.3       1 <0>        -0.6488
     24 C18        -5.4565    3.1573    7.4250 C.3       1 <0>         0.5562
     25 F2         -5.2239    3.4449    8.7742 F         1 <0>        -0.1620
     26 F3         -6.3007    4.1305    6.8796 F         1 <0>        -0.1714
     27 F4         -6.0607    1.9004    7.3135 F         1 <0>        -0.1711
     28 H1          2.8694    1.4242    4.8638 H         1 <0>         0.0793
     29 H2          2.1647    2.5417    3.6710 H         1 <0>         0.0743
     30 H3          3.5456    3.0590    4.6679 H         1 <0>         0.0771
     31 H4         -0.0665    2.4094    4.6153 H         1 <0>         0.1341
     32 H5         -0.7331    4.3212    8.3958 H         1 <0>         0.1485
     33 H6          1.6971    4.5094    8.7191 H         1 <0>         0.1474
     34 H7         -4.7905    2.8829    4.6226 H         1 <0>         0.1985
     35 H8         -2.9265    1.0501    3.3871 H         1 <0>         0.1467
     36 H9         -1.8546    0.8662    1.1792 H         1 <0>         0.1581
     37 H10         0.0466    4.6372    1.7781 H         1 <0>         0.1582
     38 H11        -1.0273    4.8341    3.9839 H         1 <0>         0.1454
     39 H12        -2.1980    2.8412   -1.3543 H         1 <0>         0.1334
     40 H13        -1.4080    4.4169   -1.1062 H         1 <0>         0.1335
     41 H14        -0.8453    3.3333   -2.4013 H         1 <0>         0.1373
@<TRIPOS>BOND
     1    1    2 1
     2    1   28 1
     3    1   29 1
     4    1   30 1
     5    2    7 ar
     6    2    3 ar
     7    3    4 ar
     8    3   31 1
     9    4    5 ar
    10    4    9 1
    11    5    6 ar
    12    5   32 1
    13    6    7 ar
    14    6   33 1
    15    7    8 1
    16    9   13 1
    17    9   10 2
    18   10   11 1
    19   11   12 2
    20   11   24 1
    21   12   13 1
    22   12   34 1
    23   13   14 1
    24   14   19 ar
    25   14   15 ar
    26   15   16 ar
    27   15   35 1
    28   16   17 ar
    29   16   36 1
    30   17   18 ar
    31   17   20 1
    32   18   19 ar
    33   18   37 1
    34   19   38 1
    35   20   21 2
    36   20   22 2
    37   20   23 1
    38   23   39 1
    39   23   40 1
    40   23   41 1
    41   24   25 1
    42   24   26 1
    43   24   27 1
@<TRIPOS>MOLECULE
ZINC03814602
   42    44     0     0     0
SMALL
USER_CHARGES

@<TRIPOS>ATOM
      1 C1          2.6307    2.4667    4.6535 C.3       1 <0>        -0.1297
      2 C2          1.6799    2.9856    5.7013 C.ar      1 <0>        -0.1037
      3 C3          0.3183    2.8708    5.5127 C.ar      1 <0>        -0.0449
      4 C4         -0.5611    3.3569    6.4812 C.ar      1 <0>        -0.1171
      5 C5         -0.0569    3.9475    7.6412 C.ar      1 <0>        -0.0427
      6 C6          1.3060    4.0524    7.8221 C.ar      1 <0>        -0.1395
      7 C7          2.1750    3.5727    6.8546 C.ar      1 <0>         0.1666
      8 F1          3.5095    3.6783    7.0366 F         1 <0>        -0.1083
      9 C8         -2.0215    3.2413    6.2821 C.cat     1 <0>         0.4223
     10 C9         -4.1470    3.1531    6.6792 C.2       1 <0>        -0.0715
     11 C10        -3.9994    3.0122    5.3464 C.2       1 <0>         0.1211
     12 N1         -2.6543    3.0615    5.0842 N.pl3     1 <0>        -0.3691
     13 C11        -2.0451    2.9540    3.8267 C.ar      1 <0>         0.1061
     14 C12        -2.2765    1.8374    3.0348 C.ar      1 <0>        -0.1055
     15 C13        -1.6750    1.7346    1.7957 C.ar      1 <0>        -0.0006
     16 C14        -0.8433    2.7425    1.3435 C.ar      1 <0>        -0.6286
     17 C15        -0.6067    3.8535    2.1322 C.ar      1 <0>        -0.0042
     18 C16        -1.2092    3.9643    3.3702 C.ar      1 <0>        -0.1100
     19 S1         -0.0778    2.6077   -0.2377 S.o2      1 <0>         2.4905
     20 O1          0.0043    1.2104   -0.4829 O.2       1 <0>        -0.9198
     21 O2          1.1002    3.3962   -0.1387 O.2       1 <0>        -0.9203
     22 C17        -1.2492    3.3765   -1.3898 C.3       1 <0>        -0.6452
     23 C18        -5.4565    3.1573    7.4250 C.3       1 <0>         0.5542
     24 F2         -5.2239    3.4449    8.7742 F         1 <0>        -0.1588
     25 F3         -6.3007    4.1305    6.8796 F         1 <0>        -0.1440
     26 F4         -6.0607    1.9004    7.3135 F         1 <0>        -0.1445
     27 H1          2.8694    1.4242    4.8638 H         1 <0>         0.0907
     28 H2          2.1647    2.5417    3.6710 H         1 <0>         0.0822
     29 H3          3.5456    3.0590    4.6679 H         1 <0>         0.0875
     30 H4         -0.0665    2.4094    4.6153 H         1 <0>         0.1472
     31 H5         -0.7331    4.3212    8.3958 H         1 <0>         0.1463
     32 H6          1.6971    4.5094    8.7191 H         1 <0>         0.1641
     33 H7         -4.7905    2.8829    4.6226 H         1 <0>         0.2429
     34 H8         -2.9265    1.0501    3.3871 H         1 <0>         0.1559
     35 H9         -1.8546    0.8662    1.1792 H         1 <0>         0.1703
     36 H10         0.0466    4.6372    1.7781 H         1 <0>         0.1695
     37 H11        -1.0273    4.8341    3.9839 H         1 <0>         0.1523
     38 H12        -2.1980    2.8412   -1.3543 H         1 <0>         0.1355
     39 H13        -1.4080    4.4169   -1.1062 H         1 <0>         0.1353
     40 H14        -0.8453    3.3333   -2.4013 H         1 <0>         0.1439
     41 N2         -2.9343    3.2937    7.2261 N.pl3     1 <0>        -0.4635
     42 H15        -2.7460    3.4224    8.2272 H         1 <0>         0.4870
@<TRIPOS>BOND
     1    1    2 1
     2    1   27 1
     3    1   28 1
     4    1   29 1
     5    2    7 ar
     6    2    3 ar
     7    3    4 ar
     8    3   30 1
     9    4    5 ar
    10    4    9 1
    11    5    6 ar
    12    5   31 1
    13    6    7 ar
    14    6   32 1
    15    7    8 1
    16    9   12 1
    17    9   41 2
    18   10   11 2
    19   10   23 1
    20   10   41 1
    21   11   12 1
    22   11   33 1
    23   12   13 1
    24   13   18 ar
    25   13   14 ar
    26   14   15 ar
    27   14   34 1
    28   15   16 ar
    29   15   35 1
    30   16   17 ar
    31   16   19 1
    32   17   18 ar
    33   17   36 1
    34   18   37 1
    35   19   20 2
    36   19   21 2
    37   19   22 1
    38   22   38 1
    39   22   39 1
    40   22   40 1
    41   23   24 1
    42   23   25 1
    43   23   26 1
    44   41   42 1
@<TRIPOS>MOLECULE
ZINC03814603
   42    44     0     0     0
SMALL
USER_CHARGES

@<TRIPOS>ATOM
      1 C1          0.8557    5.0989    9.9066 C.3       1 <0>         0.0216
      2 O1          1.8056    4.6266    8.9492 O.3       1 <0>        -0.2997
      3 C2          1.3111    4.0530    7.8204 C.ar      1 <0>         0.1432
      4 C3         -0.0575    3.9529    7.6376 C.ar      1 <0>        -0.1522
      5 C4         -0.5609    3.3576    6.4809 C.ar      1 <0>         0.0170
      6 C5          0.3185    2.8773    5.5090 C.ar      1 <0>        -0.1347
      7 C6          1.6808    2.9872    5.6974 C.ar      1 <0>        -0.0661
      8 C7          2.1792    3.5724    6.8481 C.ar      1 <0>        -0.0541
      9 Cl1         3.8948    3.7057    7.0777 Cl        1 <0>        -0.0431
     10 C8         -2.0214    3.2413    6.2820 C.2       1 <0>         0.2750
     11 N1         -2.9337    3.2902    7.2276 N.2       1 <0>        -0.4245
     12 C9         -4.1465    3.1501    6.6798 C.2       1 <0>        -0.0826
     13 C10        -3.9993    3.0140    5.3463 C.2       1 <0>         0.0405
     14 N2         -2.6546    3.0645    5.0839 N.pl3     1 <0>        -0.4102
     15 C11        -2.0457    2.9606    3.8260 C.ar      1 <0>         0.1556
     16 C12        -2.2765    1.8457    3.0314 C.ar      1 <0>        -0.1269
     17 C13        -1.6753    1.7464    1.7918 C.ar      1 <0>        -0.0050
     18 C14        -0.8447    2.7561    1.3419 C.ar      1 <0>        -0.6503
     19 C15        -0.6087    3.8653    2.1332 C.ar      1 <0>        -0.0067
     20 C16        -1.2108    3.9726    3.3716 C.ar      1 <0>        -0.1204
     21 S1         -0.0795    2.6258   -0.2400 S.o2      1 <0>         2.4982
     22 O2          0.0036    1.2292   -0.4886 O.2       1 <0>        -0.9298
     23 O3          1.0979    3.4150   -0.1394 O.2       1 <0>        -0.9288
     24 C17        -1.2519    3.3964   -1.3898 C.3       1 <0>        -0.6490
     25 C18        -5.4557    3.1508    7.4262 C.3       1 <0>         0.5564
     26 F1         -5.2228    3.4345    8.7762 F         1 <0>        -0.1624
     27 F2         -6.3010    4.1249    6.8841 F         1 <0>        -0.1710
     28 F3         -6.0588    1.8937    7.3112 F         1 <0>        -0.1705
     29 H1          1.3819    5.5326   10.7570 H         1 <0>         0.1078
     30 H2          0.2222    5.8571    9.4463 H         1 <0>         0.0601
     31 H3          0.2386    4.2674   10.2468 H         1 <0>         0.0624
     32 H4         -0.7335    4.3305    8.3905 H         1 <0>         0.1527
     33 H5         -0.0674    2.4201    4.6099 H         1 <0>         0.1353
     34 H6          2.3602    2.6152    4.9447 H         1 <0>         0.1497
     35 H7         -4.7906    2.8869    4.6224 H         1 <0>         0.1996
     36 H8         -2.9258    1.0570    3.3820 H         1 <0>         0.1466
     37 H9         -1.8545    0.8794    1.1733 H         1 <0>         0.1582
     38 H10         0.0441    4.6503    1.7809 H         1 <0>         0.1587
     39 H11        -1.0291    4.8409    3.9876 H         1 <0>         0.1453
     40 H12        -2.2004    2.8603   -1.3553 H         1 <0>         0.1332
     41 H13        -1.4115    4.4360   -1.1036 H         1 <0>         0.1334
     42 H14        -0.8484    3.3560   -2.4016 H         1 <0>         0.1373
@<TRIPOS>BOND
     1    1    2 1
     2    1   29 1
     3    1   30 1
     4    1   31 1
     5    2    3 1
     6    3    8 ar
     7    3    4 ar
     8    4    5 ar
     9    4   32 1
    10    5    6 ar
    11    5   10 1
    12    6    7 ar
    13    6   33 1
    14    7    8 ar
    15    7   34 1
    16    8    9 1
    17   10   14 1
    18   10   11 2
    19   11   12 1
    20   12   13 2
    21   12   25 1
    22   13   14 1
    23   13   35 1
    24   14   15 1
    25   15   20 ar
    26   15   16 ar
    27   16   17 ar
    28   16   36 1
    29   17   18 ar
    30   17   37 1
    31   18   19 ar
    32   18   21 1
    33   19   20 ar
    34   19   38 1
    35   20   39 1
    36   21   22 2
    37   21   23 2
    38   21   24 1
    39   24   40 1
    40   24   41 1
    41   24   42 1
    42   25   26 1
    43   25   27 1
    44   25   28 1
@<TRIPOS>MOLECULE
ZINC03814603
   43    45     0     0     0
SMALL
USER_CHARGES

@<TRIPOS>ATOM
      1 C1          0.8557    5.0989    9.9066 C.3       1 <0>         0.0167
      2 O1          1.8056    4.6266    8.9492 O.3       1 <0>        -0.2874
      3 C2          1.3111    4.0530    7.8204 C.ar      1 <0>         0.1545
      4 C3         -0.0575    3.9529    7.6376 C.ar      1 <0>        -0.1576
      5 C4         -0.5609    3.3576    6.4809 C.ar      1 <0>        -0.0632
      6 C5          0.3185    2.8773    5.5090 C.ar      1 <0>        -0.0929
      7 C6          1.6808    2.9872    5.6974 C.ar      1 <0>        -0.0624
      8 C7          2.1792    3.5724    6.8481 C.ar      1 <0>        -0.0195
      9 Cl1         3.8948    3.7057    7.0777 Cl        1 <0>        -0.0055
     10 C8         -2.0214    3.2413    6.2820 C.cat     1 <0>         0.4165
     11 C9         -4.1465    3.1501    6.6798 C.2       1 <0>        -0.0713
     12 C10        -3.9993    3.0140    5.3463 C.2       1 <0>         0.1230
     13 N1         -2.6546    3.0645    5.0839 N.pl3     1 <0>        -0.3642
     14 C11        -2.0457    2.9606    3.8260 C.ar      1 <0>         0.1035
     15 C12        -2.2765    1.8457    3.0314 C.ar      1 <0>        -0.1045
     16 C13        -1.6753    1.7464    1.7918 C.ar      1 <0>        -0.0009
     17 C14        -0.8447    2.7561    1.3419 C.ar      1 <0>        -0.6271
     18 C15        -0.6087    3.8653    2.1332 C.ar      1 <0>        -0.0034
     19 C16        -1.2108    3.9726    3.3716 C.ar      1 <0>        -0.1081
     20 S1         -0.0795    2.6258   -0.2400 S.o2      1 <0>         2.4910
     21 O2          0.0036    1.2292   -0.4886 O.2       1 <0>        -0.9198
     22 O3          1.0979    3.4150   -0.1394 O.2       1 <0>        -0.9200
     23 C17        -1.2519    3.3964   -1.3898 C.3       1 <0>        -0.6454
     24 C18        -5.4557    3.1508    7.4262 C.3       1 <0>         0.5543
     25 F1         -5.2228    3.4345    8.7762 F         1 <0>        -0.1591
     26 F2         -6.3010    4.1249    6.8841 F         1 <0>        -0.1434
     27 F3         -6.0588    1.8937    7.3112 F         1 <0>        -0.1437
     28 H1          1.3819    5.5326   10.7570 H         1 <0>         0.1197
     29 H2          0.2222    5.8571    9.4463 H         1 <0>         0.0631
     30 H3          0.2386    4.2674   10.2468 H         1 <0>         0.0625
     31 H4         -0.7335    4.3305    8.3905 H         1 <0>         0.1476
     32 H5         -0.0674    2.4201    4.6099 H         1 <0>         0.1484
     33 H6          2.3602    2.6152    4.9447 H         1 <0>         0.1670
     34 H7         -4.7906    2.8869    4.6224 H         1 <0>         0.2442
     35 H8         -2.9258    1.0570    3.3820 H         1 <0>         0.1559
     36 H9         -1.8545    0.8794    1.1733 H         1 <0>         0.1704
     37 H10         0.0441    4.6503    1.7809 H         1 <0>         0.1700
     38 H11        -1.0291    4.8409    3.9876 H         1 <0>         0.1523
     39 H12        -2.2004    2.8603   -1.3553 H         1 <0>         0.1354
     40 H13        -1.4115    4.4360   -1.1036 H         1 <0>         0.1352
     41 H14        -0.8484    3.3560   -2.4016 H         1 <0>         0.1438
     42 N2         -2.9339    3.2901    7.2266 N.pl3     1 <0>        -0.4615
     43 H15        -2.7453    3.4160    8.2280 H         1 <0>         0.4860
@<TRIPOS>BOND
     1    1    2 1
     2    1   28 1
     3    1   29 1
     4    1   30 1
     5    2    3 1
     6    3    8 ar
     7    3    4 ar
     8    4    5 ar
     9    4   31 1
    10    5    6 ar
    11    5   10 1
    12    6    7 ar
    13    6   32 1
    14    7    8 ar
    15    7   33 1
    16    8    9 1
    17   10   13 1
    18   10   42 2
    19   11   12 2
    20   11   24 1
    21   11   42 1
    22   12   13 1
    23   12   34 1
    24   13   14 1
    25   14   19 ar
    26   14   15 ar
    27   15   16 ar
    28   15   35 1
    29   16   17 ar
    30   16   36 1
    31   17   18 ar
    32   17   20 1
    33   18   19 ar
    34   18   37 1
    35   19   38 1
    36   20   21 2
    37   20   22 2
    38   20   23 1
    39   23   39 1
    40   23   40 1
    41   23   41 1
    42   24   25 1
    43   24   26 1
    44   24   27 1
    45   42   43 1
@<TRIPOS>MOLECULE
ZINC03814604
   41    44     0     0     0
SMALL
USER_CHARGES

@<TRIPOS>ATOM
      1 C1         -1.2464    3.3491   -1.3897 C.3       1 <0>        -0.6487
      2 S1         -0.0723    2.5907   -0.2333 S.o2      1 <0>         2.4979
      3 O1          0.0157    1.1927   -0.4719 O.2       1 <0>        -0.9302
      4 O2          1.1023    3.3847   -0.1374 O.2       1 <0>        -0.9288
      5 C2         -0.8393    2.7298    1.3469 C.ar      1 <0>        -0.6502
      6 C3         -0.6077    3.8454    2.1304 C.ar      1 <0>        -0.0054
      7 C4         -1.2113    3.9595    3.3675 C.ar      1 <0>        -0.1218
      8 C5         -2.0432    2.9480    3.8285 C.ar      1 <0>         0.1563
      9 C6         -2.2695    1.8266    3.0417 C.ar      1 <0>        -0.1280
     10 C7         -1.6669    1.7205    1.8034 C.ar      1 <0>        -0.0053
     11 N1         -2.6527    3.0584    5.0855 N.pl3     1 <0>        -0.4131
     12 C8         -3.9979    3.0031    5.3483 C.2       1 <0>         0.0376
     13 C9         -4.1462    3.1520    6.6800 C.2       1 <0>        -0.0814
     14 N2         -2.9334    3.2953    7.2279 N.2       1 <0>        -0.4256
     15 C10        -2.0199    3.2357    6.2839 C.2       1 <0>         0.2846
     16 C11        -0.5596    3.3458    6.4839 C.ar      1 <0>        -0.0230
     17 C12        -0.0547    3.9316    7.6460 C.ar      1 <0>        -0.0550
     18 C13         1.3080    4.0335    7.8310 C.ar      1 <0>        -0.0986
     19 C14         2.1814    3.5548    6.8651 C.ar      1 <0>         0.0553
     20 C15         1.6834    2.9685    5.7021 C.ar      1 <0>         0.0378
     21 C16         0.3181    2.8590    5.5139 C.ar      1 <0>        -0.0914
     22 O3          2.7362    2.5841    4.9225 O.3       1 <0>        -0.3026
     23 C17         3.8781    2.5689    5.7993 C.3       1 <0>         0.2117
     24 O4          3.5452    3.5367    6.8119 O.3       1 <0>        -0.3028
     25 C18        -5.4558    3.1565    7.4255 C.3       1 <0>         0.5575
     26 F1         -5.7770    1.8508    7.8118 F         1 <0>        -0.1701
     27 F2         -5.3428    3.9646    8.5619 F         1 <0>        -0.1639
     28 F3         -6.4636    3.6583    6.5949 F         1 <0>        -0.1715
     29 H1         -2.1930    2.8101   -1.3521 H         1 <0>         0.1333
     30 H2         -1.4098    4.3901   -1.1110 H         1 <0>         0.1334
     31 H3         -0.8418    3.3028   -2.4007 H         1 <0>         0.1370
     32 H4          0.0424    4.6302    1.7729 H         1 <0>         0.1577
     33 H5         -1.0334    4.8330    3.9773 H         1 <0>         0.1455
     34 H6         -2.9163    1.0383    3.3974 H         1 <0>         0.1468
     35 H7         -1.8426    0.8484    1.1909 H         1 <0>         0.1580
     36 H8         -4.7885    2.8658    4.6254 H         1 <0>         0.1994
     37 H9         -0.7315    4.3055    8.4001 H         1 <0>         0.1549
     38 H10         1.6966    4.4871    8.7308 H         1 <0>         0.1482
     39 H11        -0.0688    2.4008    4.6157 H         1 <0>         0.1369
     40 H12         4.0082    1.5812    6.2416 H         1 <0>         0.0896
     41 H13         4.7774    2.8705    5.2622 H         1 <0>         0.1379
@<TRIPOS>BOND
     1    1    2 1
     2    1   29 1
     3    1   30 1
     4    1   31 1
     5    2    3 2
     6    2    4 2
     7    2    5 1
     8    5   10 ar
     9    5    6 ar
    10    6    7 ar
    11    6   32 1
    12    7    8 ar
    13    7   33 1
    14    8    9 ar
    15    8   11 1
    16    9   10 ar
    17    9   34 1
    18   10   35 1
    19   11   15 1
    20   11   12 1
    21   12   13 2
    22   12   36 1
    23   13   14 1
    24   13   25 1
    25   14   15 2
    26   15   16 1
    27   16   21 ar
    28   16   17 ar
    29   17   18 ar
    30   17   37 1
    31   18   19 ar
    32   18   38 1
    33   19   24 1
    34   19   20 ar
    35   20   21 ar
    36   20   22 1
    37   21   39 1
    38   22   23 1
    39   23   24 1
    40   23   40 1
    41   23   41 1
    42   25   26 1
    43   25   27 1
    44   25   28 1
@<TRIPOS>MOLECULE
ZINC03814604
   42    45     0     0     0
SMALL
USER_CHARGES

@<TRIPOS>ATOM
      1 C1         -1.2464    3.3491   -1.3897 C.3       1 <0>        -0.6452
      2 S1         -0.0723    2.5907   -0.2333 S.o2      1 <0>         2.4908
      3 O1          0.0157    1.1927   -0.4719 O.2       1 <0>        -0.9204
      4 O2          1.1023    3.3847   -0.1374 O.2       1 <0>        -0.9202
      5 C2         -0.8393    2.7298    1.3469 C.ar      1 <0>        -0.6273
      6 C3         -0.6077    3.8454    2.1304 C.ar      1 <0>        -0.0024
      7 C4         -1.2113    3.9595    3.3675 C.ar      1 <0>        -0.1089
      8 C5         -2.0432    2.9480    3.8285 C.ar      1 <0>         0.1053
      9 C6         -2.2695    1.8266    3.0417 C.ar      1 <0>        -0.1061
     10 C7         -1.6669    1.7205    1.8034 C.ar      1 <0>        -0.0014
     11 N1         -2.6527    3.0584    5.0855 N.pl3     1 <0>        -0.3687
     12 C8         -3.9979    3.0031    5.3483 C.2       1 <0>         0.1209
     13 C9         -4.1462    3.1520    6.6800 C.2       1 <0>        -0.0709
     14 C10        -2.0199    3.2357    6.2839 C.cat     1 <0>         0.4262
     15 C11        -0.5596    3.3458    6.4839 C.ar      1 <0>        -0.1051
     16 C12        -0.0547    3.9316    7.6460 C.ar      1 <0>        -0.0458
     17 C13         1.3080    4.0335    7.8310 C.ar      1 <0>        -0.0978
     18 C14         2.1814    3.5548    6.8651 C.ar      1 <0>         0.1071
     19 C15         1.6834    2.9685    5.7021 C.ar      1 <0>         0.0470
     20 C16         0.3181    2.8590    5.5139 C.ar      1 <0>        -0.0615
     21 O3          2.7362    2.5841    4.9225 O.3       1 <0>        -0.2919
     22 C17         3.8781    2.5689    5.7993 C.3       1 <0>         0.2088
     23 O4          3.5452    3.5367    6.8119 O.3       1 <0>        -0.2884
     24 C18        -5.4558    3.1565    7.4255 C.3       1 <0>         0.5540
     25 F1         -5.7770    1.8508    7.8118 F         1 <0>        -0.1473
     26 F2         -5.3428    3.9646    8.5619 F         1 <0>        -0.1568
     27 F3         -6.4636    3.6583    6.5949 F         1 <0>        -0.1432
     28 H1         -2.1930    2.8101   -1.3521 H         1 <0>         0.1355
     29 H2         -1.4098    4.3901   -1.1110 H         1 <0>         0.1352
     30 H3         -0.8418    3.3028   -2.4007 H         1 <0>         0.1435
     31 H4          0.0424    4.6302    1.7729 H         1 <0>         0.1687
     32 H5         -1.0334    4.8330    3.9773 H         1 <0>         0.1523
     33 H6         -2.9163    1.0383    3.3974 H         1 <0>         0.1559
     34 H7         -1.8426    0.8484    1.1909 H         1 <0>         0.1701
     35 H8         -4.7885    2.8658    4.6254 H         1 <0>         0.2431
     36 H9         -0.7315    4.3055    8.4001 H         1 <0>         0.1519
     37 H10         1.6966    4.4871    8.7308 H         1 <0>         0.1645
     38 H11        -0.0688    2.4008    4.6157 H         1 <0>         0.1496
     39 H12         4.0082    1.5812    6.2416 H         1 <0>         0.1034
     40 H13         4.7774    2.8705    5.2622 H         1 <0>         0.1515
     41 N2         -2.9336    3.2952    7.2269 N.pl3     1 <0>        -0.4630
     42 H14        -2.7460    3.4304    8.2273 H         1 <0>         0.4870
@<TRIPOS>BOND
     1    1    2 1
     2    1   28 1
     3    1   29 1
     4    1   30 1
     5    2    3 2
     6    2    4 2
     7    2    5 1
     8    5   10 ar
     9    5    6 ar
    10    6    7 ar
    11    6   31 1
    12    7    8 ar
    13    7   32 1
    14    8    9 ar
    15    8   11 1
    16    9   10 ar
    17    9   33 1
    18   10   34 1
    19   11   14 1
    20   11   12 1
    21   12   13 2
    22   12   35 1
    23   13   24 1
    24   13   41 1
    25   14   15 1
    26   14   41 2
    27   15   20 ar
    28   15   16 ar
    29   16   17 ar
    30   16   36 1
    31   17   18 ar
    32   17   37 1
    33   18   23 1
    34   18   19 ar
    35   19   20 ar
    36   19   21 1
    37   20   38 1
    38   21   22 1
    39   22   23 1
    40   22   39 1
    41   22   40 1
    42   24   25 1
    43   24   26 1
    44   24   27 1
    45   41   42 1
@<TRIPOS>MOLECULE
ZINC03814605
   38    40     0     0     0
SMALL
USER_CHARGES

@<TRIPOS>ATOM
      1 C1         -1.2493    3.3755   -1.3899 C.3       1 <0>        -0.6484
      2 S1         -0.0779    2.6069   -0.2377 S.o2      1 <0>         2.4973
      3 O1          0.0041    1.2095   -0.4827 O.2       1 <0>        -0.9291
      4 O2          1.1001    3.3953   -0.1388 O.2       1 <0>        -0.9279
      5 C2         -0.8435    2.7419    1.3436 C.ar      1 <0>        -0.6495
      6 C3         -0.6068    3.8529    2.1321 C.ar      1 <0>        -0.0062
      7 C4         -1.2092    3.9639    3.3700 C.ar      1 <0>        -0.1250
      8 C5         -2.0451    2.9537    3.8267 C.ar      1 <0>         0.1524
      9 C6         -2.2766    1.8370    3.0349 C.ar      1 <0>        -0.1267
     10 C7         -1.6751    1.7340    1.7959 C.ar      1 <0>        -0.0042
     11 N1         -2.6543    3.0614    5.0842 N.pl3     1 <0>        -0.4108
     12 C8         -3.9994    3.0121    5.3464 C.2       1 <0>         0.0429
     13 C9         -4.1470    3.1527    6.6793 C.2       1 <0>        -0.0815
     14 N2         -2.9341    3.2936    7.2271 N.2       1 <0>        -0.4203
     15 C10        -2.0215    3.2413    6.2821 C.2       1 <0>         0.2742
     16 C11        -0.5611    3.3572    6.4811 C.ar      1 <0>        -0.0084
     17 C12        -0.0572    3.9477    7.6412 C.ar      1 <0>        -0.0506
     18 C13         1.3058    4.0540    7.8230 C.ar      1 <0>        -0.1205
     19 C14         2.1760    3.5763    6.8565 C.ar      1 <0>         0.0888
     20 C15         1.6815    2.9881    5.7009 C.ar      1 <0>         0.0760
     21 C16         0.3182    2.8714    5.5124 C.ar      1 <0>        -0.1191
     22 F1          2.5347    2.5236    4.7619 F         1 <0>        -0.1187
     23 F2          3.5102    3.6838    7.0394 F         1 <0>        -0.1192
     24 C17        -5.4565    3.1574    7.4251 C.3       1 <0>         0.5566
     25 F3         -5.2238    3.4457    8.7742 F         1 <0>        -0.1616
     26 F4         -6.3006    4.1303    6.8792 F         1 <0>        -0.1707
     27 F5         -6.0607    1.9005    7.3143 F         1 <0>        -0.1704
     28 H1         -2.1982    2.8403   -1.3543 H         1 <0>         0.1334
     29 H2         -1.4082    4.4159   -1.1063 H         1 <0>         0.1335
     30 H3         -0.8455    3.3322   -2.4014 H         1 <0>         0.1376
     31 H4          0.0465    4.6366    1.7779 H         1 <0>         0.1590
     32 H5         -1.0273    4.8337    3.9837 H         1 <0>         0.1461
     33 H6         -2.9267    1.0498    3.3874 H         1 <0>         0.1478
     34 H7         -1.8548    0.8656    1.1795 H         1 <0>         0.1592
     35 H8         -4.7906    2.8827    4.6228 H         1 <0>         0.2002
     36 H9         -0.7339    4.3207    8.3957 H         1 <0>         0.1574
     37 H10         1.6957    4.5109    8.7205 H         1 <0>         0.1592
     38 H11        -0.0666    2.4097    4.6151 H         1 <0>         0.1471
@<TRIPOS>BOND
     1    1    2 1
     2    1   28 1
     3    1   29 1
     4    1   30 1
     5    2    3 2
     6    2    4 2
     7    2    5 1
     8    5   10 ar
     9    5    6 ar
    10    6    7 ar
    11    6   31 1
    12    7    8 ar
    13    7   32 1
    14    8    9 ar
    15    8   11 1
    16    9   10 ar
    17    9   33 1
    18   10   34 1
    19   11   15 1
    20   11   12 1
    21   12   13 2
    22   12   35 1
    23   13   14 1
    24   13   24 1
    25   14   15 2
    26   15   16 1
    27   16   21 ar
    28   16   17 ar
    29   17   18 ar
    30   17   36 1
    31   18   19 ar
    32   18   37 1
    33   19   20 ar
    34   19   23 1
    35   20   21 ar
    36   20   22 1
    37   21   38 1
    38   24   25 1
    39   24   26 1
    40   24   27 1
@<TRIPOS>MOLECULE
ZINC03814605
   39    41     0     0     0
SMALL
USER_CHARGES

@<TRIPOS>ATOM
      1 C1         -1.2493    3.3755   -1.3899 C.3       1 <0>        -0.6448
      2 S1         -0.0779    2.6069   -0.2377 S.o2      1 <0>         2.4899
      3 O1          0.0041    1.2095   -0.4827 O.2       1 <0>        -0.9190
      4 O2          1.1001    3.3953   -0.1388 O.2       1 <0>        -0.9190
      5 C2         -0.8435    2.7419    1.3436 C.ar      1 <0>        -0.6262
      6 C3         -0.6068    3.8529    2.1321 C.ar      1 <0>        -0.0031
      7 C4         -1.2092    3.9639    3.3700 C.ar      1 <0>        -0.1125
      8 C5         -2.0451    2.9537    3.8267 C.ar      1 <0>         0.1002
      9 C6         -2.2766    1.8370    3.0349 C.ar      1 <0>        -0.1042
     10 C7         -1.6751    1.7340    1.7959 C.ar      1 <0>        -0.0002
     11 N1         -2.6543    3.0614    5.0842 N.pl3     1 <0>        -0.3640
     12 C8         -3.9994    3.0121    5.3464 C.2       1 <0>         0.1243
     13 C9         -4.1470    3.1527    6.6793 C.2       1 <0>        -0.0688
     14 C10        -2.0215    3.2413    6.2821 C.cat     1 <0>         0.4156
     15 C11        -0.5611    3.3572    6.4811 C.ar      1 <0>        -0.0893
     16 C12        -0.0572    3.9477    7.6412 C.ar      1 <0>        -0.0456
     17 C13         1.3058    4.0540    7.8230 C.ar      1 <0>        -0.1145
     18 C14         2.1760    3.5763    6.8565 C.ar      1 <0>         0.1370
     19 C15         1.6815    2.9881    5.7009 C.ar      1 <0>         0.0859
     20 C16         0.3182    2.8714    5.5124 C.ar      1 <0>        -0.0841
     21 F1          2.5347    2.5236    4.7619 F         1 <0>        -0.1015
     22 F2          3.5102    3.6838    7.0394 F         1 <0>        -0.0976
     23 C17        -5.4565    3.1574    7.4251 C.3       1 <0>         0.5544
     24 F3         -5.2238    3.4457    8.7742 F         1 <0>        -0.1583
     25 F4         -6.3006    4.1303    6.8792 F         1 <0>        -0.1432
     26 F5         -6.0607    1.9005    7.3143 F         1 <0>        -0.1436
     27 H1         -2.1982    2.8403   -1.3543 H         1 <0>         0.1356
     28 H2         -1.4082    4.4159   -1.1063 H         1 <0>         0.1353
     29 H3         -0.8455    3.3322   -2.4014 H         1 <0>         0.1441
     30 H4          0.0465    4.6366    1.7779 H         1 <0>         0.1703
     31 H5         -1.0273    4.8337    3.9837 H         1 <0>         0.1531
     32 H6         -2.9267    1.0498    3.3874 H         1 <0>         0.1571
     33 H7         -1.8548    0.8656    1.1795 H         1 <0>         0.1714
     34 H8         -4.7906    2.8827    4.6228 H         1 <0>         0.2446
     35 H9         -0.7339    4.3207    8.3957 H         1 <0>         0.1551
     36 H10         1.6957    4.5109    8.7205 H         1 <0>         0.1755
     37 H11        -0.0666    2.4097    4.6151 H         1 <0>         0.1599
     38 N2         -2.9343    3.2935    7.2261 N.pl3     1 <0>        -0.4581
     39 H12        -2.7460    3.4222    8.2272 H         1 <0>         0.4882
@<TRIPOS>BOND
     1    1    2 1
     2    1   27 1
     3    1   28 1
     4    1   29 1
     5    2    3 2
     6    2    4 2
     7    2    5 1
     8    5   10 ar
     9    5    6 ar
    10    6    7 ar
    11    6   30 1
    12    7    8 ar
    13    7   31 1
    14    8    9 ar
    15    8   11 1
    16    9   10 ar
    17    9   32 1
    18   10   33 1
    19   11   14 1
    20   11   12 1
    21   12   13 2
    22   12   34 1
    23   13   23 1
    24   13   38 1
    25   14   15 1
    26   14   38 2
    27   15   20 ar
    28   15   16 ar
    29   16   17 ar
    30   16   35 1
    31   17   18 ar
    32   17   36 1
    33   18   19 ar
    34   18   22 1
    35   19   20 ar
    36   19   21 1
    37   20   37 1
    38   23   24 1
    39   23   25 1
    40   23   26 1
    41   38   39 1
@<TRIPOS>MOLECULE
ZINC03814606
   44    46     0     0     0
SMALL
USER_CHARGES

@<TRIPOS>ATOM
      1 C1          3.6643    3.6937    7.0546 C.3       1 <0>        -0.1237
      2 C2          2.1757    3.5749    6.8525 C.ar      1 <0>        -0.0648
      3 C3          1.3089    4.0530    7.8193 C.ar      1 <0>        -0.1153
      4 C4         -0.0548    3.9478    7.6402 C.ar      1 <0>        -0.0706
      5 C5         -0.5598    3.3575    6.4806 C.ar      1 <0>        -0.0352
      6 C6          0.3198    2.8726    5.5119 C.ar      1 <0>        -0.1029
      7 C7          1.6817    2.9888    5.7009 C.ar      1 <0>        -0.0819
      8 C8          2.6331    2.4709    4.6532 C.3       1 <0>        -0.1219
      9 C9         -2.0204    3.2409    6.2823 C.2       1 <0>         0.2846
     10 N1         -2.9325    3.2926    7.2278 N.2       1 <0>        -0.4301
     11 C10        -4.1453    3.1513    6.6807 C.2       1 <0>        -0.0822
     12 C11        -3.9982    3.0115    5.3473 C.2       1 <0>         0.0328
     13 N2         -2.6538    3.0610    5.0847 N.pl3     1 <0>        -0.4145
     14 C12        -2.0450    2.9535    3.8270 C.ar      1 <0>         0.1610
     15 C13        -2.2766    1.8368    3.0353 C.ar      1 <0>        -0.1288
     16 C14        -1.6756    1.7340    1.7960 C.ar      1 <0>        -0.0053
     17 C15        -0.8439    2.7418    1.3436 C.ar      1 <0>        -0.6522
     18 C16        -0.6072    3.8529    2.1320 C.ar      1 <0>        -0.0074
     19 C17        -1.2095    3.9639    3.3700 C.ar      1 <0>        -0.1199
     20 S1         -0.0786    2.6068   -0.2378 S.o2      1 <0>         2.4981
     21 O1          0.0034    1.2095   -0.4827 O.2       1 <0>        -0.9304
     22 O2          1.0995    3.3953   -0.1390 O.2       1 <0>        -0.9297
     23 C18        -1.2501    3.3754   -1.3899 C.3       1 <0>        -0.6491
     24 C19        -5.4545    3.1548    7.4271 C.3       1 <0>         0.5562
     25 F1         -5.2213    3.4426    8.7762 F         1 <0>        -0.1624
     26 F2         -6.2994    4.1275    6.8821 F         1 <0>        -0.1718
     27 F3         -6.0580    1.8976    7.3160 F         1 <0>        -0.1715
     28 H1          4.0336    2.8050    7.5663 H         1 <0>         0.0760
     29 H2          4.1562    3.7863    6.0863 H         1 <0>         0.0745
     30 H3          3.8799    4.5759    7.6574 H         1 <0>         0.0700
     31 H4          1.7009    4.5093    8.7163 H         1 <0>         0.1327
     32 H5         -0.7303    4.3210    8.3958 H         1 <0>         0.1371
     33 H6         -0.0646    2.4111    4.6144 H         1 <0>         0.1241
     34 H7          2.8725    1.4285    4.8633 H         1 <0>         0.0746
     35 H8          2.1673    2.5457    3.6706 H         1 <0>         0.0668
     36 H9          3.5476    3.0638    4.6679 H         1 <0>         0.0768
     37 H10        -4.7897    2.8827    4.6239 H         1 <0>         0.1972
     38 H11        -2.9263    1.0494    3.3879 H         1 <0>         0.1458
     39 H12        -1.8556    0.8657    1.1795 H         1 <0>         0.1574
     40 H13         0.0463    4.6364    1.7779 H         1 <0>         0.1574
     41 H14        -1.0272    4.8336    3.9838 H         1 <0>         0.1446
     42 H15        -2.1990    2.8402   -1.3542 H         1 <0>         0.1333
     43 H16        -1.4089    4.4158   -1.1063 H         1 <0>         0.1334
     44 H17        -0.8463    3.3320   -2.4014 H         1 <0>         0.1371
@<TRIPOS>BOND
     1    1    2 1
     2    1   28 1
     3    1   29 1
     4    1   30 1
     5    2    7 ar
     6    2    3 ar
     7    3    4 ar
     8    3   31 1
     9    4    5 ar
    10    4   32 1
    11    5    6 ar
    12    5    9 1
    13    6    7 ar
    14    6   33 1
    15    7    8 1
    16    8   34 1
    17    8   35 1
    18    8   36 1
    19    9   13 1
    20    9   10 2
    21   10   11 1
    22   11   12 2
    23   11   24 1
    24   12   13 1
    25   12   37 1
    26   13   14 1
    27   14   19 ar
    28   14   15 ar
    29   15   16 ar
    30   15   38 1
    31   16   17 ar
    32   16   39 1
    33   17   18 ar
    34   17   20 1
    35   18   19 ar
    36   18   40 1
    37   19   41 1
    38   20   21 2
    39   20   22 2
    40   20   23 1
    41   23   42 1
    42   23   43 1
    43   23   44 1
    44   24   25 1
    45   24   26 1
    46   24   27 1
@<TRIPOS>MOLECULE
ZINC03814606
   45    47     0     0     0
SMALL
USER_CHARGES

@<TRIPOS>ATOM
      1 C1          3.6643    3.6937    7.0546 C.3       1 <0>        -0.1391
      2 C2          2.1757    3.5749    6.8525 C.ar      1 <0>        -0.0167
      3 C3          1.3089    4.0530    7.8193 C.ar      1 <0>        -0.1079
      4 C4         -0.0548    3.9478    7.6402 C.ar      1 <0>        -0.0676
      5 C5         -0.5598    3.3575    6.4806 C.ar      1 <0>        -0.1142
      6 C6          0.3198    2.8726    5.5119 C.ar      1 <0>        -0.0669
      7 C7          1.6817    2.9888    5.7009 C.ar      1 <0>        -0.0732
      8 C8          2.6331    2.4709    4.6532 C.3       1 <0>        -0.1318
      9 C9         -2.0204    3.2409    6.2823 C.cat     1 <0>         0.4248
     10 C10        -4.1453    3.1513    6.6807 C.2       1 <0>        -0.0737
     11 C11        -3.9982    3.0115    5.3473 C.2       1 <0>         0.1187
     12 N1         -2.6538    3.0610    5.0847 N.pl3     1 <0>        -0.3714
     13 C12        -2.0450    2.9535    3.8270 C.ar      1 <0>         0.1095
     14 C13        -2.2766    1.8368    3.0353 C.ar      1 <0>        -0.1068
     15 C14        -1.6756    1.7340    1.7960 C.ar      1 <0>        -0.0012
     16 C15        -0.8439    2.7418    1.3436 C.ar      1 <0>        -0.6292
     17 C16        -0.6072    3.8529    2.1320 C.ar      1 <0>        -0.0043
     18 C17        -1.2095    3.9639    3.3700 C.ar      1 <0>        -0.1077
     19 S1         -0.0786    2.6068   -0.2378 S.o2      1 <0>         2.4910
     20 O1          0.0034    1.2095   -0.4827 O.2       1 <0>        -0.9204
     21 O2          1.0995    3.3953   -0.1390 O.2       1 <0>        -0.9210
     22 C18        -1.2501    3.3754   -1.3899 C.3       1 <0>        -0.6455
     23 C19        -5.4545    3.1548    7.4271 C.3       1 <0>         0.5544
     24 F1         -5.2213    3.4426    8.7762 F         1 <0>        -0.1592
     25 F2         -6.2994    4.1275    6.8821 F         1 <0>        -0.1445
     26 F3         -6.0580    1.8976    7.3160 F         1 <0>        -0.1450
     27 H1          4.0336    2.8050    7.5663 H         1 <0>         0.0910
     28 H2          4.1562    3.7863    6.0863 H         1 <0>         0.0858
     29 H3          3.8799    4.5759    7.6574 H         1 <0>         0.0817
     30 H4          1.7009    4.5093    8.7163 H         1 <0>         0.1497
     31 H5         -0.7303    4.3210    8.3958 H         1 <0>         0.1350
     32 H6         -0.0646    2.4111    4.6144 H         1 <0>         0.1374
     33 H7          2.8725    1.4285    4.8633 H         1 <0>         0.0859
     34 H8          2.1673    2.5457    3.6706 H         1 <0>         0.0744
     35 H9          3.5476    3.0638    4.6679 H         1 <0>         0.0870
     36 H10        -4.7897    2.8827    4.6239 H         1 <0>         0.2417
     37 H11        -2.9263    1.0494    3.3879 H         1 <0>         0.1550
     38 H12        -1.8556    0.8657    1.1795 H         1 <0>         0.1696
     39 H13         0.0463    4.6364    1.7779 H         1 <0>         0.1687
     40 H14        -1.0272    4.8336    3.9838 H         1 <0>         0.1514
     41 H15        -2.1990    2.8402   -1.3542 H         1 <0>         0.1355
     42 H16        -1.4089    4.4158   -1.1063 H         1 <0>         0.1352
     43 H17        -0.8463    3.3320   -2.4014 H         1 <0>         0.1436
     44 N2         -2.9327    3.2925    7.2268 N.pl3     1 <0>        -0.4658
     45 H18        -2.7439    3.4211    8.2278 H         1 <0>         0.4863
@<TRIPOS>BOND
     1    1    2 1
     2    1   27 1
     3    1   28 1
     4    1   29 1
     5    2    7 ar
     6    2    3 ar
     7    3    4 ar
     8    3   30 1
     9    4    5 ar
    10    4   31 1
    11    5    6 ar
    12    5    9 1
    13    6    7 ar
    14    6   32 1
    15    7    8 1
    16    8   33 1
    17    8   34 1
    18    8   35 1
    19    9   12 1
    20    9   44 2
    21   10   11 2
    22   10   23 1
    23   10   44 1
    24   11   12 1
    25   11   36 1
    26   12   13 1
    27   13   18 ar
    28   13   14 ar
    29   14   15 ar
    30   14   37 1
    31   15   16 ar
    32   15   38 1
    33   16   17 ar
    34   16   19 1
    35   17   18 ar
    36   17   39 1
    37   18   40 1
    38   19   20 2
    39   19   21 2
    40   19   22 1
    41   22   41 1
    42   22   42 1
    43   22   43 1
    44   23   24 1
    45   23   25 1
    46   23   26 1
    47   44   45 1
@<TRIPOS>MOLECULE
ZINC03814607
   38    40     0     0     0
SMALL
USER_CHARGES

@<TRIPOS>ATOM
      1 C1         -1.2453    3.3421   -1.3897 C.3       1 <0>        -0.6487
      2 S1         -0.0715    2.5846   -0.2325 S.o2      1 <0>         2.4984
      3 O1          0.0165    1.1864   -0.4698 O.2       1 <0>        -0.9299
      4 O2          1.1032    3.3785   -0.1372 O.2       1 <0>        -0.9292
      5 C2         -0.8386    2.7252    1.3475 C.ar      1 <0>        -0.6510
      6 C3         -0.6071    3.8415    2.1300 C.ar      1 <0>        -0.0066
      7 C4         -1.2108    3.9568    3.3669 C.ar      1 <0>        -0.1222
      8 C5         -2.0428    2.9457    3.8286 C.ar      1 <0>         0.1569
      9 C6         -2.2692    1.8237    3.0428 C.ar      1 <0>        -0.1278
     10 C7         -1.6664    1.7164    1.8047 C.ar      1 <0>        -0.0048
     11 N1         -2.6533    3.0577    5.0851 N.pl3     1 <0>        -0.4128
     12 C8         -3.9980    3.0034    5.3468 C.2       1 <0>         0.0375
     13 C9         -4.1473    3.1539    6.6785 C.2       1 <0>        -0.0815
     14 N2         -2.9351    3.2971    7.2269 N.2       1 <0>        -0.4261
     15 C10        -2.0213    3.2360    6.2836 C.2       1 <0>         0.2779
     16 C11        -0.5605    3.3456    6.4845 C.ar      1 <0>        -0.0253
     17 C12         0.3183    2.8586    5.5158 C.ar      1 <0>        -0.0949
     18 C13         1.6800    2.9680    5.7066 C.ar      1 <0>        -0.1055
     19 C14         2.1756    3.5504    6.8610 C.ar      1 <0>        -0.0176
     20 C15         1.3086    4.0306    7.8281 C.ar      1 <0>        -0.1072
     21 C16        -0.0551    3.9311    7.6462 C.ar      1 <0>        -0.0571
     22 Cl1         3.8907    3.6785    7.0971 Cl        1 <0>        -0.0564
     23 C17        -5.4574    3.1590    7.4232 C.3       1 <0>         0.5573
     24 F1         -5.7786    1.8537    7.8108 F         1 <0>        -0.1699
     25 F2         -5.3452    3.9683    8.5588 F         1 <0>        -0.1639
     26 F3         -6.4647    3.6597    6.5914 F         1 <0>        -0.1714
     27 H1         -2.1919    2.8032   -1.3518 H         1 <0>         0.1333
     28 H2         -1.4086    4.3834   -1.1120 H         1 <0>         0.1334
     29 H3         -0.8406    3.2949   -2.4007 H         1 <0>         0.1373
     30 H4          0.0432    4.6259    1.7719 H         1 <0>         0.1585
     31 H5         -1.0328    4.8308    3.9759 H         1 <0>         0.1454
     32 H6         -2.9162    1.0358    3.3992 H         1 <0>         0.1467
     33 H7         -1.8421    0.8438    1.1930 H         1 <0>         0.1582
     34 H8         -4.7881    2.8660    4.6234 H         1 <0>         0.1995
     35 H9         -0.0671    2.4005    4.6169 H         1 <0>         0.1333
     36 H10         2.3611    2.5949    4.9560 H         1 <0>         0.1429
     37 H11         1.7008    4.4835    8.7266 H         1 <0>         0.1450
     38 H12        -0.7304    4.3054    8.4014 H         1 <0>         0.1483
@<TRIPOS>BOND
     1    1    2 1
     2    1   27 1
     3    1   28 1
     4    1   29 1
     5    2    3 2
     6    2    4 2
     7    2    5 1
     8    5   10 ar
     9    5    6 ar
    10    6    7 ar
    11    6   30 1
    12    7    8 ar
    13    7   31 1
    14    8    9 ar
    15    8   11 1
    16    9   10 ar
    17    9   32 1
    18   10   33 1
    19   11   15 1
    20   11   12 1
    21   12   13 2
    22   12   34 1
    23   13   14 1
    24   13   23 1
    25   14   15 2
    26   15   16 1
    27   16   21 ar
    28   16   17 ar
    29   17   18 ar
    30   17   35 1
    31   18   19 ar
    32   18   36 1
    33   19   20 ar
    34   19   22 1
    35   20   21 ar
    36   20   37 1
    37   21   38 1
    38   23   24 1
    39   23   25 1
    40   23   26 1
@<TRIPOS>MOLECULE
ZINC03814607
   39    41     0     0     0
SMALL
USER_CHARGES

@<TRIPOS>ATOM
      1 C1         -1.2453    3.3421   -1.3897 C.3       1 <0>        -0.6451
      2 S1         -0.0715    2.5846   -0.2325 S.o2      1 <0>         2.4911
      3 O1          0.0165    1.1864   -0.4698 O.2       1 <0>        -0.9199
      4 O2          1.1032    3.3785   -0.1372 O.2       1 <0>        -0.9203
      5 C2         -0.8386    2.7252    1.3475 C.ar      1 <0>        -0.6278
      6 C3         -0.6071    3.8415    2.1300 C.ar      1 <0>        -0.0033
      7 C4         -1.2108    3.9568    3.3669 C.ar      1 <0>        -0.1098
      8 C5         -2.0428    2.9457    3.8286 C.ar      1 <0>         0.1049
      9 C6         -2.2692    1.8237    3.0428 C.ar      1 <0>        -0.1056
     10 C7         -1.6664    1.7164    1.8047 C.ar      1 <0>        -0.0007
     11 N1         -2.6533    3.0577    5.0851 N.pl3     1 <0>        -0.3676
     12 C8         -3.9980    3.0034    5.3468 C.2       1 <0>         0.1209
     13 C9         -4.1473    3.1539    6.6785 C.2       1 <0>        -0.0708
     14 C10        -2.0213    3.2360    6.2836 C.cat     1 <0>         0.4190
     15 C11        -0.5605    3.3456    6.4845 C.ar      1 <0>        -0.1065
     16 C12         0.3183    2.8586    5.5158 C.ar      1 <0>        -0.0557
     17 C13         1.6800    2.9680    5.7066 C.ar      1 <0>        -0.1009
     18 C14         2.1756    3.5504    6.8610 C.ar      1 <0>         0.0177
     19 C15         1.3086    4.0306    7.8281 C.ar      1 <0>        -0.1011
     20 C16        -0.0551    3.9311    7.6462 C.ar      1 <0>        -0.0524
     21 Cl1         3.8907    3.6785    7.0971 Cl        1 <0>        -0.0179
     22 C17        -5.4574    3.1590    7.4232 C.3       1 <0>         0.5538
     23 F1         -5.7786    1.8537    7.8108 F         1 <0>        -0.1470
     24 F2         -5.3452    3.9683    8.5588 F         1 <0>        -0.1567
     25 F3         -6.4647    3.6597    6.5914 F         1 <0>        -0.1429
     26 H1         -2.1919    2.8032   -1.3518 H         1 <0>         0.1354
     27 H2         -1.4086    4.3834   -1.1120 H         1 <0>         0.1352
     28 H3         -0.8406    3.2949   -2.4007 H         1 <0>         0.1439
     29 H4          0.0432    4.6259    1.7719 H         1 <0>         0.1698
     30 H5         -1.0328    4.8308    3.9759 H         1 <0>         0.1522
     31 H6         -2.9162    1.0358    3.3992 H         1 <0>         0.1558
     32 H7         -1.8421    0.8438    1.1930 H         1 <0>         0.1704
     33 H8         -4.7881    2.8660    4.6234 H         1 <0>         0.2436
     34 H9         -0.0671    2.4005    4.6169 H         1 <0>         0.1464
     35 H10         2.3611    2.5949    4.9560 H         1 <0>         0.1603
     36 H11         1.7008    4.4835    8.7266 H         1 <0>         0.1612
     37 H12        -0.7304    4.3054    8.4014 H         1 <0>         0.1457
     38 N2         -2.9353    3.2970    7.2259 N.pl3     1 <0>        -0.4622
     39 H13        -2.7482    3.4332    8.2262 H         1 <0>         0.4869
@<TRIPOS>BOND
     1    1    2 1
     2    1   26 1
     3    1   27 1
     4    1   28 1
     5    2    3 2
     6    2    4 2
     7    2    5 1
     8    5   10 ar
     9    5    6 ar
    10    6    7 ar
    11    6   29 1
    12    7    8 ar
    13    7   30 1
    14    8    9 ar
    15    8   11 1
    16    9   10 ar
    17    9   31 1
    18   10   32 1
    19   11   14 1
    20   11   12 1
    21   12   13 2
    22   12   33 1
    23   13   22 1
    24   13   38 1
    25   14   15 1
    26   14   38 2
    27   15   20 ar
    28   15   16 ar
    29   16   17 ar
    30   16   34 1
    31   17   18 ar
    32   17   35 1
    33   18   19 ar
    34   18   21 1
    35   19   20 ar
    36   19   36 1
    37   20   37 1
    38   22   23 1
    39   22   24 1
    40   22   25 1
    41   38   39 1
@<TRIPOS>MOLECULE
ZINC03814608
   42    44     0     0     0
SMALL
USER_CHARGES

@<TRIPOS>ATOM
      1 C1         -6.2943    3.9719    7.0267 C.3       1 <0>         0.0214
      2 O1         -5.0023    3.6333    6.5185 O.3       1 <0>        -0.3051
      3 C2         -4.9017    3.4229    5.1796 C.ar      1 <0>         0.1665
      4 C3         -3.6796    3.0852    4.6221 C.ar      1 <0>        -0.1551
      5 C4         -3.5780    2.8760    3.2470 C.ar      1 <0>         0.0426
      6 C5         -4.7114    2.9964    2.4417 C.ar      1 <0>        -0.1456
      7 C6         -5.9279    3.3277    3.0079 C.ar      1 <0>         0.1484
      8 C7         -6.0249    3.5406    4.3730 C.ar      1 <0>        -0.2305
      9 F1         -7.0250    3.4438    2.2281 F         1 <0>        -0.1265
     10 C8         -2.2746    2.5218    2.6450 C.2       1 <0>         0.2741
     11 N1         -2.0971    1.9466    1.4761 N.2       1 <0>        -0.4198
     12 C9         -0.7876    1.7760    1.2613 C.2       1 <0>        -0.0824
     13 C10        -0.1139    2.2657    2.3222 C.2       1 <0>         0.0418
     14 N2         -1.0478    2.7412    3.2057 N.pl3     1 <0>        -0.4091
     15 C11        -0.7930    3.3392    4.4472 C.ar      1 <0>         0.1546
     16 C12        -1.2700    4.6152    4.7157 C.ar      1 <0>        -0.1197
     17 C13        -1.0222    5.1996    5.9423 C.ar      1 <0>        -0.0045
     18 C14        -0.2897    4.5200    6.8982 C.ar      1 <0>        -0.6487
     19 C15         0.1911    3.2511    6.6319 C.ar      1 <0>        -0.0050
     20 C16        -0.0583    2.6591    5.4092 C.ar      1 <0>        -0.1265
     21 S1          0.0310    5.2721    8.4590 S.o2      1 <0>         2.4982
     22 O2         -1.0360    6.1920    8.6444 O.2       1 <0>        -0.9289
     23 O3          0.2136    4.1843    9.3550 O.2       1 <0>        -0.9300
     24 C17         1.5939    6.1651    8.2338 C.3       1 <0>        -0.6493
     25 C18        -0.1697    1.1489    0.0383 C.3       1 <0>         0.5576
     26 F2         -0.0316   -0.2286    0.2398 F         1 <0>        -0.1696
     27 F3          1.0889    1.7151   -0.1908 F         1 <0>        -0.1711
     28 F4         -0.9927    1.3779   -1.0696 F         1 <0>        -0.1635
     29 H1         -6.6385    4.8942    6.5586 H         1 <0>         0.0615
     30 H2         -6.9950    3.1675    6.8031 H         1 <0>         0.0609
     31 H3         -6.2347    4.1125    8.1059 H         1 <0>         0.1085
     32 H4         -2.8063    2.9889    5.2502 H         1 <0>         0.1407
     33 H5         -4.6380    2.8312    1.3769 H         1 <0>         0.1536
     34 H6         -6.9775    3.7992    4.8111 H         1 <0>         0.1489
     35 H7          0.9583    2.2808    2.4508 H         1 <0>         0.2011
     36 H8         -1.8377    5.1485    3.9676 H         1 <0>         0.1448
     37 H9         -1.3970    6.1902    6.1535 H         1 <0>         0.1575
     38 H10         0.7625    2.7226    7.3806 H         1 <0>         0.1580
     39 H11         0.3181    1.6684    5.2015 H         1 <0>         0.1467
     40 H12         1.4774    6.9079    7.4447 H         1 <0>         0.1333
     41 H13         1.8650    6.6633    9.1646 H         1 <0>         0.1369
     42 H14         2.3782    5.4606    7.9569 H         1 <0>         0.1333
@<TRIPOS>BOND
     1    1    2 1
     2    1   29 1
     3    1   30 1
     4    1   31 1
     5    2    3 1
     6    3    8 ar
     7    3    4 ar
     8    4    5 ar
     9    4   32 1
    10    5    6 ar
    11    5   10 1
    12    6    7 ar
    13    6   33 1
    14    7    8 ar
    15    7    9 1
    16    8   34 1
    17   10   14 1
    18   10   11 2
    19   11   12 1
    20   12   13 2
    21   12   25 1
    22   13   14 1
    23   13   35 1
    24   14   15 1
    25   15   20 ar
    26   15   16 ar
    27   16   17 ar
    28   16   36 1
    29   17   18 ar
    30   17   37 1
    31   18   19 ar
    32   18   21 1
    33   19   20 ar
    34   19   38 1
    35   20   39 1
    36   21   22 2
    37   21   23 2
    38   21   24 1
    39   24   40 1
    40   24   41 1
    41   24   42 1
    42   25   26 1
    43   25   27 1
    44   25   28 1
@<TRIPOS>MOLECULE
ZINC03814608
   43    45     0     0     0
SMALL
USER_CHARGES

@<TRIPOS>ATOM
      1 C1         -6.2943    3.9719    7.0267 C.3       1 <0>         0.0152
      2 O1         -5.0023    3.6333    6.5185 O.3       1 <0>        -0.2959
      3 C2         -4.9017    3.4229    5.1796 C.ar      1 <0>         0.1797
      4 C3         -3.6796    3.0852    4.6221 C.ar      1 <0>        -0.1222
      5 C4         -3.5780    2.8760    3.2470 C.ar      1 <0>        -0.0324
      6 C5         -4.7114    2.9964    2.4417 C.ar      1 <0>        -0.1519
      7 C6         -5.9279    3.3277    3.0079 C.ar      1 <0>         0.1660
      8 C7         -6.0249    3.5406    4.3730 C.ar      1 <0>        -0.1961
      9 F1         -7.0250    3.4438    2.2281 F         1 <0>        -0.1111
     10 C8         -2.2746    2.5218    2.6450 C.cat     1 <0>         0.4148
     11 C9         -0.7876    1.7760    1.2613 C.2       1 <0>        -0.0691
     12 C10        -0.1139    2.2657    2.3222 C.2       1 <0>         0.1233
     13 N1         -1.0478    2.7412    3.2057 N.pl3     1 <0>        -0.3614
     14 C11        -0.7930    3.3392    4.4472 C.ar      1 <0>         0.1019
     15 C12        -1.2700    4.6152    4.7157 C.ar      1 <0>        -0.1068
     16 C13        -1.0222    5.1996    5.9423 C.ar      1 <0>        -0.0014
     17 C14        -0.2897    4.5200    6.8982 C.ar      1 <0>        -0.6255
     18 C15         0.1911    3.2511    6.6319 C.ar      1 <0>        -0.0010
     19 C16        -0.0583    2.6591    5.4092 C.ar      1 <0>        -0.1040
     20 S1          0.0310    5.2721    8.4590 S.o2      1 <0>         2.4910
     21 O2         -1.0360    6.1920    8.6444 O.2       1 <0>        -0.9201
     22 O3          0.2136    4.1843    9.3550 O.2       1 <0>        -0.9200
     23 C17         1.5939    6.1651    8.2338 C.3       1 <0>        -0.6457
     24 C18        -0.1697    1.1489    0.0383 C.3       1 <0>         0.5540
     25 F2         -0.0316   -0.2286    0.2398 F         1 <0>        -0.1464
     26 F3          1.0889    1.7151   -0.1908 F         1 <0>        -0.1424
     27 F4         -0.9927    1.3779   -1.0696 F         1 <0>        -0.1562
     28 H1         -6.6385    4.8942    6.5586 H         1 <0>         0.0689
     29 H2         -6.9950    3.1675    6.8031 H         1 <0>         0.0681
     30 H3         -6.2347    4.1125    8.1059 H         1 <0>         0.1194
     31 H4         -2.8063    2.9889    5.2502 H         1 <0>         0.1534
     32 H5         -4.6380    2.8312    1.3769 H         1 <0>         0.1507
     33 H6         -6.9775    3.7992    4.8111 H         1 <0>         0.1649
     34 H7          0.9583    2.2808    2.4508 H         1 <0>         0.2454
     35 H8         -1.8377    5.1485    3.9676 H         1 <0>         0.1519
     36 H9         -1.3970    6.1902    6.1535 H         1 <0>         0.1688
     37 H10         0.7625    2.7226    7.3806 H         1 <0>         0.1703
     38 H11         0.3181    1.6684    5.2015 H         1 <0>         0.1560
     39 H12         1.4774    6.9079    7.4447 H         1 <0>         0.1351
     40 H13         1.8650    6.6633    9.1646 H         1 <0>         0.1435
     41 H14         2.3782    5.4606    7.9569 H         1 <0>         0.1354
     42 N2         -2.0963    1.9469    1.4767 N.pl3     1 <0>        -0.4566
     43 H15        -2.8451    1.6718    0.8303 H         1 <0>         0.4883
@<TRIPOS>BOND
     1    1    2 1
     2    1   28 1
     3    1   29 1
     4    1   30 1
     5    2    3 1
     6    3    8 ar
     7    3    4 ar
     8    4    5 ar
     9    4   31 1
    10    5    6 ar
    11    5   10 1
    12    6    7 ar
    13    6   32 1
    14    7    8 ar
    15    7    9 1
    16    8   33 1
    17   10   13 1
    18   10   42 2
    19   11   12 2
    20   11   24 1
    21   11   42 1
    22   12   13 1
    23   12   34 1
    24   13   14 1
    25   14   19 ar
    26   14   15 ar
    27   15   16 ar
    28   15   35 1
    29   16   17 ar
    30   16   36 1
    31   17   18 ar
    32   17   20 1
    33   18   19 ar
    34   18   37 1
    35   19   38 1
    36   20   21 2
    37   20   22 2
    38   20   23 1
    39   23   39 1
    40   23   40 1
    41   23   41 1
    42   24   25 1
    43   24   26 1
    44   24   27 1
    45   42   43 1
@<TRIPOS>MOLECULE
ZINC03814609
   41    43     0     0     0
SMALL
USER_CHARGES

@<TRIPOS>ATOM
      1 C1          3.2234    4.7287    8.4122 C.3       1 <0>         0.0221
      2 O1          2.8926    4.0525    7.1976 O.3       1 <0>        -0.3035
      3 C2          1.5720    3.9135    6.9088 C.ar      1 <0>         0.1193
      4 C3          0.6160    4.4191    7.7791 C.ar      1 <0>        -0.1809
      5 C4         -0.7248    4.2808    7.4898 C.ar      1 <0>        -0.0348
      6 C5         -1.1221    3.6308    6.3199 C.ar      1 <0>        -0.0416
      7 C6         -0.1591    3.1180    5.4489 C.ar      1 <0>        -0.1063
      8 C7          1.1816    3.2649    5.7424 C.ar      1 <0>         0.0760
      9 F1          2.1151    2.7735    4.8985 F         1 <0>        -0.1230
     10 C8         -2.5588    3.4805    6.0073 C.2       1 <0>         0.2854
     11 N1         -3.5474    3.5580    6.8710 N.2       1 <0>        -0.4267
     12 C9         -4.7089    3.3722    6.2322 C.2       1 <0>        -0.0810
     13 C10        -4.4497    3.1760    4.9239 C.2       1 <0>         0.0378
     14 N2         -3.0880    3.2375    4.7707 N.pl3     1 <0>        -0.4147
     15 C11        -2.3755    3.0860    3.5735 C.ar      1 <0>         0.1618
     16 C12        -2.5251    1.9320    2.8162 C.ar      1 <0>        -0.1292
     17 C13        -1.8218    1.7858    1.6364 C.ar      1 <0>         0.0017
     18 C14        -0.9695    2.7874    1.2093 C.ar      1 <0>        -0.6668
     19 C15        -0.8141    3.9355    1.9642 C.ar      1 <0>         0.0003
     20 C16        -1.5189    4.0899    3.1420 C.ar      1 <0>        -0.1255
     21 S1         -0.0741    2.5973   -0.2962 S.o2      1 <0>         2.7015
     22 O2          0.0255    1.2002   -0.5359 O.2       1 <0>        -0.9546
     23 O3          1.0682    3.4367   -0.1982 O.2       1 <0>        -0.9532
     24 N3         -1.0160    3.2194   -1.5080 N.pl3     1 <0>        -1.2482
     25 C17        -6.0755    3.3866    6.8671 C.3       1 <0>         0.5563
     26 F2         -5.9592    3.7375    8.2164 F         1 <0>        -0.1622
     27 F3         -6.8849    4.3200    6.2106 F         1 <0>        -0.1712
     28 F4         -6.6512    2.1157    6.7637 F         1 <0>        -0.1709
     29 H1          2.8214    5.7415    8.3853 H         1 <0>         0.0622
     30 H2          2.7941    4.1897    9.2568 H         1 <0>         0.0624
     31 H3          4.3072    4.7708    8.5211 H         1 <0>         0.1081
     32 H4          0.9231    4.9219    8.6842 H         1 <0>         0.1502
     33 H5         -1.4674    4.6747    8.1679 H         1 <0>         0.1497
     34 H6         -0.4625    2.6109    4.5449 H         1 <0>         0.1431
     35 H7         -5.1765    3.0011    4.1443 H         1 <0>         0.1990
     36 H8         -3.1909    1.1495    3.1491 H         1 <0>         0.1488
     37 H9         -1.9380    0.8885    1.0468 H         1 <0>         0.1598
     38 H10        -0.1441    4.7140    1.6305 H         1 <0>         0.1598
     39 H11        -1.4002    4.9886    3.7291 H         1 <0>         0.1475
     40 H12        -1.8865    3.5941   -1.3017 H         1 <0>         0.4173
     41 H13        -0.6971    3.2090   -2.4240 H         1 <0>         0.4241
@<TRIPOS>BOND
     1    1    2 1
     2    1   29 1
     3    1   30 1
     4    1   31 1
     5    2    3 1
     6    3    8 ar
     7    3    4 ar
     8    4    5 ar
     9    4   32 1
    10    5    6 ar
    11    5   33 1
    12    6    7 ar
    13    6   10 1
    14    7    8 ar
    15    7   34 1
    16    8    9 1
    17   10   14 1
    18   10   11 2
    19   11   12 1
    20   12   13 2
    21   12   25 1
    22   13   14 1
    23   13   35 1
    24   14   15 1
    25   15   20 ar
    26   15   16 ar
    27   16   17 ar
    28   16   36 1
    29   17   18 ar
    30   17   37 1
    31   18   19 ar
    32   18   21 1
    33   19   20 ar
    34   19   38 1
    35   20   39 1
    36   21   22 2
    37   21   23 2
    38   21   24 1
    39   24   40 1
    40   24   41 1
    41   25   26 1
    42   25   27 1
    43   25   28 1
@<TRIPOS>MOLECULE
ZINC03814609
   42    44     0     0     0
SMALL
USER_CHARGES

@<TRIPOS>ATOM
      1 C1          3.2234    4.7287    8.4122 C.3       1 <0>         0.0147
      2 O1          2.8926    4.0525    7.1976 O.3       1 <0>        -0.2875
      3 C2          1.5720    3.9135    6.9088 C.ar      1 <0>         0.1665
      4 C3          0.6160    4.4191    7.7791 C.ar      1 <0>        -0.1793
      5 C4         -0.7248    4.2808    7.4898 C.ar      1 <0>        -0.0268
      6 C5         -1.1221    3.6308    6.3199 C.ar      1 <0>        -0.1251
      7 C6         -0.1591    3.1180    5.4489 C.ar      1 <0>        -0.0726
      8 C7          1.1816    3.2649    5.7424 C.ar      1 <0>         0.0858
      9 F1          2.1151    2.7735    4.8985 F         1 <0>        -0.1065
     10 C8         -2.5588    3.4805    6.0073 C.cat     1 <0>         0.4275
     11 C9         -4.7089    3.3722    6.2322 C.2       1 <0>        -0.0715
     12 C10        -4.4497    3.1760    4.9239 C.2       1 <0>         0.1217
     13 N1         -3.0880    3.2375    4.7707 N.pl3     1 <0>        -0.3712
     14 C11        -2.3755    3.0860    3.5735 C.ar      1 <0>         0.1113
     15 C12        -2.5251    1.9320    2.8162 C.ar      1 <0>        -0.1072
     16 C13        -1.8218    1.7858    1.6364 C.ar      1 <0>         0.0061
     17 C14        -0.9695    2.7874    1.2093 C.ar      1 <0>        -0.6446
     18 C15        -0.8141    3.9355    1.9642 C.ar      1 <0>         0.0036
     19 C16        -1.5189    4.0899    3.1420 C.ar      1 <0>        -0.1131
     20 S1         -0.0741    2.5973   -0.2962 S.o2      1 <0>         2.6973
     21 O2          0.0255    1.2002   -0.5359 O.2       1 <0>        -0.9438
     22 O3          1.0682    3.4367   -0.1982 O.2       1 <0>        -0.9435
     23 N2         -1.0160    3.2194   -1.5080 N.pl3     1 <0>        -1.2451
     24 C17        -6.0755    3.3866    6.8671 C.3       1 <0>         0.5544
     25 F2         -5.9592    3.7375    8.2164 F         1 <0>        -0.1591
     26 F3         -6.8849    4.3200    6.2106 F         1 <0>        -0.1440
     27 F4         -6.6512    2.1157    6.7637 F         1 <0>        -0.1444
     28 H1          2.8214    5.7415    8.3853 H         1 <0>         0.0705
     29 H2          2.7941    4.1897    9.2568 H         1 <0>         0.0703
     30 H3          4.3072    4.7708    8.5211 H         1 <0>         0.1203
     31 H4          0.9231    4.9219    8.6842 H         1 <0>         0.1658
     32 H5         -1.4674    4.6747    8.1679 H         1 <0>         0.1471
     33 H6         -0.4625    2.6109    4.5449 H         1 <0>         0.1556
     34 H7         -5.1765    3.0011    4.1443 H         1 <0>         0.2430
     35 H8         -3.1909    1.1495    3.1491 H         1 <0>         0.1580
     36 H9         -1.9380    0.8885    1.0468 H         1 <0>         0.1719
     37 H10        -0.1441    4.7140    1.6305 H         1 <0>         0.1709
     38 H11        -1.4002    4.9886    3.7291 H         1 <0>         0.1544
     39 H12        -1.8865    3.5941   -1.3017 H         1 <0>         0.4174
     40 H13        -0.6971    3.2090   -2.4240 H         1 <0>         0.4291
     41 N3         -3.5475    3.5578    6.8700 N.pl3     1 <0>        -0.4644
     42 H14        -3.4446    3.7333    7.8764 H         1 <0>         0.4867
@<TRIPOS>BOND
     1    1    2 1
     2    1   28 1
     3    1   29 1
     4    1   30 1
     5    2    3 1
     6    3    8 ar
     7    3    4 ar
     8    4    5 ar
     9    4   31 1
    10    5    6 ar
    11    5   32 1
    12    6    7 ar
    13    6   10 1
    14    7    8 ar
    15    7   33 1
    16    8    9 1
    17   10   13 1
    18   10   41 2
    19   11   12 2
    20   11   24 1
    21   11   41 1
    22   12   13 1
    23   12   34 1
    24   13   14 1
    25   14   19 ar
    26   14   15 ar
    27   15   16 ar
    28   15   35 1
    29   16   17 ar
    30   16   36 1
    31   17   18 ar
    32   17   20 1
    33   18   19 ar
    34   18   37 1
    35   19   38 1
    36   20   21 2
    37   20   22 2
    38   20   23 1
    39   23   39 1
    40   23   40 1
    41   24   25 1
    42   24   26 1
    43   24   27 1
    44   41   42 1
@<TRIPOS>MOLECULE
ZINC03814610
   40    42     0     0     0
SMALL
USER_CHARGES

@<TRIPOS>ATOM
      1 C1          3.0357    4.0664    7.2262 C.3       1 <0>        -0.1264
      2 C2          1.5710    3.9131    6.9065 C.ar      1 <0>        -0.0535
      3 C3          0.6197    4.4176    7.7753 C.ar      1 <0>        -0.1062
      4 C4         -0.7227    4.2803    7.4889 C.ar      1 <0>        -0.0604
      5 C5         -1.1214    3.6307    6.3196 C.ar      1 <0>        -0.0246
      6 C6         -0.1581    3.1187    5.4498 C.ar      1 <0>        -0.0959
      7 C7          1.1828    3.2676    5.7449 C.ar      1 <0>        -0.0374
      8 Cl1         2.3837    2.6378    4.6609 Cl        1 <0>        -0.0526
      9 C8         -2.5588    3.4804    6.0070 C.2       1 <0>         0.2796
     10 N1         -3.5470    3.5590    6.8707 N.2       1 <0>        -0.4251
     11 C9         -4.7081    3.3730    6.2324 C.2       1 <0>        -0.0818
     12 C10        -4.4487    3.1754    4.9237 C.2       1 <0>         0.0379
     13 N2         -3.0879    3.2364    4.7708 N.pl3     1 <0>        -0.4128
     14 C11        -2.3753    3.0838    3.5738 C.ar      1 <0>         0.1590
     15 C12        -2.5251    1.9291    2.8175 C.ar      1 <0>        -0.1287
     16 C13        -1.8218    1.7818    1.6380 C.ar      1 <0>         0.0019
     17 C14        -0.9692    2.7828    1.2101 C.ar      1 <0>        -0.6705
     18 C15        -0.8136    3.9315    1.9640 C.ar      1 <0>        -0.0037
     19 C16        -1.5185    4.0871    3.1416 C.ar      1 <0>        -0.1232
     20 S1         -0.0737    2.5911   -0.2952 S.o2      1 <0>         2.7006
     21 O1          0.0256    1.1938   -0.5336 O.2       1 <0>        -0.9513
     22 O2          1.0689    3.4303   -0.1977 O.2       1 <0>        -0.9474
     23 N3         -1.0152    3.2124   -1.5075 N.pl3     1 <0>        -1.2419
     24 C17        -6.0748    3.3879    6.8673 C.3       1 <0>         0.5565
     25 F1         -5.9584    3.7396    8.2164 F         1 <0>        -0.1620
     26 F2         -6.8840    4.3209    6.2102 F         1 <0>        -0.1712
     27 F3         -6.6505    2.1170    6.7647 F         1 <0>        -0.1709
     28 H1          3.3728    3.2073    7.8061 H         1 <0>         0.0821
     29 H2          3.6057    4.1252    6.2990 H         1 <0>         0.0778
     30 H3          3.1879    4.9776    7.8046 H         1 <0>         0.0767
     31 H4          0.9290    4.9205    8.6797 H         1 <0>         0.1438
     32 H5         -1.4639    4.6745    8.1684 H         1 <0>         0.1453
     33 H6         -0.4603    2.6111    4.5457 H         1 <0>         0.1352
     34 H7         -5.1754    3.0003    4.1442 H         1 <0>         0.1988
     35 H8         -3.1912    1.1471    3.1510 H         1 <0>         0.1471
     36 H9         -1.9382    0.8840    1.0491 H         1 <0>         0.1574
     37 H10        -0.1433    4.7095    1.6297 H         1 <0>         0.1575
     38 H11        -1.3996    4.9863    3.7280 H         1 <0>         0.1453
     39 H12        -1.2984    2.6445   -2.2412 H         1 <0>         0.4248
     40 H13        -1.2836    4.1442   -1.4841 H         1 <0>         0.4202
@<TRIPOS>BOND
     1    1    2 1
     2    1   28 1
     3    1   29 1
     4    1   30 1
     5    2    7 ar
     6    2    3 ar
     7    3    4 ar
     8    3   31 1
     9    4    5 ar
    10    4   32 1
    11    5    6 ar
    12    5    9 1
    13    6    7 ar
    14    6   33 1
    15    7    8 1
    16    9   13 1
    17    9   10 2
    18   10   11 1
    19   11   12 2
    20   11   24 1
    21   12   13 1
    22   12   34 1
    23   13   14 1
    24   14   19 ar
    25   14   15 ar
    26   15   16 ar
    27   15   35 1
    28   16   17 ar
    29   16   36 1
    30   17   18 ar
    31   17   20 1
    32   18   19 ar
    33   18   37 1
    34   19   38 1
    35   20   21 2
    36   20   22 2
    37   20   23 1
    38   23   39 1
    39   23   40 1
    40   24   25 1
    41   24   26 1
    42   24   27 1
@<TRIPOS>MOLECULE
ZINC03814610
   41    43     0     0     0
SMALL
USER_CHARGES

@<TRIPOS>ATOM
      1 C1          3.0357    4.0664    7.2262 C.3       1 <0>        -0.1419
      2 C2          1.5710    3.9131    6.9065 C.ar      1 <0>        -0.0055
      3 C3          0.6197    4.4176    7.7753 C.ar      1 <0>        -0.0988
      4 C4         -0.7227    4.2803    7.4889 C.ar      1 <0>        -0.0574
      5 C5         -1.1214    3.6307    6.3196 C.ar      1 <0>        -0.1050
      6 C6         -0.1581    3.1187    5.4498 C.ar      1 <0>        -0.0596
      7 C7          1.1828    3.2676    5.7449 C.ar      1 <0>        -0.0411
      8 Cl1         2.3837    2.6378    4.6609 Cl        1 <0>        -0.0204
      9 C8         -2.5588    3.4804    6.0070 C.cat     1 <0>         0.4205
     10 C9         -4.7081    3.3730    6.2324 C.2       1 <0>        -0.0714
     11 C10        -4.4487    3.1754    4.9237 C.2       1 <0>         0.1215
     12 N1         -3.0879    3.2364    4.7708 N.pl3     1 <0>        -0.3681
     13 C11        -2.3753    3.0838    3.5738 C.ar      1 <0>         0.1073
     14 C12        -2.5251    1.9291    2.8175 C.ar      1 <0>        -0.1064
     15 C13        -1.8218    1.7818    1.6380 C.ar      1 <0>         0.0062
     16 C14        -0.9692    2.7828    1.2101 C.ar      1 <0>        -0.6480
     17 C15        -0.8136    3.9315    1.9640 C.ar      1 <0>        -0.0008
     18 C16        -1.5185    4.0871    3.1416 C.ar      1 <0>        -0.1111
     19 S1         -0.0737    2.5911   -0.2952 S.o2      1 <0>         2.6950
     20 O1          0.0256    1.1938   -0.5336 O.2       1 <0>        -0.9408
     21 O2          1.0689    3.4303   -0.1977 O.2       1 <0>        -0.9374
     22 N2         -1.0152    3.2124   -1.5075 N.pl3     1 <0>        -1.2375
     23 C17        -6.0748    3.3879    6.8673 C.3       1 <0>         0.5545
     24 F1         -5.9584    3.7396    8.2164 F         1 <0>        -0.1587
     25 F2         -6.8840    4.3209    6.2102 F         1 <0>        -0.1437
     26 F3         -6.6505    2.1170    6.7647 F         1 <0>        -0.1442
     27 H1          3.3728    3.2073    7.8061 H         1 <0>         0.0972
     28 H2          3.6057    4.1252    6.2990 H         1 <0>         0.0885
     29 H3          3.1879    4.9776    7.8046 H         1 <0>         0.0888
     30 H4          0.9290    4.9205    8.6797 H         1 <0>         0.1601
     31 H5         -1.4639    4.6745    8.1684 H         1 <0>         0.1430
     32 H6         -0.4603    2.6111    4.5457 H         1 <0>         0.1476
     33 H7         -5.1754    3.0003    4.1442 H         1 <0>         0.2434
     34 H8         -3.1912    1.1471    3.1510 H         1 <0>         0.1565
     35 H9         -1.9382    0.8840    1.0491 H         1 <0>         0.1699
     36 H10        -0.1433    4.7095    1.6297 H         1 <0>         0.1690
     37 H11        -1.3996    4.9863    3.7280 H         1 <0>         0.1524
     38 H12        -1.2984    2.6445   -2.2412 H         1 <0>         0.4289
     39 H13        -1.2836    4.1442   -1.4841 H         1 <0>         0.4218
     40 N3         -3.5471    3.5588    6.8697 N.pl3     1 <0>        -0.4618
     41 H14        -3.4440    3.7352    7.8759 H         1 <0>         0.4872
@<TRIPOS>BOND
     1    1    2 1
     2    1   27 1
     3    1   28 1
     4    1   29 1
     5    2    7 ar
     6    2    3 ar
     7    3    4 ar
     8    3   30 1
     9    4    5 ar
    10    4   31 1
    11    5    6 ar
    12    5    9 1
    13    6    7 ar
    14    6   32 1
    15    7    8 1
    16    9   12 1
    17    9   40 2
    18   10   11 2
    19   10   23 1
    20   10   40 1
    21   11   12 1
    22   11   33 1
    23   12   13 1
    24   13   18 ar
    25   13   14 ar
    26   14   15 ar
    27   14   34 1
    28   15   16 ar
    29   15   35 1
    30   16   17 ar
    31   16   19 1
    32   17   18 ar
    33   17   36 1
    34   18   37 1
    35   19   20 2
    36   19   21 2
    37   19   22 1
    38   22   38 1
    39   22   39 1
    40   23   24 1
    41   23   25 1
    42   23   26 1
    43   40   41 1
@<TRIPOS>MOLECULE
ZINC03814611
   41    43     0     0     0
SMALL
USER_CHARGES

@<TRIPOS>ATOM
      1 C1         -0.0167    5.5439    9.7685 C.3       1 <0>         0.0215
      2 O1          1.0155    5.0465    8.9147 O.3       1 <0>        -0.2996
      3 C2          0.6239    4.4156    7.7761 C.ar      1 <0>         0.1435
      4 C3         -0.7233    4.2839    7.4863 C.ar      1 <0>        -0.1521
      5 C4         -1.1211    3.6299    6.3202 C.ar      1 <0>         0.0171
      6 C5         -0.1578    3.1227    5.4465 C.ar      1 <0>        -0.1352
      7 C6          1.1826    3.2642    5.7409 C.ar      1 <0>        -0.0663
      8 C7          1.5760    3.9077    6.9011 C.ar      1 <0>        -0.0541
      9 Cl1         3.2647    4.0805    7.2645 Cl        1 <0>        -0.0429
     10 C8         -2.5585    3.4798    6.0075 C.2       1 <0>         0.2750
     11 N1         -3.5465    3.5544    6.8717 N.2       1 <0>        -0.4242
     12 C9         -4.7078    3.3696    6.2332 C.2       1 <0>        -0.0823
     13 C10        -4.4488    3.1777    4.9237 C.2       1 <0>         0.0406
     14 N2         -3.0878    3.2398    4.7706 N.pl3     1 <0>        -0.4107
     15 C11        -2.3755    3.0913    3.5729 C.ar      1 <0>         0.1586
     16 C12        -2.5246    1.9388    2.8132 C.ar      1 <0>        -0.1278
     17 C13        -1.8215    1.7956    1.6330 C.ar      1 <0>         0.0011
     18 C14        -0.9702    2.7988    1.2076 C.ar      1 <0>        -0.6709
     19 C15        -0.8156    3.9455    1.9648 C.ar      1 <0>        -0.0056
     20 C16        -1.5196    4.0966    3.1434 C.ar      1 <0>        -0.1211
     21 S1         -0.0750    2.6124   -0.2986 S.o2      1 <0>         2.7022
     22 O2          0.0258    1.2159   -0.5409 O.2       1 <0>        -0.9515
     23 O3          1.0666    3.4527   -0.1991 O.2       1 <0>        -0.9482
     24 N3         -1.0177    3.2360   -1.5088 N.pl3     1 <0>        -1.2419
     25 C17        -6.0742    3.3805    6.8687 C.3       1 <0>         0.5565
     26 F1         -5.9577    3.7271    8.2190 F         1 <0>        -0.1623
     27 F2         -6.8848    4.3151    6.2156 F         1 <0>        -0.1709
     28 F3         -6.6486    2.1094    6.7614 F         1 <0>        -0.1704
     29 H1         -0.6486    4.7176   10.0941 H         1 <0>         0.0624
     30 H2          0.4313    6.0235   10.6388 H         1 <0>         0.1079
     31 H3         -0.6202    6.2701    9.2240 H         1 <0>         0.0602
     32 H4         -1.4644    4.6825    8.1633 H         1 <0>         0.1529
     33 H5         -0.4617    2.6199    4.5402 H         1 <0>         0.1350
     34 H6          1.9269    2.8713    5.0641 H         1 <0>         0.1498
     35 H7         -5.1757    3.0054    4.1437 H         1 <0>         0.1998
     36 H8         -3.1899    1.1552    3.1445 H         1 <0>         0.1471
     37 H9         -1.9371    0.8993    1.0416 H         1 <0>         0.1575
     38 H10        -0.1465    4.7254    1.6322 H         1 <0>         0.1582
     39 H11        -1.4013    4.9941    3.7325 H         1 <0>         0.1458
     40 H12        -1.3005    2.6699   -2.2439 H         1 <0>         0.4248
     41 H13        -1.2872    4.1675   -1.4826 H         1 <0>         0.4203
@<TRIPOS>BOND
     1    1    2 1
     2    1   29 1
     3    1   30 1
     4    1   31 1
     5    2    3 1
     6    3    8 ar
     7    3    4 ar
     8    4    5 ar
     9    4   32 1
    10    5    6 ar
    11    5   10 1
    12    6    7 ar
    13    6   33 1
    14    7    8 ar
    15    7   34 1
    16    8    9 1
    17   10   14 1
    18   10   11 2
    19   11   12 1
    20   12   13 2
    21   12   25 1
    22   13   14 1
    23   13   35 1
    24   14   15 1
    25   15   20 ar
    26   15   16 ar
    27   16   17 ar
    28   16   36 1
    29   17   18 ar
    30   17   37 1
    31   18   19 ar
    32   18   21 1
    33   19   20 ar
    34   19   38 1
    35   20   39 1
    36   21   22 2
    37   21   23 2
    38   21   24 1
    39   24   40 1
    40   24   41 1
    41   25   26 1
    42   25   27 1
    43   25   28 1
@<TRIPOS>MOLECULE
ZINC03814611
   42    44     0     0     0
SMALL
USER_CHARGES

@<TRIPOS>ATOM
      1 C1         -0.0167    5.5439    9.7685 C.3       1 <0>         0.0167
      2 O1          1.0155    5.0465    8.9147 O.3       1 <0>        -0.2873
      3 C2          0.6239    4.4156    7.7761 C.ar      1 <0>         0.1547
      4 C3         -0.7233    4.2839    7.4863 C.ar      1 <0>        -0.1574
      5 C4         -1.1211    3.6299    6.3202 C.ar      1 <0>        -0.0631
      6 C5         -0.1578    3.1227    5.4465 C.ar      1 <0>        -0.0934
      7 C6          1.1826    3.2642    5.7409 C.ar      1 <0>        -0.0626
      8 C7          1.5760    3.9077    6.9011 C.ar      1 <0>        -0.0195
      9 Cl1         3.2647    4.0805    7.2645 Cl        1 <0>        -0.0052
     10 C8         -2.5585    3.4798    6.0075 C.cat     1 <0>         0.4166
     11 C9         -4.7078    3.3696    6.2332 C.2       1 <0>        -0.0711
     12 C10        -4.4488    3.1777    4.9237 C.2       1 <0>         0.1232
     13 N1         -3.0878    3.2398    4.7706 N.pl3     1 <0>        -0.3649
     14 C11        -2.3755    3.0913    3.5729 C.ar      1 <0>         0.1068
     15 C12        -2.5246    1.9388    2.8132 C.ar      1 <0>        -0.1054
     16 C13        -1.8215    1.7956    1.6330 C.ar      1 <0>         0.0054
     17 C14        -0.9702    2.7988    1.2076 C.ar      1 <0>        -0.6479
     18 C15        -0.8156    3.9455    1.9648 C.ar      1 <0>        -0.0021
     19 C16        -1.5196    4.0966    3.1434 C.ar      1 <0>        -0.1089
     20 S1         -0.0750    2.6124   -0.2986 S.o2      1 <0>         2.6966
     21 O2          0.0258    1.2159   -0.5409 O.2       1 <0>        -0.9410
     22 O3          1.0666    3.4527   -0.1991 O.2       1 <0>        -0.9380
     23 N2         -1.0177    3.2360   -1.5088 N.pl3     1 <0>        -1.2377
     24 C17        -6.0742    3.3805    6.8687 C.3       1 <0>         0.5544
     25 F1         -5.9577    3.7271    8.2190 F         1 <0>        -0.1590
     26 F2         -6.8848    4.3151    6.2156 F         1 <0>        -0.1433
     27 F3         -6.6486    2.1094    6.7614 F         1 <0>        -0.1436
     28 H1         -0.6486    4.7176   10.0941 H         1 <0>         0.0626
     29 H2          0.4313    6.0235   10.6388 H         1 <0>         0.1198
     30 H3         -0.6202    6.2701    9.2240 H         1 <0>         0.0632
     31 H4         -1.4644    4.6825    8.1633 H         1 <0>         0.1477
     32 H5         -0.4617    2.6199    4.5402 H         1 <0>         0.1481
     33 H6          1.9269    2.8713    5.0641 H         1 <0>         0.1671
     34 H7         -5.1757    3.0054    4.1437 H         1 <0>         0.2444
     35 H8         -3.1899    1.1552    3.1445 H         1 <0>         0.1564
     36 H9         -1.9371    0.8993    1.0416 H         1 <0>         0.1698
     37 H10        -0.1465    4.7254    1.6322 H         1 <0>         0.1696
     38 H11        -1.4013    4.9941    3.7325 H         1 <0>         0.1528
     39 H12        -1.3005    2.6699   -2.2439 H         1 <0>         0.4290
     40 H13        -1.2872    4.1675   -1.4826 H         1 <0>         0.4218
     41 N3         -3.5466    3.5542    6.8707 N.pl3     1 <0>        -0.4612
     42 H14        -3.4433    3.7271    7.8775 H         1 <0>         0.4862
@<TRIPOS>BOND
     1    1    2 1
     2    1   28 1
     3    1   29 1
     4    1   30 1
     5    2    3 1
     6    3    8 ar
     7    3    4 ar
     8    4    5 ar
     9    4   31 1
    10    5    6 ar
    11    5   10 1
    12    6    7 ar
    13    6   32 1
    14    7    8 ar
    15    7   33 1
    16    8    9 1
    17   10   13 1
    18   10   41 2
    19   11   12 2
    20   11   24 1
    21   11   41 1
    22   12   13 1
    23   12   34 1
    24   13   14 1
    25   14   19 ar
    26   14   15 ar
    27   15   16 ar
    28   15   35 1
    29   16   17 ar
    30   16   36 1
    31   17   18 ar
    32   17   20 1
    33   18   19 ar
    34   18   37 1
    35   19   38 1
    36   20   21 2
    37   20   22 2
    38   20   23 1
    39   23   39 1
    40   23   40 1
    41   24   25 1
    42   24   26 1
    43   24   27 1
    44   41   42 1
@<TRIPOS>MOLECULE
ZINC03814612
   37    39     0     0     0
SMALL
USER_CHARGES

@<TRIPOS>ATOM
      1 C1         -2.5249    1.9303    2.8171 C.ar      1 <0>        -0.1280
      2 C2         -1.8215    1.7834    1.6376 C.ar      1 <0>         0.0021
      3 C3         -0.9689    2.7847    1.2101 C.ar      1 <0>        -0.6661
      4 C4         -0.8135    3.9331    1.9644 C.ar      1 <0>         0.0001
      5 C5         -1.5178    4.0879    3.1424 C.ar      1 <0>        -0.1264
      6 C6         -2.3749    3.0845    3.5741 C.ar      1 <0>         0.1589
      7 N1         -3.0875    3.2367    4.7711 N.pl3     1 <0>        -0.4121
      8 C7         -4.4489    3.1758    4.9239 C.2       1 <0>         0.0431
      9 C8         -4.7082    3.3722    6.2325 C.2       1 <0>        -0.0807
     10 N2         -3.5469    3.5579    6.8712 N.2       1 <0>        -0.4196
     11 C9         -2.5585    3.4798    6.0075 C.2       1 <0>         0.2746
     12 C10        -1.1213    3.6295    6.3204 C.ar      1 <0>        -0.0086
     13 C11        -0.7233    4.2789    7.4901 C.ar      1 <0>        -0.0501
     14 C12         0.6185    4.4165    7.7782 C.ar      1 <0>        -0.1202
     15 C13         1.5721    3.9119    6.9090 C.ar      1 <0>         0.0893
     16 C14         1.1830    3.2652    5.7444 C.ar      1 <0>         0.0759
     17 C15        -0.1584    3.1170    5.4501 C.ar      1 <0>        -0.1196
     18 F1          2.1172    2.7747    4.9006 F         1 <0>        -0.1189
     19 F2          2.8850    4.0504    7.1959 F         1 <0>        -0.1189
     20 C16        -6.0749    3.3870    6.8673 C.3       1 <0>         0.5565
     21 F3         -5.9587    3.7381    8.2165 F         1 <0>        -0.1614
     22 F4         -6.8840    4.3204    6.2105 F         1 <0>        -0.1705
     23 F5         -6.6508    2.1162    6.7641 F         1 <0>        -0.1703
     24 S1         -0.0734    2.5936   -0.2953 S.o2      1 <0>         2.7012
     25 O1          0.0261    1.1964   -0.5342 O.2       1 <0>        -0.9541
     26 O2          1.0691    3.4330   -0.1975 O.2       1 <0>        -0.9529
     27 N3         -1.0149    3.2152   -1.5075 N.pl3     1 <0>        -1.2479
     28 H1         -3.1911    1.1482    3.1501 H         1 <0>         0.1495
     29 H2         -1.9377    0.8858    1.0483 H         1 <0>         0.1605
     30 H3         -0.1438    4.7116    1.6300 H         1 <0>         0.1604
     31 H4         -1.3991    4.9868    3.7291 H         1 <0>         0.1478
     32 H5         -5.1756    3.0012    4.1443 H         1 <0>         0.2008
     33 H6         -1.4651    4.6730    8.1689 H         1 <0>         0.1577
     34 H7          0.9265    4.9190    8.6832 H         1 <0>         0.1595
     35 H8         -0.4612    2.6097    4.5460 H         1 <0>         0.1465
     36 H9         -1.8855    3.5902   -1.3015 H         1 <0>         0.4174
     37 H10        -0.6959    3.2043   -2.4234 H         1 <0>         0.4245
@<TRIPOS>BOND
     1    1    6 ar
     2    1    2 ar
     3    1   28 1
     4    2    3 ar
     5    2   29 1
     6    3    4 ar
     7    3   24 1
     8    4    5 ar
     9    4   30 1
    10    5    6 ar
    11    5   31 1
    12    6    7 1
    13    7   11 1
    14    7    8 1
    15    8    9 2
    16    8   32 1
    17    9   10 1
    18    9   20 1
    19   10   11 2
    20   11   12 1
    21   12   17 ar
    22   12   13 ar
    23   13   14 ar
    24   13   33 1
    25   14   15 ar
    26   14   34 1
    27   15   16 ar
    28   15   19 1
    29   16   17 ar
    30   16   18 1
    31   17   35 1
    32   20   21 1
    33   20   22 1
    34   20   23 1
    35   24   25 2
    36   24   26 2
    37   24   27 1
    38   27   36 1
    39   27   37 1
@<TRIPOS>MOLECULE
ZINC03814612
   38    40     0     0     0
SMALL
USER_CHARGES

@<TRIPOS>ATOM
      1 C1         -2.5249    1.9303    2.8171 C.ar      1 <0>        -0.1055
      2 C2         -1.8215    1.7834    1.6376 C.ar      1 <0>         0.0065
      3 C3         -0.9689    2.7847    1.2101 C.ar      1 <0>        -0.6434
      4 C4         -0.8135    3.9331    1.9644 C.ar      1 <0>         0.0035
      5 C5         -1.5178    4.0879    3.1424 C.ar      1 <0>        -0.1140
      6 C6         -2.3749    3.0845    3.5741 C.ar      1 <0>         0.1070
      7 N1         -3.0875    3.2367    4.7711 N.pl3     1 <0>        -0.3656
      8 C7         -4.4489    3.1758    4.9239 C.2       1 <0>         0.1245
      9 C8         -4.7082    3.3722    6.2325 C.2       1 <0>        -0.0681
     10 C9         -2.5585    3.4798    6.0075 C.cat     1 <0>         0.4164
     11 C10        -1.1213    3.6295    6.3204 C.ar      1 <0>        -0.0896
     12 C11        -0.7233    4.2789    7.4901 C.ar      1 <0>        -0.0450
     13 C12         0.6185    4.4165    7.7782 C.ar      1 <0>        -0.1142
     14 C13         1.5721    3.9119    6.9090 C.ar      1 <0>         0.1376
     15 C14         1.1830    3.2652    5.7444 C.ar      1 <0>         0.0859
     16 C15        -0.1584    3.1170    5.4501 C.ar      1 <0>        -0.0847
     17 F1          2.1172    2.7747    4.9006 F         1 <0>        -0.1017
     18 F2          2.8850    4.0504    7.1959 F         1 <0>        -0.0973
     19 C16        -6.0749    3.3870    6.8673 C.3       1 <0>         0.5543
     20 F3         -5.9587    3.7381    8.2165 F         1 <0>        -0.1581
     21 F4         -6.8840    4.3204    6.2105 F         1 <0>        -0.1430
     22 F5         -6.6508    2.1162    6.7641 F         1 <0>        -0.1435
     23 S1         -0.0734    2.5936   -0.2953 S.o2      1 <0>         2.6968
     24 O1          0.0261    1.1964   -0.5342 O.2       1 <0>        -0.9430
     25 O2          1.0691    3.4330   -0.1975 O.2       1 <0>        -0.9430
     26 N2         -1.0149    3.2152   -1.5075 N.pl3     1 <0>        -1.2448
     27 H1         -3.1911    1.1482    3.1501 H         1 <0>         0.1589
     28 H2         -1.9377    0.8858    1.0483 H         1 <0>         0.1729
     29 H3         -0.1438    4.7116    1.6300 H         1 <0>         0.1718
     30 H4         -1.3991    4.9868    3.7291 H         1 <0>         0.1549
     31 H5         -5.1756    3.0012    4.1443 H         1 <0>         0.2450
     32 H6         -1.4651    4.6730    8.1689 H         1 <0>         0.1554
     33 H7          0.9265    4.9190    8.6832 H         1 <0>         0.1758
     34 H8         -0.4612    2.6097    4.5460 H         1 <0>         0.1594
     35 H9         -1.8855    3.5902   -1.3015 H         1 <0>         0.4176
     36 H10        -0.6959    3.2043   -2.4234 H         1 <0>         0.4295
     37 N3         -3.5470    3.5577    6.8702 N.pl3     1 <0>        -0.4578
     38 H11        -3.4440    3.7335    7.8765 H         1 <0>         0.4885
@<TRIPOS>BOND
     1    1    6 ar
     2    1    2 ar
     3    1   27 1
     4    2    3 ar
     5    2   28 1
     6    3    4 ar
     7    3   23 1
     8    4    5 ar
     9    4   29 1
    10    5    6 ar
    11    5   30 1
    12    6    7 1
    13    7   10 1
    14    7    8 1
    15    8    9 2
    16    8   31 1
    17    9   19 1
    18    9   37 1
    19   10   11 1
    20   10   37 2
    21   11   16 ar
    22   11   12 ar
    23   12   13 ar
    24   12   32 1
    25   13   14 ar
    26   13   33 1
    27   14   15 ar
    28   14   18 1
    29   15   16 ar
    30   15   17 1
    31   16   34 1
    32   19   20 1
    33   19   21 1
    34   19   22 1
    35   23   24 2
    36   23   25 2
    37   23   26 1
    38   26   35 1
    39   26   36 1
    40   37   38 1
@<TRIPOS>MOLECULE
ZINC03814613
   40    42     0     0     0
SMALL
USER_CHARGES

@<TRIPOS>ATOM
      1 C1         -5.0084    3.6521    6.6637 C.3       1 <0>        -0.1199
      2 C2         -4.8982    3.4195    5.1789 C.ar      1 <0>        -0.0648
      3 C3         -3.6805    3.0836    4.6233 C.ar      1 <0>        -0.1066
      4 C4         -3.5781    2.8745    3.2474 C.ar      1 <0>        -0.0114
      5 C5         -4.7121    2.9948    2.4429 C.ar      1 <0>        -0.0694
      6 C6         -5.9260    3.3253    3.0116 C.ar      1 <0>        -0.0287
      7 C7         -6.0190    3.5370    4.3770 C.ar      1 <0>        -0.0925
      8 Cl1        -7.3383    3.4751    2.0133 Cl        1 <0>        -0.0536
      9 C8         -2.2747    2.5210    2.6452 C.2       1 <0>         0.2790
     10 N1         -2.0971    1.9466    1.4760 N.2       1 <0>        -0.4244
     11 C9         -0.7875    1.7761    1.2613 C.2       1 <0>        -0.0808
     12 C10        -0.1139    2.2657    2.3222 C.2       1 <0>         0.0379
     13 N2         -1.0479    2.7406    3.2060 N.pl3     1 <0>        -0.4133
     14 C11        -0.7933    3.3381    4.4478 C.ar      1 <0>         0.1630
     15 C12        -1.2705    4.6139    4.7168 C.ar      1 <0>        -0.1225
     16 C13        -1.0224    5.1979    5.9436 C.ar      1 <0>         0.0007
     17 C14        -0.2903    4.5178    6.8994 C.ar      1 <0>        -0.6691
     18 C15         0.1907    3.2491    6.6325 C.ar      1 <0>        -0.0020
     19 C16        -0.0586    2.6576    5.4095 C.ar      1 <0>        -0.1286
     20 S1          0.0308    5.2694    8.4604 S.o2      1 <0>         2.7016
     21 O1         -0.9900    6.2369    8.6629 O.2       1 <0>        -0.9540
     22 O2          0.2711    4.2118    9.3786 O.2       1 <0>        -0.9520
     23 N3          1.4534    6.1050    8.3181 N.pl3     1 <0>        -1.2459
     24 C17        -0.1695    1.1491    0.0382 C.3       1 <0>         0.5572
     25 F1         -0.0314   -0.2284    0.2396 F         1 <0>        -0.1697
     26 F2          1.0891    1.7154   -0.1907 F         1 <0>        -0.1712
     27 F3         -0.9924    1.3782   -1.0697 F         1 <0>        -0.1634
     28 H1         -5.2403    2.7111    7.1626 H         1 <0>         0.0796
     29 H2         -4.0627    4.0404    7.0418 H         1 <0>         0.0712
     30 H3         -5.8019    4.3730    6.8606 H         1 <0>         0.0771
     31 H4         -2.8073    2.9876    5.2515 H         1 <0>         0.1306
     32 H5         -4.6401    2.8302    1.3780 H         1 <0>         0.1488
     33 H6         -6.9706    3.7953    4.8176 H         1 <0>         0.1417
     34 H7          0.9583    2.2811    2.4508 H         1 <0>         0.2004
     35 H8         -1.8382    5.1475    3.9690 H         1 <0>         0.1463
     36 H9         -1.3971    6.1885    6.1551 H         1 <0>         0.1587
     37 H10         0.7622    2.7203    7.3809 H         1 <0>         0.1589
     38 H11         0.3180    1.6670    5.2013 H         1 <0>         0.1479
     39 H12         1.6027    6.9025    8.8497 H         1 <0>         0.4249
     40 H13         2.1374    5.7970    7.7031 H         1 <0>         0.4182
@<TRIPOS>BOND
     1    1    2 1
     2    1   28 1
     3    1   29 1
     4    1   30 1
     5    2    7 ar
     6    2    3 ar
     7    3    4 ar
     8    3   31 1
     9    4    5 ar
    10    4    9 1
    11    5    6 ar
    12    5   32 1
    13    6    7 ar
    14    6    8 1
    15    7   33 1
    16    9   13 1
    17    9   10 2
    18   10   11 1
    19   11   12 2
    20   11   24 1
    21   12   13 1
    22   12   34 1
    23   13   14 1
    24   14   19 ar
    25   14   15 ar
    26   15   16 ar
    27   15   35 1
    28   16   17 ar
    29   16   36 1
    30   17   18 ar
    31   17   20 1
    32   18   19 ar
    33   18   37 1
    34   19   38 1
    35   20   21 2
    36   20   22 2
    37   20   23 1
    38   23   39 1
    39   23   40 1
    40   24   25 1
    41   24   26 1
    42   24   27 1
@<TRIPOS>MOLECULE
ZINC03814613
   41    43     0     0     0
SMALL
USER_CHARGES

@<TRIPOS>ATOM
      1 C1         -5.0084    3.6521    6.6637 C.3       1 <0>        -0.1304
      2 C2         -4.8982    3.4195    5.1789 C.ar      1 <0>        -0.0514
      3 C3         -3.6805    3.0836    4.6233 C.ar      1 <0>        -0.0730
      4 C4         -3.5781    2.8745    3.2474 C.ar      1 <0>        -0.0871
      5 C5         -4.7121    2.9948    2.4429 C.ar      1 <0>        -0.0714
      6 C6         -5.9260    3.3253    3.0116 C.ar      1 <0>        -0.0261
      7 C7         -6.0190    3.5370    4.3770 C.ar      1 <0>        -0.0525
      8 Cl1        -7.3383    3.4751    2.0133 Cl        1 <0>        -0.0224
      9 C8         -2.2747    2.5210    2.6452 C.cat     1 <0>         0.4194
     10 C9         -0.7875    1.7761    1.2613 C.2       1 <0>        -0.0697
     11 C10        -0.1139    2.2657    2.3222 C.2       1 <0>         0.1215
     12 N1         -1.0479    2.7406    3.2060 N.pl3     1 <0>        -0.3676
     13 C11        -0.7933    3.3381    4.4478 C.ar      1 <0>         0.1108
     14 C12        -1.2705    4.6139    4.7168 C.ar      1 <0>        -0.1099
     15 C13        -1.0224    5.1979    5.9436 C.ar      1 <0>         0.0041
     16 C14        -0.2903    4.5178    6.8994 C.ar      1 <0>        -0.6464
     17 C15         0.1907    3.2491    6.6325 C.ar      1 <0>         0.0024
     18 C16        -0.0586    2.6576    5.4095 C.ar      1 <0>        -0.1062
     19 S1          0.0308    5.2694    8.4604 S.o2      1 <0>         2.6969
     20 O1         -0.9900    6.2369    8.6629 O.2       1 <0>        -0.9445
     21 O2          0.2711    4.2118    9.3786 O.2       1 <0>        -0.9406
     22 N2          1.4534    6.1050    8.3181 N.pl3     1 <0>        -1.2424
     23 C17        -0.1695    1.1491    0.0382 C.3       1 <0>         0.5538
     24 F1         -0.0314   -0.2284    0.2396 F         1 <0>        -0.1465
     25 F2          1.0891    1.7154   -0.1907 F         1 <0>        -0.1425
     26 F3         -0.9924    1.3782   -1.0697 F         1 <0>        -0.1562
     27 H1         -5.2403    2.7111    7.1626 H         1 <0>         0.0910
     28 H2         -4.0627    4.0404    7.0418 H         1 <0>         0.0787
     29 H3         -5.8019    4.3730    6.8606 H         1 <0>         0.0881
     30 H4         -2.8073    2.9876    5.2515 H         1 <0>         0.1438
     31 H5         -4.6401    2.8302    1.3780 H         1 <0>         0.1456
     32 H6         -6.9706    3.7953    4.8176 H         1 <0>         0.1587
     33 H7          0.9583    2.2811    2.4508 H         1 <0>         0.2447
     34 H8         -1.8382    5.1475    3.9690 H         1 <0>         0.1533
     35 H9         -1.3971    6.1885    6.1551 H         1 <0>         0.1702
     36 H10         0.7622    2.7203    7.3809 H         1 <0>         0.1713
     37 H11         0.3180    1.6670    5.2013 H         1 <0>         0.1573
     38 H12         1.6027    6.9025    8.8497 H         1 <0>         0.4297
     39 H13         2.1374    5.7970    7.7031 H         1 <0>         0.4188
     40 N3         -2.0963    1.9469    1.4767 N.pl3     1 <0>        -0.4609
     41 H14        -2.8450    1.6723    0.8299 H         1 <0>         0.4876
@<TRIPOS>BOND
     1    1    2 1
     2    1   27 1
     3    1   28 1
     4    1   29 1
     5    2    7 ar
     6    2    3 ar
     7    3    4 ar
     8    3   30 1
     9    4    5 ar
    10    4    9 1
    11    5    6 ar
    12    5   31 1
    13    6    7 ar
    14    6    8 1
    15    7   32 1
    16    9   12 1
    17    9   40 2
    18   10   11 2
    19   10   23 1
    20   10   40 1
    21   11   12 1
    22   11   33 1
    23   12   13 1
    24   13   18 ar
    25   13   14 ar
    26   14   15 ar
    27   14   34 1
    28   15   16 ar
    29   15   35 1
    30   16   17 ar
    31   16   19 1
    32   17   18 ar
    33   17   36 1
    34   18   37 1
    35   19   20 2
    36   19   21 2
    37   19   22 1
    38   22   38 1
    39   22   39 1
    40   23   24 1
    41   23   25 1
    42   23   26 1
    43   40   41 1
@<TRIPOS>MOLECULE
ZINC03814614
   41    43     0     0     0
SMALL
USER_CHARGES

@<TRIPOS>ATOM
      1 C1         -6.2948    3.9766    7.0245 C.3       1 <0>         0.0213
      2 O1         -5.0027    3.6370    6.5173 O.3       1 <0>        -0.3067
      3 C2         -4.9014    3.4257    5.1786 C.ar      1 <0>         0.1500
      4 C3         -3.6791    3.0876    4.6218 C.ar      1 <0>        -0.1409
      5 C4         -3.5776    2.8775    3.2469 C.ar      1 <0>         0.0255
      6 C5         -4.7113    2.9980    2.4416 C.ar      1 <0>        -0.1007
      7 C6         -5.9266    3.3299    3.0071 C.ar      1 <0>         0.0074
      8 C7         -6.0242    3.5431    4.3710 C.ar      1 <0>        -0.1847
      9 Cl1        -7.3359    3.4795    2.0045 Cl        1 <0>        -0.0483
     10 C8         -2.2744    2.5222    2.6450 C.2       1 <0>         0.2761
     11 N1         -2.0974    1.9465    1.4764 N.2       1 <0>        -0.4200
     12 C9         -0.7878    1.7760    1.2612 C.2       1 <0>        -0.0816
     13 C10        -0.1139    2.2657    2.3218 C.2       1 <0>         0.0411
     14 N2         -1.0475    2.7416    3.2054 N.pl3     1 <0>        -0.4109
     15 C11        -0.7924    3.3395    4.4469 C.ar      1 <0>         0.1602
     16 C12        -1.2688    4.6157    4.7153 C.ar      1 <0>        -0.1215
     17 C13        -1.0198    5.2005    5.9416 C.ar      1 <0>         0.0035
     18 C14        -0.2879    4.5204    6.8976 C.ar      1 <0>        -0.6666
     19 C15         0.1924    3.2513    6.6313 C.ar      1 <0>        -0.0022
     20 C16        -0.0578    2.6592    5.4088 C.ar      1 <0>        -0.1278
     21 S1          0.0339    5.2727    8.4581 S.o2      1 <0>         2.7018
     22 O2         -0.9864    6.2409    8.6603 O.2       1 <0>        -0.9538
     23 O3          0.2737    4.2155    9.3769 O.2       1 <0>        -0.9522
     24 N3          1.4569    6.1074    8.3152 N.pl3     1 <0>        -1.2463
     25 C17        -0.1703    1.1488    0.0380 C.3       1 <0>         0.5575
     26 F1         -0.0321   -0.2287    0.2395 F         1 <0>        -0.1696
     27 F2          1.0882    1.7150   -0.1915 F         1 <0>        -0.1710
     28 F3         -0.9937    1.3777   -1.0697 F         1 <0>        -0.1634
     29 H1         -6.6384    4.8986    6.5556 H         1 <0>         0.0614
     30 H2         -6.9957    3.1722    6.8012 H         1 <0>         0.0608
     31 H3         -6.2358    4.1179    8.1037 H         1 <0>         0.1084
     32 H4         -2.8060    2.9913    5.2502 H         1 <0>         0.1396
     33 H5         -4.6379    2.8321    1.3769 H         1 <0>         0.1518
     34 H6         -6.9770    3.8022    4.8085 H         1 <0>         0.1472
     35 H7          0.9584    2.2807    2.4502 H         1 <0>         0.2012
     36 H8         -1.8367    5.1491    3.9674 H         1 <0>         0.1459
     37 H9         -1.3939    6.1914    6.1526 H         1 <0>         0.1580
     38 H10         0.7640    2.7228    7.3798 H         1 <0>         0.1587
     39 H11         0.3178    1.6681    5.2013 H         1 <0>         0.1480
     40 H12         1.6068    6.9051    8.8463 H         1 <0>         0.4246
     41 H13         2.1406    5.7987    7.7002 H         1 <0>         0.4180
@<TRIPOS>BOND
     1    1    2 1
     2    1   29 1
     3    1   30 1
     4    1   31 1
     5    2    3 1
     6    3    8 ar
     7    3    4 ar
     8    4    5 ar
     9    4   32 1
    10    5    6 ar
    11    5   10 1
    12    6    7 ar
    13    6   33 1
    14    7    8 ar
    15    7    9 1
    16    8   34 1
    17   10   14 1
    18   10   11 2
    19   11   12 1
    20   12   13 2
    21   12   25 1
    22   13   14 1
    23   13   35 1
    24   14   15 1
    25   15   20 ar
    26   15   16 ar
    27   16   17 ar
    28   16   36 1
    29   17   18 ar
    30   17   37 1
    31   18   19 ar
    32   18   21 1
    33   19   20 ar
    34   19   38 1
    35   20   39 1
    36   21   22 2
    37   21   23 2
    38   21   24 1
    39   24   40 1
    40   24   41 1
    41   25   26 1
    42   25   27 1
    43   25   28 1
@<TRIPOS>MOLECULE
ZINC03814614
   42    44     0     0     0
SMALL
USER_CHARGES

@<TRIPOS>ATOM
      1 C1         -6.2948    3.9766    7.0245 C.3       1 <0>         0.0150
      2 O1         -5.0027    3.6370    6.5173 O.3       1 <0>        -0.2976
      3 C2         -4.9014    3.4257    5.1786 C.ar      1 <0>         0.1635
      4 C3         -3.6791    3.0876    4.6218 C.ar      1 <0>        -0.1099
      5 C4         -3.5776    2.8775    3.2469 C.ar      1 <0>        -0.0495
      6 C5         -4.7113    2.9980    2.4416 C.ar      1 <0>        -0.1051
      7 C6         -5.9266    3.3299    3.0071 C.ar      1 <0>         0.0113
      8 C7         -6.0242    3.5431    4.3710 C.ar      1 <0>        -0.1488
      9 Cl1        -7.3359    3.4795    2.0045 Cl        1 <0>        -0.0179
     10 C8         -2.2744    2.5222    2.6450 C.cat     1 <0>         0.4170
     11 C9         -0.7878    1.7760    1.2612 C.2       1 <0>        -0.0689
     12 C10        -0.1139    2.2657    2.3218 C.2       1 <0>         0.1230
     13 N1         -1.0475    2.7416    3.2054 N.pl3     1 <0>        -0.3639
     14 C11        -0.7924    3.3395    4.4469 C.ar      1 <0>         0.1080
     15 C12        -1.2688    4.6157    4.7153 C.ar      1 <0>        -0.1085
     16 C13        -1.0198    5.2005    5.9416 C.ar      1 <0>         0.0068
     17 C14        -0.2879    4.5204    6.8976 C.ar      1 <0>        -0.6439
     18 C15         0.1924    3.2513    6.6313 C.ar      1 <0>         0.0021
     19 C16        -0.0578    2.6592    5.4088 C.ar      1 <0>        -0.1055
     20 S1          0.0339    5.2727    8.4581 S.o2      1 <0>         2.6972
     21 O2         -0.9864    6.2409    8.6603 O.2       1 <0>        -0.9444
     22 O3          0.2737    4.2155    9.3769 O.2       1 <0>        -0.9409
     23 N2          1.4569    6.1074    8.3152 N.pl3     1 <0>        -1.2428
     24 C17        -0.1703    1.1488    0.0380 C.3       1 <0>         0.5540
     25 F1         -0.0321   -0.2287    0.2395 F         1 <0>        -0.1463
     26 F2          1.0882    1.7150   -0.1915 F         1 <0>        -0.1423
     27 F3         -0.9937    1.3777   -1.0697 F         1 <0>        -0.1560
     28 H1         -6.6384    4.8986    6.5556 H         1 <0>         0.0687
     29 H2         -6.9957    3.1722    6.8012 H         1 <0>         0.0680
     30 H3         -6.2358    4.1179    8.1037 H         1 <0>         0.1193
     31 H4         -2.8060    2.9913    5.2502 H         1 <0>         0.1522
     32 H5         -4.6379    2.8321    1.3769 H         1 <0>         0.1481
     33 H6         -6.9770    3.8022    4.8085 H         1 <0>         0.1627
     34 H7          0.9584    2.2807    2.4502 H         1 <0>         0.2455
     35 H8         -1.8367    5.1491    3.9674 H         1 <0>         0.1530
     36 H9         -1.3939    6.1914    6.1526 H         1 <0>         0.1694
     37 H10         0.7640    2.7228    7.3798 H         1 <0>         0.1711
     38 H11         0.3178    1.6681    5.2013 H         1 <0>         0.1573
     39 H12         1.6068    6.9051    8.8463 H         1 <0>         0.4293
     40 H13         2.1406    5.7987    7.7002 H         1 <0>         0.4186
     41 N3         -2.0966    1.9468    1.4771 N.pl3     1 <0>        -0.4574
     42 H14        -2.8456    1.6713    0.8310 H         1 <0>         0.4883
@<TRIPOS>BOND
     1    1    2 1
     2    1   28 1
     3    1   29 1
     4    1   30 1
     5    2    3 1
     6    3    8 ar
     7    3    4 ar
     8    4    5 ar
     9    4   31 1
    10    5    6 ar
    11    5   10 1
    12    6    7 ar
    13    6   32 1
    14    7    8 ar
    15    7    9 1
    16    8   33 1
    17   10   13 1
    18   10   41 2
    19   11   12 2
    20   11   24 1
    21   11   41 1
    22   12   13 1
    23   12   34 1
    24   13   14 1
    25   14   19 ar
    26   14   15 ar
    27   15   16 ar
    28   15   35 1
    29   16   17 ar
    30   16   36 1
    31   17   18 ar
    32   17   20 1
    33   18   19 ar
    34   18   37 1
    35   19   38 1
    36   20   21 2
    37   20   22 2
    38   20   23 1
    39   23   39 1
    40   23   40 1
    41   24   25 1
    42   24   26 1
    43   24   27 1
    44   41   42 1
@<TRIPOS>MOLECULE
ZINC03814615
   48    50     0     0     0
SMALL
USER_CHARGES

@<TRIPOS>ATOM
      1 C1         -7.1498    3.4534    2.1383 C.3       1 <0>        -0.1147
      2 C2         -5.9252    3.3240    3.0070 C.ar      1 <0>        -0.0959
      3 C3         -4.7120    2.9947    2.4418 C.ar      1 <0>        -0.0635
      4 C4         -3.5782    2.8747    3.2475 C.ar      1 <0>        -0.0289
      5 C5         -3.6794    3.0837    4.6242 C.ar      1 <0>        -0.1012
      6 C6         -4.8952    3.4174    5.1812 C.ar      1 <0>        -0.0922
      7 C7         -6.0206    3.5363    4.3762 C.ar      1 <0>         0.1121
      8 O1         -7.2181    3.8608    4.9296 O.3       1 <0>        -0.3320
      9 C8         -8.0443    2.7803    5.3677 C.3       1 <0>         0.0352
     10 C9         -5.0045    3.6479    6.6664 C.3       1 <0>        -0.1166
     11 C10        -2.2755    2.5212    2.6455 C.2       1 <0>         0.2843
     12 N1         -2.0978    1.9459    1.4764 N.2       1 <0>        -0.4293
     13 C11        -0.7877    1.7756    1.2614 C.2       1 <0>        -0.0818
     14 C12        -0.1141    2.2659    2.3213 C.2       1 <0>         0.0343
     15 N2         -1.0484    2.7416    3.2058 N.pl3     1 <0>        -0.4143
     16 C13        -0.7934    3.3400    4.4470 C.ar      1 <0>         0.1596
     17 C14        -1.2707    4.6158    4.7154 C.ar      1 <0>        -0.1202
     18 C15        -1.0227    5.2007    5.9418 C.ar      1 <0>        -0.0069
     19 C16        -0.2897    4.5215    6.8976 C.ar      1 <0>        -0.6518
     20 C17         0.1915    3.2527    6.6314 C.ar      1 <0>        -0.0053
     21 C18        -0.0581    2.6604    5.4089 C.ar      1 <0>        -0.1286
     22 S1          0.0314    5.2741    8.4581 S.o2      1 <0>         2.4977
     23 O2         -1.0359    6.1937    8.6436 O.2       1 <0>        -0.9290
     24 O3          0.2146    4.1866    9.3543 O.2       1 <0>        -0.9304
     25 C19         1.5938    6.1676    8.2322 C.3       1 <0>        -0.6490
     26 C20        -0.1699    1.1479    0.0385 C.3       1 <0>         0.5572
     27 F1         -0.0314   -0.2294    0.2409 F         1 <0>        -0.1704
     28 F2          1.0885    1.7144   -0.1912 F         1 <0>        -0.1717
     29 F3         -0.9933    1.3760   -1.0692 F         1 <0>        -0.1641
     30 H1         -7.6502    2.4875    2.0695 H         1 <0>         0.0725
     31 H2         -7.8298    4.1845    2.5755 H         1 <0>         0.0768
     32 H3         -6.8551    3.7817    1.1416 H         1 <0>         0.0725
     33 H4         -4.6385    2.8301    1.3769 H         1 <0>         0.1422
     34 H5         -2.8054    2.9877    5.2513 H         1 <0>         0.1286
     35 H6         -8.2782    2.1352    4.5208 H         1 <0>         0.0486
     36 H7         -7.5167    2.2046    6.1281 H         1 <0>         0.0479
     37 H8         -8.9684    3.1769    5.7884 H         1 <0>         0.0979
     38 H9         -5.2362    2.7063    7.1642 H         1 <0>         0.0721
     39 H10        -4.0586    4.0357    7.0446 H         1 <0>         0.0697
     40 H11        -5.7979    4.3685    6.8648 H         1 <0>         0.0797
     41 H12         0.9582    2.2815    2.4495 H         1 <0>         0.1985
     42 H13        -1.8389    5.1488    3.9674 H         1 <0>         0.1451
     43 H14        -1.3978    6.1912    6.1529 H         1 <0>         0.1579
     44 H15         0.7634    2.7246    7.3800 H         1 <0>         0.1575
     45 H16         0.3186    1.6697    5.2013 H         1 <0>         0.1460
     46 H17         1.4768    6.9101    7.4429 H         1 <0>         0.1335
     47 H18         1.8651    6.6661    9.1627 H         1 <0>         0.1371
     48 H19         2.3783    5.4633    7.9551 H         1 <0>         0.1333
@<TRIPOS>BOND
     1    1    2 1
     2    1   30 1
     3    1   31 1
     4    1   32 1
     5    2    7 ar
     6    2    3 ar
     7    3    4 ar
     8    3   33 1
     9    4    5 ar
    10    4   11 1
    11    5    6 ar
    12    5   34 1
    13    6    7 ar
    14    6   10 1
    15    7    8 1
    16    8    9 1
    17    9   35 1
    18    9   36 1
    19    9   37 1
    20   10   38 1
    21   10   39 1
    22   10   40 1
    23   11   15 1
    24   11   12 2
    25   12   13 1
    26   13   14 2
    27   13   26 1
    28   14   15 1
    29   14   41 1
    30   15   16 1
    31   16   21 ar
    32   16   17 ar
    33   17   18 ar
    34   17   42 1
    35   18   19 ar
    36   18   43 1
    37   19   20 ar
    38   19   22 1
    39   20   21 ar
    40   20   44 1
    41   21   45 1
    42   22   23 2
    43   22   24 2
    44   22   25 1
    45   25   46 1
    46   25   47 1
    47   25   48 1
    48   26   27 1
    49   26   28 1
    50   26   29 1
@<TRIPOS>MOLECULE
ZINC03814615
   49    51     0     0     0
SMALL
USER_CHARGES

@<TRIPOS>ATOM
      1 C1         -7.1498    3.4534    2.1383 C.3       1 <0>        -0.1243
      2 C2         -5.9252    3.3240    3.0070 C.ar      1 <0>        -0.0874
      3 C3         -4.7120    2.9947    2.4418 C.ar      1 <0>        -0.0624
      4 C4         -3.5782    2.8747    3.2475 C.ar      1 <0>        -0.1087
      5 C5         -3.6794    3.0837    4.6242 C.ar      1 <0>        -0.0649
      6 C6         -4.8952    3.4174    5.1812 C.ar      1 <0>        -0.0855
      7 C7         -6.0206    3.5363    4.3762 C.ar      1 <0>         0.1606
      8 O1         -7.2181    3.8608    4.9296 O.3       1 <0>        -0.3294
      9 C8         -8.0443    2.7803    5.3677 C.3       1 <0>         0.0344
     10 C9         -5.0045    3.6479    6.6664 C.3       1 <0>        -0.1265
     11 C10        -2.2755    2.5212    2.6455 C.cat     1 <0>         0.4253
     12 C11        -0.7877    1.7756    1.2614 C.2       1 <0>        -0.0725
     13 C12        -0.1141    2.2659    2.3213 C.2       1 <0>         0.1192
     14 N1         -1.0484    2.7416    3.2058 N.pl3     1 <0>        -0.3707
     15 C13        -0.7934    3.3400    4.4470 C.ar      1 <0>         0.1082
     16 C14        -1.2707    4.6158    4.7154 C.ar      1 <0>        -0.1077
     17 C15        -1.0227    5.2007    5.9418 C.ar      1 <0>        -0.0039
     18 C16        -0.2897    4.5215    6.8976 C.ar      1 <0>        -0.6289
     19 C17         0.1915    3.2527    6.6314 C.ar      1 <0>        -0.0013
     20 C18        -0.0581    2.6604    5.4089 C.ar      1 <0>        -0.1066
     21 S1          0.0314    5.2741    8.4581 S.o2      1 <0>         2.4906
     22 O2         -1.0359    6.1937    8.6436 O.2       1 <0>        -0.9203
     23 O3          0.2146    4.1866    9.3543 O.2       1 <0>        -0.9205
     24 C19         1.5938    6.1676    8.2322 C.3       1 <0>        -0.6455
     25 C20        -0.1699    1.1479    0.0385 C.3       1 <0>         0.5540
     26 F1         -0.0314   -0.2294    0.2409 F         1 <0>        -0.1475
     27 F2          1.0885    1.7144   -0.1912 F         1 <0>        -0.1434
     28 F3         -0.9933    1.3760   -1.0692 F         1 <0>        -0.1571
     29 H1         -7.6502    2.4875    2.0695 H         1 <0>         0.0827
     30 H2         -7.8298    4.1845    2.5755 H         1 <0>         0.0875
     31 H3         -6.8551    3.7817    1.1416 H         1 <0>         0.0786
     32 H4         -4.6385    2.8301    1.3769 H         1 <0>         0.1394
     33 H5         -2.8054    2.9877    5.2513 H         1 <0>         0.1417
     34 H6         -8.2782    2.1352    4.5208 H         1 <0>         0.0546
     35 H7         -7.5167    2.2046    6.1281 H         1 <0>         0.0549
     36 H8         -8.9684    3.1769    5.7884 H         1 <0>         0.1096
     37 H9         -5.2362    2.7063    7.1642 H         1 <0>         0.0833
     38 H10        -4.0586    4.0357    7.0446 H         1 <0>         0.0775
     39 H11        -5.7979    4.3685    6.8648 H         1 <0>         0.0897
     40 H12         0.9582    2.2815    2.4495 H         1 <0>         0.2426
     41 H13        -1.8389    5.1488    3.9674 H         1 <0>         0.1520
     42 H14        -1.3978    6.1912    6.1529 H         1 <0>         0.1691
     43 H15         0.7634    2.7246    7.3800 H         1 <0>         0.1697
     44 H16         0.3186    1.6697    5.2013 H         1 <0>         0.1551
     45 H17         1.4768    6.9101    7.4429 H         1 <0>         0.1353
     46 H18         1.8651    6.6661    9.1627 H         1 <0>         0.1437
     47 H19         2.3783    5.4633    7.9551 H         1 <0>         0.1354
     48 N2         -2.0971    1.9462    1.4770 N.pl3     1 <0>        -0.4656
     49 H20        -2.8458    1.6708    0.8306 H         1 <0>         0.4861
@<TRIPOS>BOND
     1    1    2 1
     2    1   29 1
     3    1   30 1
     4    1   31 1
     5    2    7 ar
     6    2    3 ar
     7    3    4 ar
     8    3   32 1
     9    4    5 ar
    10    4   11 1
    11    5    6 ar
    12    5   33 1
    13    6    7 ar
    14    6   10 1
    15    7    8 1
    16    8    9 1
    17    9   34 1
    18    9   35 1
    19    9   36 1
    20   10   37 1
    21   10   38 1
    22   10   39 1
    23   11   14 1
    24   11   48 2
    25   12   13 2
    26   12   25 1
    27   12   48 1
    28   13   14 1
    29   13   40 1
    30   14   15 1
    31   15   20 ar
    32   15   16 ar
    33   16   17 ar
    34   16   41 1
    35   17   18 ar
    36   17   42 1
    37   18   19 ar
    38   18   21 1
    39   19   20 ar
    40   19   43 1
    41   20   44 1
    42   21   22 2
    43   21   23 2
    44   21   24 1
    45   24   45 1
    46   24   46 1
    47   24   47 1
    48   25   26 1
    49   25   27 1
    50   25   28 1
    51   48   49 1
@<TRIPOS>MOLECULE
ZINC03814616
   38    40     0     0     0
SMALL
USER_CHARGES

@<TRIPOS>ATOM
      1 C1         -1.2453    3.3421   -1.3897 C.3       1 <0>        -0.6489
      2 S1         -0.0715    2.5846   -0.2325 S.o2      1 <0>         2.4988
      3 O1          0.0165    1.1864   -0.4698 O.2       1 <0>        -0.9307
      4 O2          1.1032    3.3785   -0.1372 O.2       1 <0>        -0.9298
      5 C2         -0.8386    2.7252    1.3475 C.ar      1 <0>        -0.6531
      6 C3         -0.6071    3.8415    2.1300 C.ar      1 <0>        -0.0065
      7 C4         -1.2108    3.9568    3.3669 C.ar      1 <0>        -0.1246
      8 C5         -2.0428    2.9457    3.8286 C.ar      1 <0>         0.1620
      9 C6         -2.2692    1.8237    3.0428 C.ar      1 <0>        -0.1300
     10 C7         -1.6664    1.7164    1.8047 C.ar      1 <0>        -0.0050
     11 N1         -2.6533    3.0577    5.0851 N.pl3     1 <0>        -0.4159
     12 C8         -3.9980    3.0034    5.3468 C.2       1 <0>         0.0112
     13 C9         -4.1473    3.1539    6.6785 C.2       1 <0>        -0.0678
     14 N2         -2.9351    3.2971    7.2269 N.2       1 <0>        -0.4341
     15 C10        -2.0213    3.2360    6.2836 C.2       1 <0>         0.2684
     16 C11        -0.5605    3.3456    6.4845 C.ar      1 <0>        -0.0220
     17 C12         0.3183    2.8586    5.5158 C.ar      1 <0>        -0.0970
     18 C13         1.6800    2.9680    5.7066 C.ar      1 <0>        -0.1056
     19 C14         2.1756    3.5504    6.8610 C.ar      1 <0>        -0.0195
     20 C15         1.3086    4.0306    7.8281 C.ar      1 <0>        -0.1074
     21 C16        -0.0551    3.9311    7.6462 C.ar      1 <0>        -0.0590
     22 Cl1         3.8907    3.6785    7.0971 Cl        1 <0>        -0.0579
     23 C17        -5.4574    3.1590    7.4232 C.3       1 <0>         0.3617
     24 F1         -5.3452    3.9683    8.5588 F         1 <0>        -0.1877
     25 F2         -6.4647    3.6597    6.5914 F         1 <0>        -0.1960
     26 H1         -2.1919    2.8032   -1.3518 H         1 <0>         0.1331
     27 H2         -1.4086    4.3834   -1.1120 H         1 <0>         0.1333
     28 H3         -0.8406    3.2949   -2.4007 H         1 <0>         0.1370
     29 H4          0.0432    4.6259    1.7719 H         1 <0>         0.1575
     30 H5         -1.0328    4.8308    3.9759 H         1 <0>         0.1441
     31 H6         -2.9156    1.0354    3.3995 H         1 <0>         0.1455
     32 H7         -1.8421    0.8438    1.1930 H         1 <0>         0.1572
     33 H8         -4.7881    2.8660    4.6234 H         1 <0>         0.1934
     34 H9         -0.0671    2.4005    4.6169 H         1 <0>         0.1326
     35 H10         2.3611    2.5949    4.9560 H         1 <0>         0.1420
     36 H11         1.7008    4.4835    8.7266 H         1 <0>         0.1442
     37 H12        -0.7304    4.3054    8.4014 H         1 <0>         0.1476
     38 H13        -5.7077    2.1420    7.7252 H         1 <0>         0.1288
@<TRIPOS>BOND
     1    1    2 1
     2    1   26 1
     3    1   27 1
     4    1   28 1
     5    2    3 2
     6    2    4 2
     7    2    5 1
     8    5   10 ar
     9    5    6 ar
    10    6    7 ar
    11    6   29 1
    12    7    8 ar
    13    7   30 1
    14    8    9 ar
    15    8   11 1
    16    9   10 ar
    17    9   31 1
    18   10   32 1
    19   11   15 1
    20   11   12 1
    21   12   13 2
    22   12   33 1
    23   13   14 1
    24   13   23 1
    25   14   15 2
    26   15   16 1
    27   16   21 ar
    28   16   17 ar
    29   17   18 ar
    30   17   34 1
    31   18   19 ar
    32   18   35 1
    33   19   20 ar
    34   19   22 1
    35   20   21 ar
    36   20   36 1
    37   21   37 1
    38   23   24 1
    39   23   25 1
    40   23   38 1
@<TRIPOS>MOLECULE
ZINC03814616
   39    41     0     0     0
SMALL
USER_CHARGES

@<TRIPOS>ATOM
      1 C1         -1.2453    3.3421   -1.3897 C.3       1 <0>        -0.6453
      2 S1         -0.0715    2.5846   -0.2325 S.o2      1 <0>         2.4916
      3 O1          0.0165    1.1864   -0.4698 O.2       1 <0>        -0.9206
      4 O2          1.1032    3.3785   -0.1372 O.2       1 <0>        -0.9209
      5 C2         -0.8386    2.7252    1.3475 C.ar      1 <0>        -0.6295
      6 C3         -0.6071    3.8415    2.1300 C.ar      1 <0>        -0.0036
      7 C4         -1.2108    3.9568    3.3669 C.ar      1 <0>        -0.1114
      8 C5         -2.0428    2.9457    3.8286 C.ar      1 <0>         0.1092
      9 C6         -2.2692    1.8237    3.0428 C.ar      1 <0>        -0.1072
     10 C7         -1.6664    1.7164    1.8047 C.ar      1 <0>        -0.0012
     11 N1         -2.6533    3.0577    5.0851 N.pl3     1 <0>        -0.3666
     12 C8         -3.9980    3.0034    5.3468 C.2       1 <0>         0.0879
     13 C9         -4.1473    3.1539    6.6785 C.2       1 <0>        -0.0495
     14 C10        -2.0213    3.2360    6.2836 C.cat     1 <0>         0.4029
     15 C11        -0.5605    3.3456    6.4845 C.ar      1 <0>        -0.1024
     16 C12         0.3183    2.8586    5.5158 C.ar      1 <0>        -0.0587
     17 C13         1.6800    2.9680    5.7066 C.ar      1 <0>        -0.1008
     18 C14         2.1756    3.5504    6.8610 C.ar      1 <0>         0.0148
     19 C15         1.3086    4.0306    7.8281 C.ar      1 <0>        -0.1010
     20 C16        -0.0551    3.9311    7.6462 C.ar      1 <0>        -0.0550
     21 Cl1         3.8907    3.6785    7.0971 Cl        1 <0>        -0.0200
     22 C17        -5.4574    3.1590    7.4232 C.3       1 <0>         0.3528
     23 F1         -5.3452    3.9683    8.5588 F         1 <0>        -0.1806
     24 F2         -6.4647    3.6597    6.5914 F         1 <0>        -0.1677
     25 H1         -2.1919    2.8032   -1.3518 H         1 <0>         0.1352
     26 H2         -1.4086    4.3834   -1.1120 H         1 <0>         0.1351
     27 H3         -0.8406    3.2949   -2.4007 H         1 <0>         0.1436
     28 H4          0.0432    4.6259    1.7719 H         1 <0>         0.1688
     29 H5         -1.0328    4.8308    3.9759 H         1 <0>         0.1510
     30 H6         -2.9156    1.0354    3.3995 H         1 <0>         0.1548
     31 H7         -1.8421    0.8438    1.1930 H         1 <0>         0.1695
     32 H8         -4.7881    2.8660    4.6234 H         1 <0>         0.2374
     33 H9         -0.0671    2.4005    4.6169 H         1 <0>         0.1453
     34 H10         2.3611    2.5949    4.9560 H         1 <0>         0.1591
     35 H11         1.7008    4.4835    8.7266 H         1 <0>         0.1601
     36 H12        -0.7304    4.3054    8.4014 H         1 <0>         0.1447
     37 H13        -5.7077    2.1420    7.7252 H         1 <0>         0.1594
     38 N2         -2.9353    3.2970    7.2259 N.pl3     1 <0>        -0.4656
     39 H14        -2.7482    3.4332    8.2262 H         1 <0>         0.4843
@<TRIPOS>BOND
     1    1    2 1
     2    1   25 1
     3    1   26 1
     4    1   27 1
     5    2    3 2
     6    2    4 2
     7    2    5 1
     8    5   10 ar
     9    5    6 ar
    10    6    7 ar
    11    6   28 1
    12    7    8 ar
    13    7   29 1
    14    8    9 ar
    15    8   11 1
    16    9   10 ar
    17    9   30 1
    18   10   31 1
    19   11   14 1
    20   11   12 1
    21   12   13 2
    22   12   32 1
    23   13   22 1
    24   13   38 1
    25   14   15 1
    26   14   38 2
    27   15   20 ar
    28   15   16 ar
    29   16   17 ar
    30   16   33 1
    31   17   18 ar
    32   17   34 1
    33   18   19 ar
    34   18   21 1
    35   19   20 ar
    36   19   35 1
    37   20   36 1
    38   22   23 1
    39   22   24 1
    40   22   37 1
    41   38   39 1
@<TRIPOS>MOLECULE
ZINC03814617
   38    40     0     0     0
SMALL
USER_CHARGES

@<TRIPOS>ATOM
      1 C1         -1.2453    3.3421   -1.3897 C.3       1 <0>        -0.6490
      2 S1         -0.0715    2.5846   -0.2325 S.o2      1 <0>         2.4990
      3 O1          0.0165    1.1864   -0.4698 O.2       1 <0>        -0.9309
      4 O2          1.1032    3.3785   -0.1372 O.2       1 <0>        -0.9302
      5 C2         -0.8386    2.7252    1.3475 C.ar      1 <0>        -0.6543
      6 C3         -0.6071    3.8415    2.1300 C.ar      1 <0>        -0.0072
      7 C4         -1.2108    3.9568    3.3669 C.ar      1 <0>        -0.1260
      8 C5         -2.0428    2.9457    3.8286 C.ar      1 <0>         0.1648
      9 C6         -2.2692    1.8237    3.0428 C.ar      1 <0>        -0.1313
     10 C7         -1.6664    1.7164    1.8047 C.ar      1 <0>        -0.0051
     11 N1         -2.6533    3.0577    5.0851 N.pl3     1 <0>        -0.4182
     12 C8         -3.9980    3.0034    5.3468 C.2       1 <0>        -0.0077
     13 C9         -4.1473    3.1539    6.6785 C.2       1 <0>        -0.0331
     14 N2         -2.9351    3.2971    7.2269 N.2       1 <0>        -0.4461
     15 C10        -2.0213    3.2360    6.2836 C.2       1 <0>         0.2623
     16 C11        -0.5605    3.3456    6.4845 C.ar      1 <0>        -0.0193
     17 C12         0.3183    2.8586    5.5158 C.ar      1 <0>        -0.0986
     18 C13         1.6800    2.9680    5.7066 C.ar      1 <0>        -0.1052
     19 C14         2.1756    3.5504    6.8610 C.ar      1 <0>        -0.0211
     20 C15         1.3086    4.0306    7.8281 C.ar      1 <0>        -0.1075
     21 C16        -0.0551    3.9311    7.6462 C.ar      1 <0>        -0.0609
     22 Cl1         3.8907    3.6785    7.0971 Cl        1 <0>        -0.0590
     23 C17        -5.4574    3.1590    7.4232 C.3       1 <0>         0.1513
     24 F1         -5.7786    1.8537    7.8108 F         1 <0>        -0.2076
     25 H1         -2.1919    2.8032   -1.3518 H         1 <0>         0.1329
     26 H2         -1.4086    4.3834   -1.1120 H         1 <0>         0.1331
     27 H3         -0.8406    3.2949   -2.4007 H         1 <0>         0.1368
     28 H4          0.0432    4.6259    1.7719 H         1 <0>         0.1568
     29 H5         -1.0328    4.8308    3.9759 H         1 <0>         0.1435
     30 H6         -2.9156    1.0354    3.3995 H         1 <0>         0.1449
     31 H7         -1.8421    0.8438    1.1930 H         1 <0>         0.1565
     32 H8         -4.7881    2.8660    4.6234 H         1 <0>         0.1877
     33 H9         -0.0671    2.4005    4.6169 H         1 <0>         0.1321
     34 H10         2.3611    2.5949    4.9560 H         1 <0>         0.1414
     35 H11         1.7008    4.4835    8.7266 H         1 <0>         0.1435
     36 H12        -0.7304    4.3054    8.4014 H         1 <0>         0.1466
     37 H13        -5.3699    3.7896    8.3080 H         1 <0>         0.0926
     38 H14        -6.2422    3.5491    6.7752 H         1 <0>         0.0925
@<TRIPOS>BOND
     1    1    2 1
     2    1   25 1
     3    1   26 1
     4    1   27 1
     5    2    3 2
     6    2    4 2
     7    2    5 1
     8    5   10 ar
     9    5    6 ar
    10    6    7 ar
    11    6   28 1
    12    7    8 ar
    13    7   29 1
    14    8    9 ar
    15    8   11 1
    16    9   10 ar
    17    9   30 1
    18   10   31 1
    19   11   15 1
    20   11   12 1
    21   12   13 2
    22   12   32 1
    23   13   14 1
    24   13   23 1
    25   14   15 2
    26   15   16 1
    27   16   21 ar
    28   16   17 ar
    29   17   18 ar
    30   17   33 1
    31   18   19 ar
    32   18   34 1
    33   19   20 ar
    34   19   22 1
    35   20   21 ar
    36   20   35 1
    37   21   36 1
    38   23   24 1
    39   23   37 1
    40   23   38 1
@<TRIPOS>MOLECULE
ZINC03814617
   39    41     0     0     0
SMALL
USER_CHARGES

@<TRIPOS>ATOM
      1 C1         -1.2453    3.3421   -1.3897 C.3       1 <0>        -0.6454
      2 S1         -0.0715    2.5846   -0.2325 S.o2      1 <0>         2.4918
      3 O1          0.0165    1.1864   -0.4698 O.2       1 <0>        -0.9209
      4 O2          1.1032    3.3785   -0.1372 O.2       1 <0>        -0.9213
      5 C2         -0.8386    2.7252    1.3475 C.ar      1 <0>        -0.6306
      6 C3         -0.6071    3.8415    2.1300 C.ar      1 <0>        -0.0043
      7 C4         -1.2108    3.9568    3.3669 C.ar      1 <0>        -0.1126
      8 C5         -2.0428    2.9457    3.8286 C.ar      1 <0>         0.1117
      9 C6         -2.2692    1.8237    3.0428 C.ar      1 <0>        -0.1083
     10 C7         -1.6664    1.7164    1.8047 C.ar      1 <0>        -0.0014
     11 N1         -2.6533    3.0577    5.0851 N.pl3     1 <0>        -0.3668
     12 C8         -3.9980    3.0034    5.3468 C.2       1 <0>         0.0667
     13 C9         -4.1473    3.1539    6.6785 C.2       1 <0>        -0.0090
     14 C10        -2.0213    3.2360    6.2836 C.cat     1 <0>         0.3917
     15 C11        -0.5605    3.3456    6.4845 C.ar      1 <0>        -0.0992
     16 C12         0.3183    2.8586    5.5158 C.ar      1 <0>        -0.0609
     17 C13         1.6800    2.9680    5.7066 C.ar      1 <0>        -0.1004
     18 C14         2.1756    3.5504    6.8610 C.ar      1 <0>         0.0125
     19 C15         1.3086    4.0306    7.8281 C.ar      1 <0>        -0.1011
     20 C16        -0.0551    3.9311    7.6462 C.ar      1 <0>        -0.0574
     21 Cl1         3.8907    3.6785    7.0971 Cl        1 <0>        -0.0216
     22 C17        -5.4574    3.1590    7.4232 C.3       1 <0>         0.1318
     23 F1         -5.7786    1.8537    7.8108 F         1 <0>        -0.1866
     24 H1         -2.1919    2.8032   -1.3518 H         1 <0>         0.1351
     25 H2         -1.4086    4.3834   -1.1120 H         1 <0>         0.1349
     26 H3         -0.8406    3.2949   -2.4007 H         1 <0>         0.1434
     27 H4          0.0432    4.6259    1.7719 H         1 <0>         0.1681
     28 H5         -1.0328    4.8308    3.9759 H         1 <0>         0.1503
     29 H6         -2.9156    1.0354    3.3995 H         1 <0>         0.1541
     30 H7         -1.8421    0.8438    1.1930 H         1 <0>         0.1687
     31 H8         -4.7881    2.8660    4.6234 H         1 <0>         0.2321
     32 H9         -0.0671    2.4005    4.6169 H         1 <0>         0.1445
     33 H10         2.3611    2.5949    4.9560 H         1 <0>         0.1583
     34 H11         1.7008    4.4835    8.7266 H         1 <0>         0.1591
     35 H12        -0.7304    4.3054    8.4014 H         1 <0>         0.1437
     36 H13        -5.3699    3.7896    8.3080 H         1 <0>         0.1115
     37 H14        -6.2422    3.5491    6.7752 H         1 <0>         0.1284
     38 N2         -2.9353    3.2970    7.2259 N.pl3     1 <0>        -0.4711
     39 H15        -2.7482    3.4332    8.2262 H         1 <0>         0.4803
@<TRIPOS>BOND
     1    1    2 1
     2    1   24 1
     3    1   25 1
     4    1   26 1
     5    2    3 2
     6    2    4 2
     7    2    5 1
     8    5   10 ar
     9    5    6 ar
    10    6    7 ar
    11    6   27 1
    12    7    8 ar
    13    7   28 1
    14    8    9 ar
    15    8   11 1
    16    9   10 ar
    17    9   29 1
    18   10   30 1
    19   11   14 1
    20   11   12 1
    21   12   13 2
    22   12   31 1
    23   13   22 1
    24   13   38 1
    25   14   15 1
    26   14   38 2
    27   15   20 ar
    28   15   16 ar
    29   16   17 ar
    30   16   32 1
    31   17   18 ar
    32   17   33 1
    33   18   19 ar
    34   18   21 1
    35   19   20 ar
    36   19   34 1
    37   20   35 1
    38   22   23 1
    39   22   36 1
    40   22   37 1
    41   38   39 1
@<TRIPOS>MOLECULE
ZINC03814618
   36    38     0     0     0
SMALL
USER_CHARGES

@<TRIPOS>ATOM
      1 C1         -1.2473    3.3828   -1.3895 C.3       1 <0>        -0.6490
      2 S1         -0.0731    2.6195   -0.2366 S.o2      1 <0>         2.4980
      3 O1          0.0150    1.2224   -0.4812 O.2       1 <0>        -0.9302
      4 O2          1.1015    3.4130   -0.1374 O.2       1 <0>        -0.9294
      5 C2         -0.8398    2.7517    1.3443 C.ar      1 <0>        -0.6512
      6 C3         -0.6082    3.8639    2.1326 C.ar      1 <0>        -0.0069
      7 C4         -1.2123    3.9731    3.3699 C.ar      1 <0>        -0.1221
      8 C5         -2.0441    2.9595    3.8266 C.ar      1 <0>         0.1575
      9 C6         -2.2702    1.8413    3.0351 C.ar      1 <0>        -0.1279
     10 C7         -1.6673    1.7403    1.7965 C.ar      1 <0>        -0.0053
     11 N1         -2.6546    3.0650    5.0834 N.pl3     1 <0>        -0.4117
     12 C8         -3.9926    3.0094    5.3388 C.2       1 <0>         0.0409
     13 C9         -4.1456    3.1538    6.6882 C.2       1 <0>         0.0721
     14 N2         -2.9195    3.2937    7.2333 N.2       1 <0>        -0.4284
     15 C10        -2.0175    3.2371    6.2827 C.2       1 <0>         0.2767
     16 C11        -0.5551    3.3443    6.4745 C.ar      1 <0>        -0.0247
     17 C12         0.3168    2.8555    5.5006 C.ar      1 <0>        -0.0952
     18 C13         1.6799    2.9630    5.6825 C.ar      1 <0>        -0.1056
     19 C14         2.1837    3.5451    6.8336 C.ar      1 <0>        -0.0183
     20 C15         1.3234    4.0267    7.8060 C.ar      1 <0>        -0.1077
     21 C16        -0.0415    3.9294    7.6327 C.ar      1 <0>        -0.0577
     22 Cl1         3.9004    3.6709    7.0587 Cl        1 <0>        -0.0574
     23 C17        -5.3886    3.1563    7.3992 C.1       1 <0>         0.2945
     24 N3         -6.3746    3.1582    7.9633 N.1       1 <0>        -0.3931
     25 H1         -2.1939    2.8436   -1.3541 H         1 <0>         0.1332
     26 H2         -1.4106    4.4226   -1.1063 H         1 <0>         0.1334
     27 H3         -0.8428    3.3409   -2.4008 H         1 <0>         0.1369
     28 H4          0.0424    4.6500    1.7787 H         1 <0>         0.1580
     29 H5         -1.0343    4.8439    3.9834 H         1 <0>         0.1461
     30 H6         -2.9170    1.0514    3.3875 H         1 <0>         0.1474
     31 H7         -1.8428    0.8708    1.1805 H         1 <0>         0.1576
     32 H8         -4.7810    2.8769    4.6127 H         1 <0>         0.2007
     33 H9         -0.0750    2.3977    4.6043 H         1 <0>         0.1339
     34 H10         2.3555    2.5892    4.9275 H         1 <0>         0.1424
     35 H11         1.7220    4.4790    8.7021 H         1 <0>         0.1442
     36 H12        -0.7115    4.3050    8.3919 H         1 <0>         0.1481
@<TRIPOS>BOND
     1    1    2 1
     2    1   25 1
     3    1   26 1
     4    1   27 1
     5    2    3 2
     6    2    4 2
     7    2    5 1
     8    5   10 ar
     9    5    6 ar
    10    6    7 ar
    11    6   28 1
    12    7    8 ar
    13    7   29 1
    14    8    9 ar
    15    8   11 1
    16    9   10 ar
    17    9   30 1
    18   10   31 1
    19   11   15 1
    20   11   12 1
    21   12   13 2
    22   12   32 1
    23   13   14 1
    24   13   23 1
    25   14   15 2
    26   15   16 1
    27   16   21 ar
    28   16   17 ar
    29   17   18 ar
    30   17   33 1
    31   18   19 ar
    32   18   34 1
    33   19   20 ar
    34   19   22 1
    35   20   21 ar
    36   20   35 1
    37   21   36 1
    38   23   24 3
@<TRIPOS>MOLECULE
ZINC03814618
   37    39     0     0     0
SMALL
USER_CHARGES

@<TRIPOS>ATOM
      1 C1         -1.2473    3.3828   -1.3895 C.3       1 <0>        -0.6455
      2 S1         -0.0731    2.6195   -0.2366 S.o2      1 <0>         2.4909
      3 O1          0.0150    1.2224   -0.4812 O.2       1 <0>        -0.9204
      4 O2          1.1015    3.4130   -0.1374 O.2       1 <0>        -0.9207
      5 C2         -0.8398    2.7517    1.3443 C.ar      1 <0>        -0.6284
      6 C3         -0.6082    3.8639    2.1326 C.ar      1 <0>        -0.0040
      7 C4         -1.2123    3.9731    3.3699 C.ar      1 <0>        -0.1097
      8 C5         -2.0441    2.9595    3.8266 C.ar      1 <0>         0.1062
      9 C6         -2.2702    1.8413    3.0351 C.ar      1 <0>        -0.1057
     10 C7         -1.6673    1.7403    1.7965 C.ar      1 <0>        -0.0015
     11 N1         -2.6546    3.0650    5.0834 N.pl3     1 <0>        -0.3651
     12 C8         -3.9926    3.0094    5.3388 C.2       1 <0>         0.1158
     13 C9         -4.1456    3.1538    6.6882 C.2       1 <0>         0.1173
     14 C10        -2.0175    3.2371    6.2827 C.cat     1 <0>         0.4128
     15 C11        -0.5551    3.3443    6.4745 C.ar      1 <0>        -0.1043
     16 C12         0.3168    2.8555    5.5006 C.ar      1 <0>        -0.0570
     17 C13         1.6799    2.9630    5.6825 C.ar      1 <0>        -0.1009
     18 C14         2.1837    3.5451    6.8336 C.ar      1 <0>         0.0158
     19 C15         1.3234    4.0267    7.8060 C.ar      1 <0>        -0.1016
     20 C16        -0.0415    3.9294    7.6327 C.ar      1 <0>        -0.0539
     21 Cl1         3.9004    3.6709    7.0587 Cl        1 <0>        -0.0198
     22 C17        -5.3886    3.1563    7.3992 C.1       1 <0>         0.2389
     23 N2         -6.3746    3.1582    7.9633 N.1       1 <0>        -0.2958
     24 H1         -2.1939    2.8436   -1.3541 H         1 <0>         0.1353
     25 H2         -1.4106    4.4226   -1.1063 H         1 <0>         0.1351
     26 H3         -0.8428    3.3409   -2.4008 H         1 <0>         0.1434
     27 H4          0.0424    4.6500    1.7787 H         1 <0>         0.1689
     28 H5         -1.0343    4.8439    3.9834 H         1 <0>         0.1528
     29 H6         -2.9170    1.0514    3.3875 H         1 <0>         0.1564
     30 H7         -1.8428    0.8708    1.1805 H         1 <0>         0.1695
     31 H8         -4.7810    2.8769    4.6127 H         1 <0>         0.2432
     32 H9         -0.0750    2.3977    4.6043 H         1 <0>         0.1466
     33 H10         2.3555    2.5892    4.9275 H         1 <0>         0.1593
     34 H11         1.7220    4.4790    8.7021 H         1 <0>         0.1599
     35 H12        -0.7115    4.3050    8.3919 H         1 <0>         0.1455
     36 N3         -2.9199    3.2934    7.2312 N.pl3     1 <0>        -0.4660
     37 H13        -2.7241    3.4235    8.2307 H         1 <0>         0.4866
@<TRIPOS>BOND
     1    1    2 1
     2    1   24 1
     3    1   25 1
     4    1   26 1
     5    2    3 2
     6    2    4 2
     7    2    5 1
     8    5   10 ar
     9    5    6 ar
    10    6    7 ar
    11    6   27 1
    12    7    8 ar
    13    7   28 1
    14    8    9 ar
    15    8   11 1
    16    9   10 ar
    17    9   29 1
    18   10   30 1
    19   11   14 1
    20   11   12 1
    21   12   13 2
    22   12   31 1
    23   13   22 1
    24   13   36 1
    25   14   15 1
    26   14   36 2
    27   15   20 ar
    28   15   16 ar
    29   16   17 ar
    30   16   32 1
    31   17   18 ar
    32   17   33 1
    33   18   19 ar
    34   18   21 1
    35   19   20 ar
    36   19   34 1
    37   20   35 1
    38   22   23 3
    39   36   37 1
@<TRIPOS>MOLECULE
ZINC03814619
   45    48     0     0     0
SMALL
USER_CHARGES

@<TRIPOS>ATOM
      1 C1         -1.2477    3.3736   -1.3895 C.3       1 <0>        -0.6492
      2 S1         -0.0735    2.6115   -0.2358 S.o2      1 <0>         2.4990
      3 O1          0.0145    1.2142   -0.4788 O.2       1 <0>        -0.9312
      4 O2          1.1011    3.4052   -0.1376 O.2       1 <0>        -0.9304
      5 C2         -0.8401    2.7456    1.3450 C.ar      1 <0>        -0.6551
      6 C3         -0.6085    3.8588    2.1320 C.ar      1 <0>        -0.0068
      7 C4         -1.2125    3.9694    3.3692 C.ar      1 <0>        -0.1265
      8 C5         -2.0440    2.9561    3.8273 C.ar      1 <0>         0.1670
      9 C6         -2.2701    1.8370    3.0371 C.ar      1 <0>        -0.1322
     10 C7         -1.6677    1.7348    1.7985 C.ar      1 <0>        -0.0051
     11 N1         -2.6532    3.0625    5.0845 N.pl3     1 <0>        -0.4173
     12 C8         -3.9959    3.0062    5.3441 C.2       1 <0>        -0.0204
     13 C9         -4.1453    3.1523    6.6882 C.2       1 <0>         0.0551
     14 N2         -2.9227    3.2939    7.2323 N.2       1 <0>        -0.4495
     15 C10        -2.0174    3.2361    6.2825 C.2       1 <0>         0.2631
     16 C11        -0.5555    3.3448    6.4759 C.ar      1 <0>        -0.0183
     17 C12         0.3180    2.8572    5.5028 C.ar      1 <0>        -0.0990
     18 C13         1.6807    2.9661    5.6863 C.ar      1 <0>        -0.1053
     19 C14         2.1826    3.5480    6.8383 C.ar      1 <0>        -0.0216
     20 C15         1.3208    4.0289    7.8097 C.ar      1 <0>        -0.1076
     21 C16        -0.0438    3.9303    7.6349 C.ar      1 <0>        -0.0612
     22 Cl1         3.8990    3.6746    7.0659 Cl        1 <0>        -0.0596
     23 C17        -5.4325    3.1550    7.4261 C.ar      1 <0>        -0.0084
     24 C18        -6.6341    3.0037    6.7367 C.ar      1 <0>        -0.1096
     25 C19        -7.8282    3.0022    7.4288 C.ar      1 <0>        -0.1183
     26 C20        -7.8343    3.1609    8.8029 C.ar      1 <0>        -0.1171
     27 C21        -6.6449    3.3167    9.4917 C.ar      1 <0>        -0.1191
     28 C22        -5.4446    3.3145    8.8105 C.ar      1 <0>        -0.0918
     29 H1         -2.1944    2.8344   -1.3534 H         1 <0>         0.1329
     30 H2         -1.4111    4.4137   -1.1075 H         1 <0>         0.1331
     31 H3         -0.8434    3.3305   -2.4008 H         1 <0>         0.1366
     32 H4          0.0418    4.6446    1.7770 H         1 <0>         0.1564
     33 H5         -1.0347    4.8411    3.9815 H         1 <0>         0.1433
     34 H6         -2.9166    1.0474    3.3906 H         1 <0>         0.1445
     35 H7         -1.8435    0.8647    1.1832 H         1 <0>         0.1561
     36 H8         -4.7858    2.8719    4.6200 H         1 <0>         0.1859
     37 H9         -0.0723    2.3991    4.6060 H         1 <0>         0.1322
     38 H10         2.3577    2.5932    4.9319 H         1 <0>         0.1411
     39 H11         1.7180    4.4817    8.7062 H         1 <0>         0.1430
     40 H12        -0.7150    4.3050    8.3935 H         1 <0>         0.1463
     41 H13        -6.6307    2.8839    5.6634 H         1 <0>         0.1211
     42 H14        -8.7598    2.8813    6.8960 H         1 <0>         0.1252
     43 H15        -8.7713    3.1629    9.3401 H         1 <0>         0.1233
     44 H16        -6.6556    3.4406   10.5645 H         1 <0>         0.1252
     45 H17        -4.5165    3.4358    9.3493 H         1 <0>         0.1306
@<TRIPOS>BOND
     1    1    2 1
     2    1   29 1
     3    1   30 1
     4    1   31 1
     5    2    3 2
     6    2    4 2
     7    2    5 1
     8    5   10 ar
     9    5    6 ar
    10    6    7 ar
    11    6   32 1
    12    7    8 ar
    13    7   33 1
    14    8    9 ar
    15    8   11 1
    16    9   10 ar
    17    9   34 1
    18   10   35 1
    19   11   15 1
    20   11   12 1
    21   12   13 2
    22   12   36 1
    23   13   14 1
    24   13   23 1
    25   14   15 2
    26   15   16 1
    27   16   21 ar
    28   16   17 ar
    29   17   18 ar
    30   17   37 1
    31   18   19 ar
    32   18   38 1
    33   19   20 ar
    34   19   22 1
    35   20   21 ar
    36   20   39 1
    37   21   40 1
    38   23   28 ar
    39   23   24 ar
    40   24   25 ar
    41   24   41 1
    42   25   26 ar
    43   25   42 1
    44   26   27 ar
    45   26   43 1
    46   27   28 ar
    47   27   44 1
    48   28   45 1
@<TRIPOS>MOLECULE
ZINC03814619
   46    49     0     0     0
SMALL
USER_CHARGES

@<TRIPOS>ATOM
      1 C1         -1.2477    3.3736   -1.3895 C.3       1 <0>        -0.6457
      2 S1         -0.0735    2.6115   -0.2358 S.o2      1 <0>         2.4921
      3 O1          0.0145    1.2142   -0.4788 O.2       1 <0>        -0.9214
      4 O2          1.1011    3.4052   -0.1376 O.2       1 <0>        -0.9216
      5 C2         -0.8401    2.7456    1.3450 C.ar      1 <0>        -0.6319
      6 C3         -0.6085    3.8588    2.1320 C.ar      1 <0>        -0.0042
      7 C4         -1.2125    3.9694    3.3692 C.ar      1 <0>        -0.1131
      8 C5         -2.0440    2.9561    3.8273 C.ar      1 <0>         0.1147
      9 C6         -2.2701    1.8370    3.0371 C.ar      1 <0>        -0.1092
     10 C7         -1.6677    1.7348    1.7985 C.ar      1 <0>        -0.0017
     11 N1         -2.6532    3.0625    5.0845 N.pl3     1 <0>        -0.3606
     12 C8         -3.9959    3.0062    5.3441 C.2       1 <0>         0.0360
     13 C9         -4.1453    3.1523    6.6882 C.2       1 <0>         0.1057
     14 C10        -2.0174    3.2361    6.2825 C.cat     1 <0>         0.3825
     15 C11        -0.5555    3.3448    6.4759 C.ar      1 <0>        -0.0948
     16 C12         0.3180    2.8572    5.5028 C.ar      1 <0>        -0.0627
     17 C13         1.6807    2.9661    5.6863 C.ar      1 <0>        -0.0999
     18 C14         2.1826    3.5480    6.8383 C.ar      1 <0>         0.0104
     19 C15         1.3208    4.0289    7.8097 C.ar      1 <0>        -0.1006
     20 C16        -0.0438    3.9303    7.6349 C.ar      1 <0>        -0.0598
     21 Cl1         3.8990    3.6746    7.0659 Cl        1 <0>        -0.0234
     22 C17        -5.4325    3.1550    7.4261 C.ar      1 <0>        -0.0627
     23 C18        -6.6341    3.0037    6.7367 C.ar      1 <0>        -0.0825
     24 C19        -7.8282    3.0022    7.4288 C.ar      1 <0>        -0.1068
     25 C20        -7.8343    3.1609    8.8029 C.ar      1 <0>        -0.0851
     26 C21        -6.6449    3.3167    9.4917 C.ar      1 <0>        -0.1064
     27 C22        -5.4446    3.3145    8.8105 C.ar      1 <0>        -0.1010
     28 H1         -2.1944    2.8344   -1.3534 H         1 <0>         0.1350
     29 H2         -1.4111    4.4137   -1.1075 H         1 <0>         0.1348
     30 H3         -0.8434    3.3305   -2.4008 H         1 <0>         0.1430
     31 H4          0.0418    4.6446    1.7770 H         1 <0>         0.1676
     32 H5         -1.0347    4.8411    3.9815 H         1 <0>         0.1502
     33 H6         -2.9166    1.0474    3.3906 H         1 <0>         0.1538
     34 H7         -1.8435    0.8647    1.1832 H         1 <0>         0.1681
     35 H8         -4.7858    2.8719    4.6200 H         1 <0>         0.2284
     36 H9         -0.0723    2.3991    4.6060 H         1 <0>         0.1444
     37 H10         2.3577    2.5932    4.9319 H         1 <0>         0.1577
     38 H11         1.7180    4.4817    8.7062 H         1 <0>         0.1583
     39 H12        -0.7150    4.3050    8.3935 H         1 <0>         0.1426
     40 H13        -6.6307    2.8839    5.6634 H         1 <0>         0.1333
     41 H14        -8.7598    2.8813    6.8960 H         1 <0>         0.1408
     42 H15        -8.7713    3.1629    9.3401 H         1 <0>         0.1385
     43 H16        -6.6556    3.4406   10.5645 H         1 <0>         0.1388
     44 H17        -4.5165    3.4358    9.3493 H         1 <0>         0.1210
     45 N2         -2.9230    3.2937    7.2308 N.pl3     1 <0>        -0.4796
     46 H18        -2.7287    3.4260    8.2302 H         1 <0>         0.4767
@<TRIPOS>BOND
     1    1    2 1
     2    1   28 1
     3    1   29 1
     4    1   30 1
     5    2    3 2
     6    2    4 2
     7    2    5 1
     8    5   10 ar
     9    5    6 ar
    10    6    7 ar
    11    6   31 1
    12    7    8 ar
    13    7   32 1
    14    8    9 ar
    15    8   11 1
    16    9   10 ar
    17    9   33 1
    18   10   34 1
    19   11   14 1
    20   11   12 1
    21   12   13 2
    22   12   35 1
    23   13   22 1
    24   13   45 1
    25   14   15 1
    26   14   45 2
    27   15   20 ar
    28   15   16 ar
    29   16   17 ar
    30   16   36 1
    31   17   18 ar
    32   17   37 1
    33   18   19 ar
    34   18   21 1
    35   19   20 ar
    36   19   38 1
    37   20   39 1
    38   22   27 ar
    39   22   23 ar
    40   23   24 ar
    41   23   40 1
    42   24   25 ar
    43   24   41 1
    44   25   26 ar
    45   25   42 1
    46   26   27 ar
    47   26   43 1
    48   27   44 1
    49   45   46 1
@<TRIPOS>MOLECULE
ZINC03814620
   37    39     0     0     0
SMALL
USER_CHARGES

@<TRIPOS>ATOM
      1 C1         -1.2408    3.2834   -1.3897 C.3       1 <0>        -0.6490
      2 S1         -0.0687    2.5330   -0.2263 S.o2      1 <0>         2.4954
      3 O1          0.0174    1.1328   -0.4530 O.2       1 <0>        -0.9285
      4 O2          1.1070    3.3259   -0.1362 O.2       1 <0>        -0.9265
      5 C2         -0.8365    2.6864    1.3522 C.ar      1 <0>        -0.6489
      6 C3         -0.6039    3.8082    2.1265 C.ar      1 <0>        -0.0038
      7 C4         -1.2081    3.9335    3.3622 C.ar      1 <0>        -0.1272
      8 C5         -2.0415    2.9269    3.8312 C.ar      1 <0>         0.1518
      9 C6         -2.2689    1.7993    3.0536 C.ar      1 <0>        -0.1266
     10 C7         -1.6660    1.6821    1.8165 C.ar      1 <0>        -0.0028
     11 N1         -2.6522    3.0489    5.0866 N.pl3     1 <0>        -0.4107
     12 C8         -3.9968    2.9977    5.3483 C.2       1 <0>         0.0428
     13 C9         -4.1462    3.1584    6.6790 C.2       1 <0>        -0.0802
     14 N2         -2.9341    3.3046    7.2265 N.2       1 <0>        -0.4207
     15 C10        -2.0202    3.2356    6.2838 C.2       1 <0>         0.2771
     16 C11        -0.5593    3.3454    6.4842 C.ar      1 <0>        -0.0731
     17 C12         0.3298    2.8603    5.5182 C.ar      1 <0>        -0.0366
     18 C13         1.6881    2.9925    5.7514 C.ar      1 <0>        -0.1466
     19 C14         2.1189    3.5848    6.9262 C.ar      1 <0>         0.1516
     20 N3          1.2570    4.0278    7.8209 N.ar      1 <0>        -0.4644
     21 C15        -0.0441    3.9292    7.6420 C.ar      1 <0>         0.1662
     22 Br1         2.9413    2.3644    4.4822 Br        1 <0>        -0.0125
     23 C16        -5.4565    3.1706    7.4233 C.3       1 <0>         0.5576
     24 F1         -5.7793    1.8686    7.8206 F         1 <0>        -0.1693
     25 F2         -5.3436    3.9883    8.5528 F         1 <0>        -0.1629
     26 F3         -6.4630    3.6662    6.5875 F         1 <0>        -0.1707
     27 H1         -2.1883    2.7461   -1.3483 H         1 <0>         0.1336
     28 H2         -1.4029    4.3270   -1.1199 H         1 <0>         0.1337
     29 H3         -0.8356    3.2281   -2.4001 H         1 <0>         0.1377
     30 H4          0.0479    4.5888    1.7631 H         1 <0>         0.1593
     31 H5         -1.0291    4.8116    3.9649 H         1 <0>         0.1441
     32 H6         -2.9169    1.0148    3.4156 H         1 <0>         0.1478
     33 H7         -1.8428    0.8054    1.2111 H         1 <0>         0.1594
     34 H8         -4.7868    2.8553    4.6258 H         1 <0>         0.2015
     35 H9         -0.0343    2.3984    4.6124 H         1 <0>         0.1469
     36 H10         3.1779    3.6860    7.1129 H         1 <0>         0.1748
     37 H11        -0.7182    4.3038    8.3980 H         1 <0>         0.1795
@<TRIPOS>BOND
     1    1    2 1
     2    1   27 1
     3    1   28 1
     4    1   29 1
     5    2    3 2
     6    2    4 2
     7    2    5 1
     8    5   10 ar
     9    5    6 ar
    10    6    7 ar
    11    6   30 1
    12    7    8 ar
    13    7   31 1
    14    8    9 ar
    15    8   11 1
    16    9   10 ar
    17    9   32 1
    18   10   33 1
    19   11   15 1
    20   11   12 1
    21   12   13 2
    22   12   34 1
    23   13   14 1
    24   13   23 1
    25   14   15 2
    26   15   16 1
    27   16   21 ar
    28   16   17 ar
    29   17   18 ar
    30   17   35 1
    31   18   19 ar
    32   18   22 1
    33   19   20 ar
    34   19   36 1
    35   20   21 ar
    36   21   37 1
    37   23   24 1
    38   23   25 1
    39   23   26 1
@<TRIPOS>MOLECULE
ZINC03814620
   38    40     0     0     0
SMALL
USER_CHARGES

@<TRIPOS>ATOM
      1 C1         -1.2408    3.2834   -1.3897 C.3       1 <0>        -0.6452
      2 S1         -0.0687    2.5330   -0.2263 S.o2      1 <0>         2.4878
      3 O1          0.0174    1.1328   -0.4530 O.2       1 <0>        -0.9184
      4 O2          1.1070    3.3259   -0.1362 O.2       1 <0>        -0.9177
      5 C2         -0.8365    2.6864    1.3522 C.ar      1 <0>        -0.6260
      6 C3         -0.6039    3.8082    2.1265 C.ar      1 <0>        -0.0011
      7 C4         -1.2081    3.9335    3.3622 C.ar      1 <0>        -0.1150
      8 C5         -2.0415    2.9269    3.8312 C.ar      1 <0>         0.0992
      9 C6         -2.2689    1.7993    3.0536 C.ar      1 <0>        -0.1040
     10 C7         -1.6660    1.6821    1.8165 C.ar      1 <0>         0.0013
     11 N1         -2.6522    3.0489    5.0866 N.pl3     1 <0>        -0.3634
     12 C8         -3.9968    2.9977    5.3483 C.2       1 <0>         0.1241
     13 C9         -4.1462    3.1584    6.6790 C.2       1 <0>        -0.0672
     14 C10        -2.0202    3.2356    6.2838 C.cat     1 <0>         0.4178
     15 C11        -0.5593    3.3454    6.4842 C.ar      1 <0>        -0.1549
     16 C12         0.3298    2.8603    5.5182 C.ar      1 <0>        -0.0001
     17 C13         1.6881    2.9925    5.7514 C.ar      1 <0>        -0.1481
     18 C14         2.1189    3.5848    6.9262 C.ar      1 <0>         0.1961
     19 N2          1.2570    4.0278    7.8209 N.ar      1 <0>        -0.4510
     20 C15        -0.0441    3.9292    7.6420 C.ar      1 <0>         0.1779
     21 Br1         2.9413    2.3644    4.4822 Br        1 <0>         0.0252
     22 C16        -5.4565    3.1706    7.4233 C.3       1 <0>         0.5540
     23 F1         -5.7793    1.8686    7.8206 F         1 <0>        -0.1460
     24 F2         -5.3436    3.9883    8.5528 F         1 <0>        -0.1555
     25 F3         -6.4630    3.6662    6.5875 F         1 <0>        -0.1420
     26 H1         -2.1883    2.7461   -1.3483 H         1 <0>         0.1358
     27 H2         -1.4029    4.3270   -1.1199 H         1 <0>         0.1356
     28 H3         -0.8356    3.2281   -2.4001 H         1 <0>         0.1444
     29 H4          0.0479    4.5888    1.7631 H         1 <0>         0.1708
     30 H5         -1.0291    4.8116    3.9649 H         1 <0>         0.1514
     31 H6         -2.9169    1.0148    3.4156 H         1 <0>         0.1573
     32 H7         -1.8428    0.8054    1.2111 H         1 <0>         0.1719
     33 H8         -4.7868    2.8553    4.6258 H         1 <0>         0.2457
     34 H9         -0.0343    2.3984    4.6124 H         1 <0>         0.1599
     35 H10         3.1779    3.6860    7.1129 H         1 <0>         0.1925
     36 H11        -0.7182    4.3038    8.3980 H         1 <0>         0.1756
     37 N3         -2.9343    3.3045    7.2255 N.pl3     1 <0>        -0.4573
     38 H12        -2.7473    3.4480    8.2248 H         1 <0>         0.4885
@<TRIPOS>BOND
     1    1    2 1
     2    1   26 1
     3    1   27 1
     4    1   28 1
     5    2    3 2
     6    2    4 2
     7    2    5 1
     8    5   10 ar
     9    5    6 ar
    10    6    7 ar
    11    6   29 1
    12    7    8 ar
    13    7   30 1
    14    8    9 ar
    15    8   11 1
    16    9   10 ar
    17    9   31 1
    18   10   32 1
    19   11   14 1
    20   11   12 1
    21   12   13 2
    22   12   33 1
    23   13   22 1
    24   13   37 1
    25   14   15 1
    26   14   37 2
    27   15   20 ar
    28   15   16 ar
    29   16   17 ar
    30   16   34 1
    31   17   18 ar
    32   17   21 1
    33   18   19 ar
    34   18   35 1
    35   19   20 ar
    36   20   36 1
    37   22   23 1
    38   22   24 1
    39   22   25 1
    40   37   38 1
@<TRIPOS>MOLECULE
ZINC03814621
   36    38     0     0     0
SMALL
USER_CHARGES

@<TRIPOS>ATOM
      1 C1          0.6473    4.3701    7.7449 C.ar      1 <0>        -0.1672
      2 C2         -0.7100    4.2624    7.4966 C.ar      1 <0>        -0.0269
      3 C3         -1.1207    3.6177    6.3244 C.ar      1 <0>        -0.0833
      4 C4         -0.1508    3.1070    5.4607 C.ar      1 <0>         0.1161
      5 N1          1.1296    3.2391    5.7385 N.ar      1 <0>        -0.4739
      6 C5          1.5458    3.8423    6.8356 C.ar      1 <0>         0.1155
      7 C6         -2.5583    3.4746    6.0093 C.2       1 <0>         0.2812
      8 N2         -3.5481    3.5658    6.8698 N.2       1 <0>        -0.4263
      9 C7         -4.7085    3.3762    6.2311 C.2       1 <0>        -0.0817
     10 C8         -4.4470    3.1643    4.9252 C.2       1 <0>         0.0393
     11 N3         -3.0861    3.2284    4.7730 N.pl3     1 <0>        -0.4124
     12 C9         -2.3719    3.0663    3.5783 C.ar      1 <0>         0.1557
     13 C10        -2.5182    1.9043    2.8325 C.ar      1 <0>        -0.1278
     14 C11        -1.8132    1.7476    1.6552 C.ar      1 <0>         0.0023
     15 C12        -0.9627    2.7467    1.2188 C.ar      1 <0>        -0.6696
     16 C13        -0.8108    3.9029    1.9620 C.ar      1 <0>        -0.0018
     17 C14        -1.5168    4.0675    3.1377 C.ar      1 <0>        -0.1250
     18 S1         -0.0650    2.5431   -0.2837 S.o2      1 <0>         2.7028
     19 O1          0.0381    1.1439   -0.5087 O.2       1 <0>        -0.9511
     20 O2          1.0753    3.3862   -0.1929 O.2       1 <0>        -0.9475
     21 N4         -1.0068    3.1504   -1.5029 N.pl3     1 <0>        -1.2419
     22 C15        -6.0760    3.3961    6.8640 C.3       1 <0>         0.5576
     23 F1         -6.4127    2.1059    7.2874 F         1 <0>        -0.1697
     24 F2         -6.0684    4.2607    7.9637 F         1 <0>        -0.1640
     25 F3         -7.0165    3.8400    5.9282 F         1 <0>        -0.1710
     26 H1          1.0011    4.8608    8.6396 H         1 <0>         0.1479
     27 H2         -1.4335    4.6659    8.1895 H         1 <0>         0.1502
     28 H3         -0.4528    2.6028    4.5546 H         1 <0>         0.1537
     29 H4          2.6056    3.9250    7.0269 H         1 <0>         0.1658
     30 H5         -5.1723    2.9787    4.1468 H         1 <0>         0.2005
     31 H6         -3.1828    1.1239    3.1725 H         1 <0>         0.1479
     32 H7         -1.9266    0.8440    1.0747 H         1 <0>         0.1583
     33 H8         -0.1427    4.6798    1.6207 H         1 <0>         0.1579
     34 H9         -1.4009    4.9725    3.7156 H         1 <0>         0.1438
     35 H10        -1.2877    2.5748   -2.2314 H         1 <0>         0.4248
     36 H11        -1.2777    4.0817   -1.4885 H         1 <0>         0.4201
@<TRIPOS>BOND
     1    1    6 ar
     2    1    2 ar
     3    1   26 1
     4    2    3 ar
     5    2   27 1
     6    3    4 ar
     7    3    7 1
     8    4    5 ar
     9    4   28 1
    10    5    6 ar
    11    6   29 1
    12    7   11 1
    13    7    8 2
    14    8    9 1
    15    9   10 2
    16    9   22 1
    17   10   11 1
    18   10   30 1
    19   11   12 1
    20   12   17 ar
    21   12   13 ar
    22   13   14 ar
    23   13   31 1
    24   14   15 ar
    25   14   32 1
    26   15   16 ar
    27   15   18 1
    28   16   17 ar
    29   16   33 1
    30   17   34 1
    31   18   19 2
    32   18   20 2
    33   18   21 1
    34   21   35 1
    35   21   36 1
    36   22   23 1
    37   22   24 1
    38   22   25 1
@<TRIPOS>MOLECULE
ZINC03814621
   37    39     0     0     0
SMALL
USER_CHARGES

@<TRIPOS>ATOM
      1 C1          0.6473    4.3701    7.7449 C.ar      1 <0>        -0.1572
      2 C2         -0.7100    4.2624    7.4966 C.ar      1 <0>        -0.0221
      3 C3         -1.1207    3.6177    6.3244 C.ar      1 <0>        -0.1658
      4 C4         -0.1508    3.1070    5.4607 C.ar      1 <0>         0.1629
      5 N1          1.1296    3.2391    5.7385 N.ar      1 <0>        -0.4627
      6 C5          1.5458    3.8423    6.8356 C.ar      1 <0>         0.1645
      7 C6         -2.5583    3.4746    6.0093 C.cat     1 <0>         0.4219
      8 C7         -4.7085    3.3762    6.2311 C.2       1 <0>        -0.0705
      9 C8         -4.4470    3.1643    4.9252 C.2       1 <0>         0.1228
     10 N2         -3.0861    3.2284    4.7730 N.pl3     1 <0>        -0.3664
     11 C9         -2.3719    3.0663    3.5783 C.ar      1 <0>         0.1035
     12 C10        -2.5182    1.9043    2.8325 C.ar      1 <0>        -0.1054
     13 C11        -1.8132    1.7476    1.6552 C.ar      1 <0>         0.0068
     14 C12        -0.9627    2.7467    1.2188 C.ar      1 <0>        -0.6464
     15 C13        -0.8108    3.9029    1.9620 C.ar      1 <0>         0.0018
     16 C14        -1.5168    4.0675    3.1377 C.ar      1 <0>        -0.1130
     17 S1         -0.0650    2.5431   -0.2837 S.o2      1 <0>         2.6970
     18 O1          0.0381    1.1439   -0.5087 O.2       1 <0>        -0.9404
     19 O2          1.0753    3.3862   -0.1929 O.2       1 <0>        -0.9372
     20 N3         -1.0068    3.1504   -1.5029 N.pl3     1 <0>        -1.2377
     21 C15        -6.0760    3.3961    6.8640 C.3       1 <0>         0.5540
     22 F1         -6.4127    2.1059    7.2874 F         1 <0>        -0.1466
     23 F2         -6.0684    4.2607    7.9637 F         1 <0>        -0.1567
     24 F3         -7.0165    3.8400    5.9282 F         1 <0>        -0.1424
     25 H1          1.0011    4.8608    8.6396 H         1 <0>         0.1659
     26 H2         -1.4335    4.6659    8.1895 H         1 <0>         0.1500
     27 H3         -0.4528    2.6028    4.5546 H         1 <0>         0.1663
     28 H4          2.6056    3.9250    7.0269 H         1 <0>         0.1843
     29 H5         -5.1723    2.9787    4.1468 H         1 <0>         0.2447
     30 H6         -3.1828    1.1239    3.1725 H         1 <0>         0.1572
     31 H7         -1.9266    0.8440    1.0747 H         1 <0>         0.1707
     32 H8         -0.1427    4.6798    1.6207 H         1 <0>         0.1693
     33 H9         -1.4009    4.9725    3.7156 H         1 <0>         0.1508
     34 H10        -1.2877    2.5748   -2.2314 H         1 <0>         0.4289
     35 H11        -1.2777    4.0817   -1.4885 H         1 <0>         0.4216
     36 N4         -3.5482    3.5656    6.8688 N.pl3     1 <0>        -0.4612
     37 H12        -3.4467    3.7529    7.8732 H         1 <0>         0.4866
@<TRIPOS>BOND
     1    1    6 ar
     2    1    2 ar
     3    1   25 1
     4    2    3 ar
     5    2   26 1
     6    3    4 ar
     7    3    7 1
     8    4    5 ar
     9    4   27 1
    10    5    6 ar
    11    6   28 1
    12    7   10 1
    13    7   36 2
    14    8    9 2
    15    8   21 1
    16    8   36 1
    17    9   10 1
    18    9   29 1
    19   10   11 1
    20   11   16 ar
    21   11   12 ar
    22   12   13 ar
    23   12   30 1
    24   13   14 ar
    25   13   31 1
    26   14   15 ar
    27   14   17 1
    28   15   16 ar
    29   15   32 1
    30   16   33 1
    31   17   18 2
    32   17   19 2
    33   17   20 1
    34   20   34 1
    35   20   35 1
    36   21   22 1
    37   21   23 1
    38   21   24 1
    39   36   37 1
@<TRIPOS>MOLECULE
ZINC03814622
   36    38     0     0     0
SMALL
USER_CHARGES

@<TRIPOS>ATOM
      1 C1         -2.5182    1.8936    2.8381 C.ar      1 <0>        -0.1279
      2 C2         -1.8134    1.7327    1.6612 C.ar      1 <0>         0.0036
      3 C3         -0.9620    2.7297    1.2217 C.ar      1 <0>        -0.6656
      4 C4         -0.8095    3.8882    1.9611 C.ar      1 <0>         0.0024
      5 C5         -1.5156    4.0572    3.1361 C.ar      1 <0>        -0.1286
      6 C6         -2.3712    3.0579    3.5800 C.ar      1 <0>         0.1584
      7 N1         -3.0854    3.2244    4.7742 N.pl3     1 <0>        -0.4121
      8 C7         -4.4462    3.1615    4.9267 C.2       1 <0>         0.0431
      9 C8         -4.7075    3.3778    6.2320 C.2       1 <0>        -0.0794
     10 N2         -3.5470    3.5688    6.8700 N.2       1 <0>        -0.4200
     11 C9         -2.5573    3.4743    6.0097 C.2       1 <0>         0.2777
     12 C10        -1.1196    3.6179    6.3242 C.ar      1 <0>        -0.0734
     13 C11        -0.1471    3.1063    5.4573 C.ar      1 <0>        -0.0371
     14 C12         1.1853    3.2720    5.7950 C.ar      1 <0>        -0.1466
     15 C13         1.5093    3.9225    6.9733 C.ar      1 <0>         0.1522
     16 N3          0.5703    4.3894    7.7734 N.ar      1 <0>        -0.4640
     17 C14        -0.7100    4.2607    7.4928 C.ar      1 <0>         0.1668
     18 Br1         2.5477    2.6104    4.6627 Br        1 <0>        -0.0129
     19 C15        -6.0750    3.4001    6.8649 C.3       1 <0>         0.5576
     20 F1         -6.4119    2.1114    7.2927 F         1 <0>        -0.1691
     21 F2         -6.0671    4.2684    7.9618 F         1 <0>        -0.1628
     22 F3         -7.0154    3.8412    5.9278 F         1 <0>        -0.1705
     23 S1         -0.0641    2.5205   -0.2798 S.o2      1 <0>         2.6994
     24 O1          0.0380    1.1204   -0.5002 O.2       1 <0>        -0.9536
     25 O2          1.0768    3.3630   -0.1916 O.2       1 <0>        -0.9516
     26 N4         -1.0052    3.1245   -1.5013 N.pl3     1 <0>        -1.2480
     27 H1         -3.1833    1.1147    3.1807 H         1 <0>         0.1496
     28 H2         -1.9276    0.8274    1.0835 H         1 <0>         0.1608
     29 H3         -0.1404    4.6633    1.6176 H         1 <0>         0.1606
     30 H4         -1.3990    4.9639    3.7112 H         1 <0>         0.1459
     31 H5         -5.1717    2.9740    4.1489 H         1 <0>         0.2021
     32 H6         -0.4287    2.5988    4.5464 H         1 <0>         0.1463
     33 H7          2.5477    4.0501    7.2416 H         1 <0>         0.1751
     34 H8         -1.4495    4.6565    8.1732 H         1 <0>         0.1798
     35 H9         -1.8766    3.5006   -1.3014 H         1 <0>         0.4175
     36 H10        -0.6849    3.1021   -2.4166 H         1 <0>         0.4245
@<TRIPOS>BOND
     1    1    6 ar
     2    1    2 ar
     3    1   27 1
     4    2    3 ar
     5    2   28 1
     6    3    4 ar
     7    3   23 1
     8    4    5 ar
     9    4   29 1
    10    5    6 ar
    11    5   30 1
    12    6    7 1
    13    7   11 1
    14    7    8 1
    15    8    9 2
    16    8   31 1
    17    9   10 1
    18    9   19 1
    19   10   11 2
    20   11   12 1
    21   12   17 ar
    22   12   13 ar
    23   13   14 ar
    24   13   32 1
    25   14   15 ar
    26   14   18 1
    27   15   16 ar
    28   15   33 1
    29   16   17 ar
    30   17   34 1
    31   19   20 1
    32   19   21 1
    33   19   22 1
    34   23   24 2
    35   23   25 2
    36   23   26 1
    37   26   35 1
    38   26   36 1
@<TRIPOS>MOLECULE
ZINC03814622
   37    39     0     0     0
SMALL
USER_CHARGES

@<TRIPOS>ATOM
      1 C1         -2.5182    1.8936    2.8381 C.ar      1 <0>        -0.1053
      2 C2         -1.8134    1.7327    1.6612 C.ar      1 <0>         0.0081
      3 C3         -0.9620    2.7297    1.2217 C.ar      1 <0>        -0.6433
      4 C4         -0.8095    3.8882    1.9611 C.ar      1 <0>         0.0054
      5 C5         -1.5156    4.0572    3.1361 C.ar      1 <0>        -0.1166
      6 C6         -2.3712    3.0579    3.5800 C.ar      1 <0>         0.1061
      7 N1         -3.0854    3.2244    4.7742 N.pl3     1 <0>        -0.3652
      8 C7         -4.4462    3.1615    4.9267 C.2       1 <0>         0.1243
      9 C8         -4.7075    3.3778    6.2320 C.2       1 <0>        -0.0666
     10 C9         -2.5573    3.4743    6.0097 C.cat     1 <0>         0.4186
     11 C10        -1.1196    3.6179    6.3242 C.ar      1 <0>        -0.1552
     12 C11        -0.1471    3.1063    5.4573 C.ar      1 <0>        -0.0007
     13 C12         1.1853    3.2720    5.7950 C.ar      1 <0>        -0.1480
     14 C13         1.5093    3.9225    6.9733 C.ar      1 <0>         0.1967
     15 N2          0.5703    4.3894    7.7734 N.ar      1 <0>        -0.4507
     16 C14        -0.7100    4.2607    7.4928 C.ar      1 <0>         0.1786
     17 Br1         2.5477    2.6104    4.6627 Br        1 <0>         0.0248
     18 C15        -6.0750    3.4001    6.8649 C.3       1 <0>         0.5540
     19 F1         -6.4119    2.1114    7.2927 F         1 <0>        -0.1459
     20 F2         -6.0671    4.2684    7.9618 F         1 <0>        -0.1553
     21 F3         -7.0154    3.8412    5.9278 F         1 <0>        -0.1418
     22 S1         -0.0641    2.5205   -0.2798 S.o2      1 <0>         2.6950
     23 O1          0.0380    1.1204   -0.5002 O.2       1 <0>        -0.9425
     24 O2          1.0768    3.3630   -0.1916 O.2       1 <0>        -0.9418
     25 N3         -1.0052    3.1245   -1.5013 N.pl3     1 <0>        -1.2447
     26 H1         -3.1833    1.1147    3.1807 H         1 <0>         0.1592
     27 H2         -1.9276    0.8274    1.0835 H         1 <0>         0.1734
     28 H3         -0.1404    4.6633    1.6176 H         1 <0>         0.1723
     29 H4         -1.3990    4.9639    3.7112 H         1 <0>         0.1532
     30 H5         -5.1717    2.9740    4.1489 H         1 <0>         0.2462
     31 H6         -0.4287    2.5988    4.5464 H         1 <0>         0.1593
     32 H7          2.5477    4.0501    7.2416 H         1 <0>         0.1928
     33 H8         -1.4495    4.6565    8.1732 H         1 <0>         0.1759
     34 H9         -1.8766    3.5006   -1.3014 H         1 <0>         0.4177
     35 H10        -0.6849    3.1021   -2.4166 H         1 <0>         0.4297
     36 N4         -3.5471    3.5686    6.8690 N.pl3     1 <0>        -0.4569
     37 H11        -3.4455    3.7591    7.8728 H         1 <0>         0.4888
@<TRIPOS>BOND
     1    1    6 ar
     2    1    2 ar
     3    1   26 1
     4    2    3 ar
     5    2   27 1
     6    3    4 ar
     7    3   22 1
     8    4    5 ar
     9    4   28 1
    10    5    6 ar
    11    5   29 1
    12    6    7 1
    13    7   10 1
    14    7    8 1
    15    8    9 2
    16    8   30 1
    17    9   18 1
    18    9   36 1
    19   10   11 1
    20   10   36 2
    21   11   16 ar
    22   11   12 ar
    23   12   13 ar
    24   12   31 1
    25   13   14 ar
    26   13   17 1
    27   14   15 ar
    28   14   32 1
    29   15   16 ar
    30   16   33 1
    31   18   19 1
    32   18   20 1
    33   18   21 1
    34   22   23 2
    35   22   24 2
    36   22   25 1
    37   25   34 1
    38   25   35 1
    39   36   37 1
@<TRIPOS>MOLECULE
ZINC03814623
   40    42     0     0     0
SMALL
USER_CHARGES

@<TRIPOS>ATOM
      1 C1          1.8539    4.7504    9.0637 C.3       1 <0>        -0.1202
      2 C2          1.2791    4.2378    7.7684 C.ar      1 <0>        -0.0365
      3 C3          2.1035    3.9624    6.6862 C.ar      1 <0>        -0.1573
      4 C4          1.5466    3.4926    5.5107 C.ar      1 <0>         0.1108
      5 N1          0.2479    3.2989    5.4072 N.ar      1 <0>        -0.4794
      6 C5         -0.5764    3.5547    6.4168 C.ar      1 <0>         0.1848
      7 C6         -0.0821    4.0307    7.6316 C.ar      1 <0>        -0.1207
      8 C7         -2.0282    3.3276    6.2540 C.2       1 <0>         0.2782
      9 N2         -2.9480    3.5376    7.1697 N.2       1 <0>        -0.4209
     10 C8         -4.1472    3.2183    6.6727 C.2       1 <0>        -0.0836
     11 C9         -3.9838    2.7977    5.4005 C.2       1 <0>         0.0390
     12 N3         -2.6447    2.8665    5.1245 N.pl3     1 <0>        -0.3959
     13 C10        -2.0236    2.5238    3.9161 C.ar      1 <0>         0.1634
     14 C11        -2.2960    1.3018    3.3160 C.ar      1 <0>        -0.1278
     15 C12        -1.6826    0.9670    2.1247 C.ar      1 <0>        -0.0153
     16 C13        -0.7978    1.8475    1.5296 C.ar      1 <0>        -0.6481
     17 C14        -0.5201    3.0629    2.1278 C.ar      1 <0>        -0.0165
     18 C15        -1.1347    3.4058    3.3162 C.ar      1 <0>        -0.0676
     19 S1         -0.0172    1.4168    0.0098 S.o2      1 <0>         2.4996
     20 O1          0.0021   -0.0041    0.0020 O.2       1 <0>        -0.9334
     21 O2          1.1953    2.1578    0.0022 O.2       1 <0>        -0.9329
     22 C16        -1.1345    2.0336   -1.2793 C.3       1 <0>        -0.6498
     23 C17        -5.4591    3.3115    7.4084 C.3       1 <0>         0.5585
     24 F1         -5.7126    2.1024    8.0649 F         1 <0>        -0.1699
     25 F2         -5.3950    4.3471    8.3468 F         1 <0>        -0.1642
     26 F3         -6.4877    3.5715    6.4964 F         1 <0>        -0.1709
     27 H1          2.1060    3.9080    9.7079 H         1 <0>         0.0819
     28 H2          2.7525    5.3319    8.8576 H         1 <0>         0.0762
     29 H3          1.1189    5.3820    9.5626 H         1 <0>         0.0765
     30 H4          3.1703    4.1133    6.7615 H         1 <0>         0.1427
     31 H5          2.1859    3.2776    4.6672 H         1 <0>         0.1661
     32 H6         -0.7525    4.2350    8.4534 H         1 <0>         0.1499
     33 H7         -4.7622    2.4694    4.7277 H         1 <0>         0.2007
     34 H8         -2.9867    0.6135    3.7804 H         1 <0>         0.1402
     35 H9         -1.8944    0.0167    1.6572 H         1 <0>         0.1528
     36 H10         0.1747    3.7467    1.6629 H         1 <0>         0.1518
     37 H11        -0.9208    4.3571    3.7806 H         1 <0>         0.1375
     38 H12        -2.1080    1.5544   -1.1761 H         1 <0>         0.1326
     39 H13        -1.2479    3.1127   -1.1759 H         1 <0>         0.1326
     40 H14        -0.7188    1.8043   -2.2605 H         1 <0>         0.1353
@<TRIPOS>BOND
     1    1    2 1
     2    1   27 1
     3    1   28 1
     4    1   29 1
     5    2    7 ar
     6    2    3 ar
     7    3    4 ar
     8    3   30 1
     9    4    5 ar
    10    4   31 1
    11    5    6 ar
    12    6    7 ar
    13    6    8 1
    14    7   32 1
    15    8   12 1
    16    8    9 2
    17    9   10 1
    18   10   11 2
    19   10   23 1
    20   11   12 1
    21   11   33 1
    22   12   13 1
    23   13   18 ar
    24   13   14 ar
    25   14   15 ar
    26   14   34 1
    27   15   16 ar
    28   15   35 1
    29   16   17 ar
    30   16   19 1
    31   17   18 ar
    32   17   36 1
    33   18   37 1
    34   19   20 2
    35   19   21 2
    36   19   22 1
    37   22   38 1
    38   22   39 1
    39   22   40 1
    40   23   24 1
    41   23   25 1
    42   23   26 1
@<TRIPOS>MOLECULE
ZINC03814623
   41    43     0     0     0
SMALL
USER_CHARGES

@<TRIPOS>ATOM
      1 C1          1.8539    4.7504    9.0637 C.3       1 <0>        -0.1304
      2 C2          1.2791    4.2378    7.7684 C.ar      1 <0>        -0.0205
      3 C3          2.1035    3.9624    6.6862 C.ar      1 <0>        -0.1145
      4 C4          1.5466    3.4926    5.5107 C.ar      1 <0>         0.1283
      5 N1          0.2479    3.2989    5.4072 N.ar      1 <0>        -0.4541
      6 C5         -0.5764    3.5547    6.4168 C.ar      1 <0>         0.1172
      7 C6         -0.0821    4.0307    7.6316 C.ar      1 <0>        -0.1199
      8 C7         -2.0282    3.3276    6.2540 C.cat     1 <0>         0.4122
      9 C8         -4.1472    3.2183    6.6727 C.2       1 <0>        -0.0685
     10 C9         -3.9838    2.7977    5.4005 C.2       1 <0>         0.1190
     11 N2         -2.6447    2.8665    5.1245 N.pl3     1 <0>        -0.3450
     12 C10        -2.0236    2.5238    3.9161 C.ar      1 <0>         0.1117
     13 C11        -2.2960    1.3018    3.3160 C.ar      1 <0>        -0.1050
     14 C12        -1.6826    0.9670    2.1247 C.ar      1 <0>        -0.0110
     15 C13        -0.7978    1.8475    1.5296 C.ar      1 <0>        -0.6243
     16 C14        -0.5201    3.0629    2.1278 C.ar      1 <0>        -0.0130
     17 C15        -1.1347    3.4058    3.3162 C.ar      1 <0>        -0.0551
     18 S1         -0.0172    1.4168    0.0098 S.o2      1 <0>         2.4929
     19 O1          0.0021   -0.0041    0.0020 O.2       1 <0>        -0.9232
     20 O2          1.1953    2.1578    0.0022 O.2       1 <0>        -0.9240
     21 C16        -1.1345    2.0336   -1.2793 C.3       1 <0>        -0.6463
     22 C17        -5.4591    3.3115    7.4084 C.3       1 <0>         0.5547
     23 F1         -5.7126    2.1024    8.0649 F         1 <0>        -0.1465
     24 F2         -5.3950    4.3471    8.3468 F         1 <0>        -0.1566
     25 F3         -6.4877    3.5715    6.4964 F         1 <0>        -0.1418
     26 H1          2.1060    3.9080    9.7079 H         1 <0>         0.0932
     27 H2          2.7525    5.3319    8.8576 H         1 <0>         0.0885
     28 H3          1.1189    5.3820    9.5626 H         1 <0>         0.0821
     29 H4          3.1703    4.1133    6.7615 H         1 <0>         0.1620
     30 H5          2.1859    3.2776    4.6672 H         1 <0>         0.1851
     31 H6         -0.7525    4.2350    8.4534 H         1 <0>         0.1439
     32 H7         -4.7622    2.4694    4.7277 H         1 <0>         0.2451
     33 H8         -2.9867    0.6135    3.7804 H         1 <0>         0.1495
     34 H9         -1.8944    0.0167    1.6572 H         1 <0>         0.1653
     35 H10         0.1747    3.7467    1.6629 H         1 <0>         0.1635
     36 H11        -0.9208    4.3571    3.7806 H         1 <0>         0.1432
     37 H12        -2.1080    1.5544   -1.1761 H         1 <0>         0.1348
     38 H13        -1.2479    3.1127   -1.1759 H         1 <0>         0.1344
     39 H14        -0.7188    1.8043   -2.2605 H         1 <0>         0.1421
     40 N3         -2.9482    3.5372    7.1687 N.pl3     1 <0>        -0.4551
     41 H15        -2.7730    3.8909    8.1166 H         1 <0>         0.4860
@<TRIPOS>BOND
     1    1    2 1
     2    1   26 1
     3    1   27 1
     4    1   28 1
     5    2    7 ar
     6    2    3 ar
     7    3    4 ar
     8    3   29 1
     9    4    5 ar
    10    4   30 1
    11    5    6 ar
    12    6    7 ar
    13    6    8 1
    14    7   31 1
    15    8   11 1
    16    8   40 2
    17    9   10 2
    18    9   22 1
    19    9   40 1
    20   10   11 1
    21   10   32 1
    22   11   12 1
    23   12   17 ar
    24   12   13 ar
    25   13   14 ar
    26   13   33 1
    27   14   15 ar
    28   14   34 1
    29   15   16 ar
    30   15   18 1
    31   16   17 ar
    32   16   35 1
    33   17   36 1
    34   18   19 2
    35   18   20 2
    36   18   21 1
    37   21   37 1
    38   21   38 1
    39   21   39 1
    40   22   23 1
    41   22   24 1
    42   22   25 1
    43   40   41 1
@<TRIPOS>MOLECULE
ZINC03814624
   39    41     0     0     0
SMALL
USER_CHARGES

@<TRIPOS>ATOM
      1 C1          6.3314   -1.5779   -0.0632 C.3       1 <0>        -0.1102
      2 C2          5.5700   -0.2775   -0.0504 C.ar      1 <0>         0.1377
      3 C3          6.2639    0.9193   -0.0506 C.ar      1 <0>        -0.1544
      4 C4          5.5598    2.1150   -0.0384 C.ar      1 <0>        -0.0668
      5 C5          4.1766    2.0674   -0.0263 C.ar      1 <0>        -0.1248
      6 C6          3.5415    0.8255   -0.0269 C.ar      1 <0>         0.1856
      7 N1          4.2534   -0.2961   -0.0337 N.ar      1 <0>        -0.4770
      8 C7          2.0647    0.7569   -0.0136 C.2       1 <0>         0.2789
      9 N2          1.2460    1.7856   -0.0002 N.2       1 <0>        -0.4201
     10 C8         -0.0162    1.3456    0.0094 C.2       1 <0>        -0.0827
     11 C9          0.0021   -0.0041    0.0020 C.2       1 <0>         0.0390
     12 N3          1.3164   -0.3869   -0.0126 N.pl3     1 <0>        -0.3973
     13 C10         1.8021   -1.7013   -0.0239 C.ar      1 <0>         0.1690
     14 C11         2.7550   -2.0828   -0.9589 C.ar      1 <0>        -0.0679
     15 C12         3.2360   -3.3775   -0.9638 C.ar      1 <0>        -0.0105
     16 C13         2.7611   -4.2965   -0.0461 C.ar      1 <0>        -0.6655
     17 C14         1.8079   -3.9211    0.8827 C.ar      1 <0>        -0.0124
     18 C15         1.3272   -2.6263    0.8963 C.ar      1 <0>        -0.1281
     19 S1          3.3723   -5.9490   -0.0599 S.o2      1 <0>         2.7015
     20 O1          4.6541   -5.9029   -0.6716 O.2       1 <0>        -0.9572
     21 O2          3.1704   -6.4676    1.2476 O.2       1 <0>        -0.9557
     22 N4          2.3961   -6.8237   -1.0720 N.pl3     1 <0>        -1.2470
     23 C16        -1.2506    2.2100    0.0203 C.3       1 <0>         0.5584
     24 F1         -1.6260    2.4704    1.3426 F         1 <0>        -0.1698
     25 F2         -0.9806    3.4168   -0.6340 F         1 <0>        -0.1640
     26 F3         -2.2911    1.5455   -0.6377 F         1 <0>        -0.1707
     27 H1          6.5238   -1.8964    0.9613 H         1 <0>         0.0831
     28 H2          5.7426   -2.3387   -0.5757 H         1 <0>         0.0792
     29 H3          7.2786   -1.4393   -0.5845 H         1 <0>         0.0821
     30 H4          7.3439    0.9230   -0.0606 H         1 <0>         0.1430
     31 H5          6.0796    3.0617   -0.0379 H         1 <0>         0.1462
     32 H6          3.5973    2.9788   -0.0170 H         1 <0>         0.1505
     33 H7         -0.8574   -0.6581    0.0067 H         1 <0>         0.2010
     34 H8          3.1227   -1.3668   -1.6789 H         1 <0>         0.1383
     35 H9          3.9807   -3.6736   -1.6877 H         1 <0>         0.1519
     36 H10         1.4387   -4.6411    1.5979 H         1 <0>         0.1536
     37 H11         0.5825   -2.3338    1.6217 H         1 <0>         0.1416
     38 H12         2.7573   -7.5799   -1.5604 H         1 <0>         0.4236
     39 H13         1.4631   -6.5798   -1.1764 H         1 <0>         0.4178
@<TRIPOS>BOND
     1    1    2 1
     2    1   27 1
     3    1   28 1
     4    1   29 1
     5    2    7 ar
     6    2    3 ar
     7    3    4 ar
     8    3   30 1
     9    4    5 ar
    10    4   31 1
    11    5    6 ar
    12    5   32 1
    13    6    7 ar
    14    6    8 1
    15    8   12 1
    16    8    9 2
    17    9   10 1
    18   10   11 2
    19   10   23 1
    20   11   12 1
    21   11   33 1
    22   12   13 1
    23   13   18 ar
    24   13   14 ar
    25   14   15 ar
    26   14   34 1
    27   15   16 ar
    28   15   35 1
    29   16   17 ar
    30   16   19 1
    31   17   18 ar
    32   17   36 1
    33   18   37 1
    34   19   20 2
    35   19   21 2
    36   19   22 1
    37   22   38 1
    38   22   39 1
    39   23   24 1
    40   23   25 1
    41   23   26 1
@<TRIPOS>MOLECULE
ZINC03814624
   40    42     0     0     0
SMALL
USER_CHARGES

@<TRIPOS>ATOM
      1 C1          6.3314   -1.5779   -0.0632 C.3       1 <0>        -0.1203
      2 C2          5.5700   -0.2775   -0.0504 C.ar      1 <0>         0.1580
      3 C3          6.2639    0.9193   -0.0506 C.ar      1 <0>        -0.1106
      4 C4          5.5598    2.1150   -0.0384 C.ar      1 <0>        -0.0546
      5 C5          4.1766    2.0674   -0.0263 C.ar      1 <0>        -0.1213
      6 C6          3.5415    0.8255   -0.0269 C.ar      1 <0>         0.1171
      7 N1          4.2534   -0.2961   -0.0337 N.ar      1 <0>        -0.4539
      8 C7          2.0647    0.7569   -0.0136 C.cat     1 <0>         0.4132
      9 C8         -0.0162    1.3456    0.0094 C.2       1 <0>        -0.0678
     10 C9          0.0021   -0.0041    0.0020 C.2       1 <0>         0.1189
     11 N2          1.3164   -0.3869   -0.0126 N.pl3     1 <0>        -0.3470
     12 C10         1.8021   -1.7013   -0.0239 C.ar      1 <0>         0.1179
     13 C11         2.7550   -2.0828   -0.9589 C.ar      1 <0>        -0.0558
     14 C12         3.2360   -3.3775   -0.9638 C.ar      1 <0>        -0.0071
     15 C13         2.7611   -4.2965   -0.0461 C.ar      1 <0>        -0.6424
     16 C14         1.8079   -3.9211    0.8827 C.ar      1 <0>        -0.0077
     17 C15         1.3272   -2.6263    0.8963 C.ar      1 <0>        -0.1054
     18 S1          3.3723   -5.9490   -0.0599 S.o2      1 <0>         2.6974
     19 O1          4.6541   -5.9029   -0.6716 O.2       1 <0>        -0.9478
     20 O2          3.1704   -6.4676    1.2476 O.2       1 <0>        -0.9441
     21 N3          2.3961   -6.8237   -1.0720 N.pl3     1 <0>        -1.2435
     22 C16        -1.2506    2.2100    0.0203 C.3       1 <0>         0.5547
     23 F1         -1.6260    2.4704    1.3426 F         1 <0>        -0.1464
     24 F2         -0.9806    3.4168   -0.6340 F         1 <0>        -0.1564
     25 F3         -2.2911    1.5455   -0.6377 F         1 <0>        -0.1417
     26 H1          6.5238   -1.8964    0.9613 H         1 <0>         0.0953
     27 H2          5.7426   -2.3387   -0.5757 H         1 <0>         0.0860
     28 H3          7.2786   -1.4393   -0.5845 H         1 <0>         0.0946
     29 H4          7.3439    0.9230   -0.0606 H         1 <0>         0.1623
     30 H5          6.0796    3.0617   -0.0379 H         1 <0>         0.1639
     31 H6          3.5973    2.9788   -0.0170 H         1 <0>         0.1449
     32 H7         -0.8574   -0.6581    0.0067 H         1 <0>         0.2454
     33 H8          3.1227   -1.3668   -1.6789 H         1 <0>         0.1442
     34 H9          3.9807   -3.6736   -1.6877 H         1 <0>         0.1637
     35 H10         1.4387   -4.6411    1.5979 H         1 <0>         0.1663
     36 H11         0.5825   -2.3338    1.6217 H         1 <0>         0.1510
     37 H12         2.7573   -7.5799   -1.5604 H         1 <0>         0.4284
     38 H13         1.4631   -6.5798   -1.1764 H         1 <0>         0.4185
     39 N4          1.2457    1.7846   -0.0002 N.pl3     1 <0>        -0.4545
     40 H14         1.5310    2.7709    0.0025 H         1 <0>         0.4866
@<TRIPOS>BOND
     1    1    2 1
     2    1   26 1
     3    1   27 1
     4    1   28 1
     5    2    7 ar
     6    2    3 ar
     7    3    4 ar
     8    3   29 1
     9    4    5 ar
    10    4   30 1
    11    5    6 ar
    12    5   31 1
    13    6    7 ar
    14    6    8 1
    15    8   11 1
    16    8   39 2
    17    9   10 2
    18    9   22 1
    19    9   39 1
    20   10   11 1
    21   10   32 1
    22   11   12 1
    23   12   17 ar
    24   12   13 ar
    25   13   14 ar
    26   13   33 1
    27   14   15 ar
    28   14   34 1
    29   15   16 ar
    30   15   18 1
    31   16   17 ar
    32   16   35 1
    33   17   36 1
    34   18   19 2
    35   18   20 2
    36   18   21 1
    37   21   37 1
    38   21   38 1
    39   22   23 1
    40   22   24 1
    41   22   25 1
    42   39   40 1
@<TRIPOS>MOLECULE
ZINC03814625
   39    41     0     0     0
SMALL
USER_CHARGES

@<TRIPOS>ATOM
      1 C1         -2.4713    3.9357    0.0475 C.3       1 <0>        -0.1162
      2 C2         -1.1861    3.1490    0.0309 C.ar      1 <0>        -0.1167
      3 C3         -1.2145    1.7612    0.0173 C.ar      1 <0>        -0.0744
      4 C4         -0.0126    1.0758    0.0080 C.ar      1 <0>        -0.1114
      5 C5          1.1802    1.7997    0.0005 C.ar      1 <0>         0.1719
      6 N1          1.1630    3.1277    0.0082 N.ar      1 <0>        -0.4711
      7 C6          0.0324    3.8032    0.0227 C.ar      1 <0>         0.1050
      8 C7          2.4732    1.0829   -0.0158 C.2       1 <0>         0.2804
      9 N2          2.6301   -0.2224   -0.0186 N.2       1 <0>        -0.4214
     10 C8          3.9353   -0.5105   -0.0376 C.2       1 <0>        -0.0825
     11 C9          4.6282    0.6479   -0.0383 C.2       1 <0>         0.0385
     12 N3          3.7105    1.6637   -0.0245 N.pl3     1 <0>        -0.3980
     13 C10         3.9870    3.0375   -0.0206 C.ar      1 <0>         0.1700
     14 C11         3.3629    3.8753   -0.9350 C.ar      1 <0>        -0.0695
     15 C12         3.6338    5.2296   -0.9255 C.ar      1 <0>        -0.0105
     16 C13         4.5332    5.7498   -0.0130 C.ar      1 <0>        -0.6646
     17 C14         5.1604    4.9171    0.8956 C.ar      1 <0>        -0.0091
     18 C15         4.8899    3.5627    0.8941 C.ar      1 <0>        -0.1291
     19 S1          4.8813    7.4771   -0.0084 S.o2      1 <0>         2.7021
     20 O1          3.7577    8.1193   -0.5952 O.2       1 <0>        -0.9582
     21 O2          5.3445    7.7945    1.2969 O.2       1 <0>        -0.9587
     22 N4          6.1567    7.7223   -1.0359 N.pl3     1 <0>        -1.2491
     23 C16         4.5322   -1.8942   -0.0502 C.3       1 <0>         0.5584
     24 F1          4.7293   -2.3291    1.2648 F         1 <0>        -0.1699
     25 F2          3.6619   -2.7716   -0.7060 F         1 <0>        -0.1641
     26 F3          5.7595   -1.8666   -0.7211 F         1 <0>        -0.1707
     27 H1         -2.7911    4.1309   -0.9761 H         1 <0>         0.0796
     28 H2         -3.2409    3.3634    0.5656 H         1 <0>         0.0735
     29 H3         -2.3117    4.8816    0.5649 H         1 <0>         0.0749
     30 H4         -2.1538    1.2283    0.0185 H         1 <0>         0.1454
     31 H5          0.0021   -0.0041    0.0020 H         1 <0>         0.1510
     32 H6          0.0572    4.8829    0.0287 H         1 <0>         0.1650
     33 H7          5.7030    0.7534   -0.0478 H         1 <0>         0.2010
     34 H8          2.6634    3.4690   -1.6506 H         1 <0>         0.1390
     35 H9          3.1456    5.8824   -1.6339 H         1 <0>         0.1530
     36 H10         5.8626    5.3263    1.6068 H         1 <0>         0.1542
     37 H11         5.3806    2.9127    1.6035 H         1 <0>         0.1420
     38 H12         6.5567    6.9705   -1.5004 H         1 <0>         0.4173
     39 H13         6.5037    8.6176   -1.1732 H         1 <0>         0.4230
@<TRIPOS>BOND
     1    1    2 1
     2    1   27 1
     3    1   28 1
     4    1   29 1
     5    2    7 ar
     6    2    3 ar
     7    3    4 ar
     8    3   30 1
     9    4    5 ar
    10    4   31 1
    11    5    6 ar
    12    5    8 1
    13    6    7 ar
    14    7   32 1
    15    8   12 1
    16    8    9 2
    17    9   10 1
    18   10   11 2
    19   10   23 1
    20   11   12 1
    21   11   33 1
    22   12   13 1
    23   13   18 ar
    24   13   14 ar
    25   14   15 ar
    26   14   34 1
    27   15   16 ar
    28   15   35 1
    29   16   17 ar
    30   16   19 1
    31   17   18 ar
    32   17   36 1
    33   18   37 1
    34   19   20 2
    35   19   21 2
    36   19   22 1
    37   22   38 1
    38   22   39 1
    39   23   24 1
    40   23   25 1
    41   23   26 1
@<TRIPOS>MOLECULE
ZINC03814625
   40    42     0     0     0
SMALL
USER_CHARGES

@<TRIPOS>ATOM
      1 C1         -2.4713    3.9357    0.0475 C.3       1 <0>        -0.1316
      2 C2         -1.1861    3.1490    0.0309 C.ar      1 <0>        -0.0653
      3 C3         -1.2145    1.7612    0.0173 C.ar      1 <0>        -0.0667
      4 C4         -0.0126    1.0758    0.0080 C.ar      1 <0>        -0.1056
      5 C5          1.1802    1.7997    0.0005 C.ar      1 <0>         0.0984
      6 N1          1.1630    3.1277    0.0082 N.ar      1 <0>        -0.4434
      7 C6          0.0324    3.8032    0.0227 C.ar      1 <0>         0.1193
      8 C7          2.4732    1.0829   -0.0158 C.cat     1 <0>         0.4160
      9 C8          3.9353   -0.5105   -0.0376 C.2       1 <0>        -0.0684
     10 C9          4.6282    0.6479   -0.0383 C.2       1 <0>         0.1187
     11 N2          3.7105    1.6637   -0.0245 N.pl3     1 <0>        -0.3486
     12 C10         3.9870    3.0375   -0.0206 C.ar      1 <0>         0.1193
     13 C11         3.3629    3.8753   -0.9350 C.ar      1 <0>        -0.0576
     14 C12         3.6338    5.2296   -0.9255 C.ar      1 <0>        -0.0065
     15 C13         4.5332    5.7498   -0.0130 C.ar      1 <0>        -0.6417
     16 C14         5.1604    4.9171    0.8956 C.ar      1 <0>        -0.0043
     17 C15         4.8899    3.5627    0.8941 C.ar      1 <0>        -0.1066
     18 S1          4.8813    7.4771   -0.0084 S.o2      1 <0>         2.6986
     19 O1          3.7577    8.1193   -0.5952 O.2       1 <0>        -0.9484
     20 O2          5.3445    7.7945    1.2969 O.2       1 <0>        -0.9475
     21 N3          6.1567    7.7223   -1.0359 N.pl3     1 <0>        -1.2461
     22 C16         4.5322   -1.8942   -0.0502 C.3       1 <0>         0.5547
     23 F1          4.7293   -2.3291    1.2648 F         1 <0>        -0.1467
     24 F2          3.6619   -2.7716   -0.7060 F         1 <0>        -0.1565
     25 F3          5.7595   -1.8666   -0.7211 F         1 <0>        -0.1418
     26 H1         -2.7911    4.1309   -0.9761 H         1 <0>         0.0952
     27 H2         -3.2409    3.3634    0.5656 H         1 <0>         0.0855
     28 H3         -2.3117    4.8816    0.5649 H         1 <0>         0.0874
     29 H4         -2.1538    1.2283    0.0185 H         1 <0>         0.1628
     30 H5          0.0021   -0.0041    0.0020 H         1 <0>         0.1453
     31 H6          0.0572    4.8829    0.0287 H         1 <0>         0.1839
     32 H7          5.7030    0.7534   -0.0478 H         1 <0>         0.2451
     33 H8          2.6634    3.4690   -1.6506 H         1 <0>         0.1447
     34 H9          3.1456    5.8824   -1.6339 H         1 <0>         0.1647
     35 H10         5.8626    5.3263    1.6068 H         1 <0>         0.1667
     36 H11         5.3806    2.9127    1.6035 H         1 <0>         0.1513
     37 H12         6.5567    6.9705   -1.5004 H         1 <0>         0.4174
     38 H13         6.5037    8.6176   -1.1732 H         1 <0>         0.4281
     39 N4          2.6309   -0.2217   -0.0186 N.pl3     1 <0>        -0.4561
     40 H14         1.8704   -0.9114   -0.0079 H         1 <0>         0.4862
@<TRIPOS>BOND
     1    1    2 1
     2    1   26 1
     3    1   27 1
     4    1   28 1
     5    2    7 ar
     6    2    3 ar
     7    3    4 ar
     8    3   29 1
     9    4    5 ar
    10    4   30 1
    11    5    6 ar
    12    5    8 1
    13    6    7 ar
    14    7   31 1
    15    8   11 1
    16    8   39 2
    17    9   10 2
    18    9   22 1
    19    9   39 1
    20   10   11 1
    21   10   32 1
    22   11   12 1
    23   12   17 ar
    24   12   13 ar
    25   13   14 ar
    26   13   33 1
    27   14   15 ar
    28   14   34 1
    29   15   16 ar
    30   15   18 1
    31   16   17 ar
    32   16   35 1
    33   17   36 1
    34   18   19 2
    35   18   20 2
    36   18   21 1
    37   21   37 1
    38   21   38 1
    39   22   23 1
    40   22   24 1
    41   22   25 1
    42   39   40 1
@<TRIPOS>MOLECULE
ZINC03814627
   43    46     0     0     0
SMALL
USER_CHARGES

@<TRIPOS>ATOM
      1 C1         -1.2461    3.3479   -1.3898 C.3       1 <0>        -0.6491
      2 S1         -0.0722    2.5896   -0.2334 S.o2      1 <0>         2.4984
      3 O1          0.0158    1.1915   -0.4717 O.2       1 <0>        -0.9294
      4 O2          1.1025    3.3834   -0.1375 O.2       1 <0>        -0.9281
      5 C2         -0.8391    2.7289    1.3468 C.ar      1 <0>        -0.6491
      6 C3         -0.6075    3.8446    2.1302 C.ar      1 <0>        -0.0028
      7 C4         -1.2118    3.9593    3.3669 C.ar      1 <0>        -0.1245
      8 C5         -2.0434    2.9477    3.8281 C.ar      1 <0>         0.1529
      9 C6         -2.2695    1.8261    3.0417 C.ar      1 <0>        -0.1268
     10 C7         -1.6669    1.7197    1.8034 C.ar      1 <0>        -0.0038
     11 N1         -2.6537    3.0587    5.0847 N.pl3     1 <0>        -0.4119
     12 C8         -3.9983    3.0037    5.3465 C.2       1 <0>         0.0392
     13 C9         -4.1475    3.1533    6.6786 C.2       1 <0>        -0.0818
     14 N2         -2.9355    3.2968    7.2269 N.2       1 <0>        -0.4278
     15 C10        -2.0216    3.2367    6.2834 C.2       1 <0>         0.2838
     16 C11        -0.5613    3.3467    6.4841 C.ar      1 <0>        -0.0920
     17 C12        -0.0551    3.9296    7.6396 C.ar      1 <0>         0.0024
     18 C13         1.3406    4.0088    7.7808 C.ar      1 <0>        -0.1041
     19 C14         1.9260    4.5851    8.9211 C.ar      1 <0>        -0.0888
     20 C15         3.2821    4.6445    9.0242 C.ar      1 <0>        -0.1127
     21 C16         4.0981    4.1417    8.0126 C.ar      1 <0>        -0.0894
     22 C17         3.5649    3.5774    6.8946 C.ar      1 <0>        -0.0953
     23 C18         2.1691    3.4966    6.7503 C.ar      1 <0>         0.1358
     24 N3          1.6234    2.9466    5.6600 N.ar      1 <0>        -0.4593
     25 C19         0.3266    2.8573    5.5104 C.ar      1 <0>         0.1435
     26 C20        -5.4575    3.1575    7.4234 C.3       1 <0>         0.5575
     27 F1         -5.7781    1.8518    7.8103 F         1 <0>        -0.1698
     28 F2         -5.3455    3.9662    8.5595 F         1 <0>        -0.1643
     29 F3         -6.4651    3.6582    6.5920 F         1 <0>        -0.1711
     30 H1         -2.1928    2.8090   -1.3522 H         1 <0>         0.1333
     31 H2         -1.4094    4.3890   -1.1113 H         1 <0>         0.1332
     32 H3         -0.8415    3.3015   -2.4009 H         1 <0>         0.1372
     33 H4          0.0432    4.6290    1.7729 H         1 <0>         0.1582
     34 H5         -1.0337    4.8328    3.9766 H         1 <0>         0.1437
     35 H6         -2.9162    1.0377    3.3976 H         1 <0>         0.1477
     36 H7         -1.8426    0.8476    1.1911 H         1 <0>         0.1590
     37 H8         -4.7884    2.8661    4.6232 H         1 <0>         0.2004
     38 H9         -0.7144    4.3105    8.4056 H         1 <0>         0.1552
     39 H10         1.3036    4.9783    9.7113 H         1 <0>         0.1361
     40 H11         3.7313    5.0875    9.9007 H         1 <0>         0.1331
     41 H12         5.1714    4.2011    8.1173 H         1 <0>         0.1349
     42 H13         4.2125    3.1931    6.1204 H         1 <0>         0.1402
     43 H14        -0.0709    2.4013    4.6157 H         1 <0>         0.1563
@<TRIPOS>BOND
     1    1    2 1
     2    1   30 1
     3    1   31 1
     4    1   32 1
     5    2    3 2
     6    2    4 2
     7    2    5 1
     8    5   10 ar
     9    5    6 ar
    10    6    7 ar
    11    6   33 1
    12    7    8 ar
    13    7   34 1
    14    8    9 ar
    15    8   11 1
    16    9   10 ar
    17    9   35 1
    18   10   36 1
    19   11   15 1
    20   11   12 1
    21   12   13 2
    22   12   37 1
    23   13   14 1
    24   13   26 1
    25   14   15 2
    26   15   16 1
    27   16   25 ar
    28   16   17 ar
    29   17   18 ar
    30   17   38 1
    31   18   23 ar
    32   18   19 ar
    33   19   20 ar
    34   19   39 1
    35   20   21 ar
    36   20   40 1
    37   21   22 ar
    38   21   41 1
    39   22   23 ar
    40   22   42 1
    41   23   24 ar
    42   24   25 ar
    43   25   43 1
    44   26   27 1
    45   26   28 1
    46   26   29 1
@<TRIPOS>MOLECULE
ZINC03814627
   44    47     0     0     0
SMALL
USER_CHARGES

@<TRIPOS>ATOM
      1 C1         -1.2461    3.3479   -1.3898 C.3       1 <0>        -0.6457
      2 S1         -0.0722    2.5896   -0.2334 S.o2      1 <0>         2.4913
      3 O1          0.0158    1.1915   -0.4717 O.2       1 <0>        -0.9196
      4 O2          1.1025    3.3834   -0.1375 O.2       1 <0>        -0.9195
      5 C2         -0.8391    2.7289    1.3468 C.ar      1 <0>        -0.6260
      6 C3         -0.6075    3.8446    2.1302 C.ar      1 <0>         0.0001
      7 C4         -1.2118    3.9593    3.3669 C.ar      1 <0>        -0.1103
      8 C5         -2.0434    2.9477    3.8281 C.ar      1 <0>         0.1020
      9 C6         -2.2695    1.8261    3.0417 C.ar      1 <0>        -0.1048
     10 C7         -1.6669    1.7197    1.8034 C.ar      1 <0>        -0.0001
     11 N1         -2.6537    3.0587    5.0847 N.pl3     1 <0>        -0.3661
     12 C8         -3.9983    3.0037    5.3465 C.2       1 <0>         0.1227
     13 C9         -4.1475    3.1533    6.6786 C.2       1 <0>        -0.0719
     14 C10        -2.0216    3.2367    6.2834 C.cat     1 <0>         0.4246
     15 C11        -0.5613    3.3467    6.4841 C.ar      1 <0>        -0.1693
     16 C12        -0.0551    3.9296    7.6396 C.ar      1 <0>         0.0226
     17 C13         1.3406    4.0088    7.7808 C.ar      1 <0>        -0.1086
     18 C14         1.9260    4.5851    8.9211 C.ar      1 <0>        -0.0881
     19 C15         3.2821    4.6445    9.0242 C.ar      1 <0>        -0.0971
     20 C16         4.0981    4.1417    8.0126 C.ar      1 <0>        -0.0622
     21 C17         3.5649    3.5774    6.8946 C.ar      1 <0>        -0.0982
     22 C18         2.1691    3.4966    6.7503 C.ar      1 <0>         0.1602
     23 N2          1.6234    2.9466    5.6600 N.ar      1 <0>        -0.4387
     24 C19         0.3266    2.8573    5.5104 C.ar      1 <0>         0.1624
     25 C20        -5.4575    3.1575    7.4234 C.3       1 <0>         0.5541
     26 F1         -5.7781    1.8518    7.8103 F         1 <0>        -0.1470
     27 F2         -5.3455    3.9662    8.5595 F         1 <0>        -0.1573
     28 F3         -6.4651    3.6582    6.5920 F         1 <0>        -0.1428
     29 H1         -2.1928    2.8090   -1.3522 H         1 <0>         0.1354
     30 H2         -1.4094    4.3890   -1.1113 H         1 <0>         0.1349
     31 H3         -0.8415    3.3015   -2.4009 H         1 <0>         0.1436
     32 H4          0.0432    4.6290    1.7729 H         1 <0>         0.1692
     33 H5         -1.0337    4.8328    3.9766 H         1 <0>         0.1504
     34 H6         -2.9162    1.0377    3.3976 H         1 <0>         0.1566
     35 H7         -1.8426    0.8476    1.1911 H         1 <0>         0.1708
     36 H8         -4.7884    2.8661    4.6232 H         1 <0>         0.2442
     37 H9         -0.7144    4.3105    8.4056 H         1 <0>         0.1530
     38 H10         1.3036    4.9783    9.7113 H         1 <0>         0.1434
     39 H11         3.7313    5.0875    9.9007 H         1 <0>         0.1448
     40 H12         5.1714    4.2011    8.1173 H         1 <0>         0.1476
     41 H13         4.2125    3.1931    6.1204 H         1 <0>         0.1518
     42 H14        -0.0709    2.4013    4.6157 H         1 <0>         0.1663
     43 N3         -2.9357    3.2967    7.2259 N.pl3     1 <0>        -0.4644
     44 H15        -2.7486    3.4324    8.2263 H         1 <0>         0.4856
@<TRIPOS>BOND
     1    1    2 1
     2    1   29 1
     3    1   30 1
     4    1   31 1
     5    2    3 2
     6    2    4 2
     7    2    5 1
     8    5   10 ar
     9    5    6 ar
    10    6    7 ar
    11    6   32 1
    12    7    8 ar
    13    7   33 1
    14    8    9 ar
    15    8   11 1
    16    9   10 ar
    17    9   34 1
    18   10   35 1
    19   11   14 1
    20   11   12 1
    21   12   13 2
    22   12   36 1
    23   13   25 1
    24   13   43 1
    25   14   15 1
    26   14   43 2
    27   15   24 ar
    28   15   16 ar
    29   16   17 ar
    30   16   37 1
    31   17   22 ar
    32   17   18 ar
    33   18   19 ar
    34   18   38 1
    35   19   20 ar
    36   19   39 1
    37   20   21 ar
    38   20   40 1
    39   21   22 ar
    40   21   41 1
    41   22   23 ar
    42   23   24 ar
    43   24   42 1
    44   25   26 1
    45   25   27 1
    46   25   28 1
    47   43   44 1
@<TRIPOS>MOLECULE
ZINC03814628
   41    44     0     0     0
SMALL
USER_CHARGES

@<TRIPOS>ATOM
      1 C1         -1.2053    2.9954   -1.3802 C.3       1 <0>        -0.6492
      2 S1         -0.0536    2.2610   -0.1866 S.o2      1 <0>         2.4990
      3 O1          0.0056    0.8526   -0.3664 O.2       1 <0>        -0.9307
      4 O2          1.1374    3.0330   -0.1169 O.2       1 <0>        -0.9302
      5 C2         -0.8251    2.4819    1.3820 C.ar      1 <0>        -0.6517
      6 C3         -0.5736    3.6240    2.1199 C.ar      1 <0>        -0.0036
      7 C4         -1.1807    3.8023    3.3476 C.ar      1 <0>        -0.1202
      8 C5         -2.0363    2.8287    3.8453 C.ar      1 <0>         0.1613
      9 C6         -2.2828    1.6807    3.1044 C.ar      1 <0>        -0.1286
     10 C7         -1.6765    1.5103    1.8751 C.ar      1 <0>        -0.0053
     11 N1         -2.6504    3.0047    5.0926 N.pl3     1 <0>        -0.4114
     12 C8         -3.9971    2.9716    5.3519 C.2       1 <0>         0.0355
     13 C9         -4.1498    3.1861    6.6740 C.2       1 <0>        -0.0839
     14 N2         -2.9383    3.3473    7.2199 N.2       1 <0>        -0.4170
     15 C10        -2.0213    3.2360    6.2838 C.2       1 <0>         0.2798
     16 C11        -0.5614    3.3457    6.4848 C.ar      1 <0>        -0.0149
     17 C12         0.2965    2.3955    5.9267 C.ar      1 <0>        -0.0856
     18 C13         1.6583    2.5012    6.1158 C.ar      1 <0>        -0.1041
     19 C14         2.1817    3.5461    6.8575 C.ar      1 <0>        -0.0796
     20 C15         1.3426    4.4964    7.4174 C.ar      1 <0>         0.0342
     21 C16        -0.0329    4.4043    7.2296 C.ar      1 <0>         0.0803
     22 O3         -0.6334    5.4443    7.8760 O.3       1 <0>        -0.2924
     23 C17         0.3537    5.9495    8.7947 C.3       1 <0>         0.2111
     24 O4          1.6061    5.6009    8.1756 O.3       1 <0>        -0.3039
     25 C18        -5.4625    3.2359    7.4125 C.3       1 <0>         0.5573
     26 F1         -5.7947    1.9527    7.8602 F         1 <0>        -0.1706
     27 F2         -5.3484    4.0973    8.5089 F         1 <0>        -0.1640
     28 F3         -6.4631    3.7038    6.5540 F         1 <0>        -0.1718
     29 H1         -2.1635    2.4786   -1.3258 H         1 <0>         0.1332
     30 H2         -1.3477    4.0503   -1.1460 H         1 <0>         0.1331
     31 H3         -0.7968    2.8985   -2.3862 H         1 <0>         0.1369
     32 H4          0.0950    4.3793    1.7339 H         1 <0>         0.1566
     33 H5         -0.9870    4.6964    3.9217 H         1 <0>         0.1415
     34 H6         -2.9482    0.9218    3.4887 H         1 <0>         0.1457
     35 H7         -1.8678    0.6175    1.2984 H         1 <0>         0.1571
     36 H8         -4.7856    2.8053    4.6329 H         1 <0>         0.1991
     37 H9         -0.1065    1.5784    5.3468 H         1 <0>         0.1362
     38 H10         2.3196    1.7649    5.6835 H         1 <0>         0.1486
     39 H11         3.2495    3.6214    7.0004 H         1 <0>         0.1444
     40 H12         0.2578    5.4633    9.7655 H         1 <0>         0.0911
     41 H13         0.2644    7.0310    8.8962 H         1 <0>         0.1366
@<TRIPOS>BOND
     1    1    2 1
     2    1   29 1
     3    1   30 1
     4    1   31 1
     5    2    3 2
     6    2    4 2
     7    2    5 1
     8    5   10 ar
     9    5    6 ar
    10    6    7 ar
    11    6   32 1
    12    7    8 ar
    13    7   33 1
    14    8    9 ar
    15    8   11 1
    16    9   10 ar
    17    9   34 1
    18   10   35 1
    19   11   15 1
    20   11   12 1
    21   12   13 2
    22   12   36 1
    23   13   14 1
    24   13   25 1
    25   14   15 2
    26   15   16 1
    27   16   21 ar
    28   16   17 ar
    29   17   18 ar
    30   17   37 1
    31   18   19 ar
    32   18   38 1
    33   19   20 ar
    34   19   39 1
    35   20   24 1
    36   20   21 ar
    37   21   22 1
    38   22   23 1
    39   23   24 1
    40   23   40 1
    41   23   41 1
    42   25   26 1
    43   25   27 1
    44   25   28 1
@<TRIPOS>MOLECULE
ZINC03814628
   42    45     0     0     0
SMALL
USER_CHARGES

@<TRIPOS>ATOM
      1 C1         -1.2053    2.9954   -1.3802 C.3       1 <0>        -0.6457
      2 S1         -0.0536    2.2610   -0.1866 S.o2      1 <0>         2.4918
      3 O1          0.0056    0.8526   -0.3664 O.2       1 <0>        -0.9208
      4 O2          1.1374    3.0330   -0.1169 O.2       1 <0>        -0.9212
      5 C2         -0.8251    2.4819    1.3820 C.ar      1 <0>        -0.6279
      6 C3         -0.5736    3.6240    2.1199 C.ar      1 <0>        -0.0010
      7 C4         -1.1807    3.8023    3.3476 C.ar      1 <0>        -0.1034
      8 C5         -2.0363    2.8287    3.8453 C.ar      1 <0>         0.1090
      9 C6         -2.2828    1.6807    3.1044 C.ar      1 <0>        -0.1070
     10 C7         -1.6765    1.5103    1.8751 C.ar      1 <0>        -0.0014
     11 N1         -2.6504    3.0047    5.0926 N.pl3     1 <0>        -0.3623
     12 C8         -3.9971    2.9716    5.3519 C.2       1 <0>         0.1195
     13 C9         -4.1498    3.1861    6.6740 C.2       1 <0>        -0.0709
     14 C10        -2.0213    3.2360    6.2838 C.cat     1 <0>         0.4192
     15 C11        -0.5614    3.3457    6.4848 C.ar      1 <0>        -0.0920
     16 C12         0.2965    2.3955    5.9267 C.ar      1 <0>        -0.0603
     17 C13         1.6583    2.5012    6.1158 C.ar      1 <0>        -0.0913
     18 C14         2.1817    3.5461    6.8575 C.ar      1 <0>        -0.0446
     19 C15         1.3426    4.4964    7.4174 C.ar      1 <0>         0.0493
     20 C16        -0.0329    4.4043    7.2296 C.ar      1 <0>         0.0780
     21 O3         -0.6334    5.4443    7.8760 O.3       1 <0>        -0.3096
     22 C17         0.3537    5.9495    8.7947 C.3       1 <0>         0.2133
     23 O4          1.6061    5.6009    8.1756 O.3       1 <0>        -0.2890
     24 C18        -5.4625    3.2359    7.4125 C.3       1 <0>         0.5538
     25 F1         -5.7947    1.9527    7.8602 F         1 <0>        -0.1470
     26 F2         -5.3484    4.0973    8.5089 F         1 <0>        -0.1564
     27 F3         -6.4631    3.7038    6.5540 F         1 <0>        -0.1428
     28 H1         -2.1635    2.4786   -1.3258 H         1 <0>         0.1353
     29 H2         -1.3477    4.0503   -1.1460 H         1 <0>         0.1349
     30 H3         -0.7968    2.8985   -2.3862 H         1 <0>         0.1434
     31 H4          0.0950    4.3793    1.7339 H         1 <0>         0.1677
     32 H5         -0.9870    4.6964    3.9217 H         1 <0>         0.1480
     33 H6         -2.9482    0.9218    3.4887 H         1 <0>         0.1548
     34 H7         -1.8678    0.6175    1.2984 H         1 <0>         0.1693
     35 H8         -4.7856    2.8053    4.6329 H         1 <0>         0.2442
     36 H9         -0.1065    1.5784    5.3468 H         1 <0>         0.1500
     37 H10         2.3196    1.7649    5.6835 H         1 <0>         0.1649
     38 H11         3.2495    3.6214    7.0004 H         1 <0>         0.1604
     39 H12         0.2578    5.4633    9.7655 H         1 <0>         0.1030
     40 H13         0.2644    7.0310    8.8962 H         1 <0>         0.1495
     41 N2         -2.9385    3.3471    7.2189 N.pl3     1 <0>        -0.4525
     42 H14        -2.7541    3.5291    8.2124 H         1 <0>         0.4877
@<TRIPOS>BOND
     1    1    2 1
     2    1   28 1
     3    1   29 1
     4    1   30 1
     5    2    3 2
     6    2    4 2
     7    2    5 1
     8    5   10 ar
     9    5    6 ar
    10    6    7 ar
    11    6   31 1
    12    7    8 ar
    13    7   32 1
    14    8    9 ar
    15    8   11 1
    16    9   10 ar
    17    9   33 1
    18   10   34 1
    19   11   14 1
    20   11   12 1
    21   12   13 2
    22   12   35 1
    23   13   24 1
    24   13   41 1
    25   14   15 1
    26   14   41 2
    27   15   20 ar
    28   15   16 ar
    29   16   17 ar
    30   16   36 1
    31   17   18 ar
    32   17   37 1
    33   18   19 ar
    34   18   38 1
    35   19   23 1
    36   19   20 ar
    37   20   21 1
    38   21   22 1
    39   22   23 1
    40   22   39 1
    41   22   40 1
    42   24   25 1
    43   24   26 1
    44   24   27 1
    45   41   42 1
@<TRIPOS>MOLECULE
ZINC03814630
   34    36     0     0     0
SMALL
USER_CHARGES

@<TRIPOS>ATOM
      1 C1         -1.0810    1.9154    0.0167 C.2       1 <0>        -0.1646
      2 C2         -0.8664    3.2744    0.0279 C.2       1 <0>        -0.0814
      3 C3          0.4255    3.7374    0.0181 C.2       1 <0>        -0.1289
      4 S1          1.3606    2.2166    0.0010 S.3       1 <0>         0.0877
      5 C4         -0.0126    1.0758    0.0080 C.2       1 <0>        -0.1647
      6 C5          0.9130    5.1255    0.0202 C.2       1 <0>         0.3242
      7 N1          0.1991    6.1942    0.3090 N.2       1 <0>        -0.4208
      8 C6          0.9713    7.2830    0.2079 C.2       1 <0>        -0.0779
      9 C7          2.2105    6.8967   -0.1553 C.2       1 <0>         0.0379
     10 N2          2.1880    5.5286   -0.2719 N.pl3     1 <0>        -0.4151
     11 C8          3.2637    4.7034   -0.6253 C.ar      1 <0>         0.1689
     12 C9          3.5745    3.5949    0.1509 C.ar      1 <0>        -0.1343
     13 C10         4.6322    2.7803   -0.2031 C.ar      1 <0>         0.0140
     14 C11         5.3882    3.0741   -1.3231 C.ar      1 <0>        -0.6714
     15 C12         5.0845    4.1803   -2.0952 C.ar      1 <0>         0.0028
     16 C13         4.0247    4.9957   -1.7493 C.ar      1 <0>        -0.1281
     17 S2          6.7417    2.0369   -1.7670 S.o2      1 <0>         2.7027
     18 O1          6.4816    0.7626   -1.1947 O.2       1 <0>        -0.9545
     19 O2          6.9518    2.2177   -3.1607 O.2       1 <0>        -0.9523
     20 N3          8.0857    2.6327   -1.0046 N.pl3     1 <0>        -1.2459
     21 C14         0.5296    8.7018    0.4583 C.3       1 <0>         0.5569
     22 F1         -0.7891    8.7041    0.9255 F         1 <0>        -0.1614
     23 F2          1.3645    9.2881    1.4157 F         1 <0>        -0.1704
     24 F3          0.6033    9.4305   -0.7336 F         1 <0>        -0.1702
     25 H1         -2.0863    1.5207    0.0184 H         1 <0>         0.1436
     26 H2         -1.6982    3.9632    0.0396 H         1 <0>         0.1475
     27 H3          0.0021   -0.0041    0.0020 H         1 <0>         0.1921
     28 H4          3.0618    7.5410   -0.3185 H         1 <0>         0.2015
     29 H5          2.9874    3.3677    1.0285 H         1 <0>         0.1519
     30 H6          4.8719    1.9157    0.3979 H         1 <0>         0.1597
     31 H7          5.6767    4.4071   -2.9694 H         1 <0>         0.1593
     32 H8          3.7884    5.8599   -2.3523 H         1 <0>         0.1482
     33 H9          8.8022    2.0326   -0.7453 H         1 <0>         0.4247
     34 H10         8.1563    3.5818   -0.8173 H         1 <0>         0.4182
@<TRIPOS>BOND
     1    1    5 2
     2    1    2 1
     3    1   25 1
     4    2    3 2
     5    2   26 1
     6    3    4 1
     7    3    6 1
     8    4    5 1
     9    5   27 1
    10    6   10 1
    11    6    7 2
    12    7    8 1
    13    8    9 2
    14    8   21 1
    15    9   10 1
    16    9   28 1
    17   10   11 1
    18   11   16 ar
    19   11   12 ar
    20   12   13 ar
    21   12   29 1
    22   13   14 ar
    23   13   30 1
    24   14   15 ar
    25   14   17 1
    26   15   16 ar
    27   15   31 1
    28   16   32 1
    29   17   18 2
    30   17   19 2
    31   17   20 1
    32   20   33 1
    33   20   34 1
    34   21   22 1
    35   21   23 1
    36   21   24 1
@<TRIPOS>MOLECULE
ZINC03814630
   35    37     0     0     0
SMALL
USER_CHARGES

@<TRIPOS>ATOM
      1 C1         -1.0810    1.9154    0.0167 C.2       1 <0>        -0.1851
      2 C2         -0.8664    3.2744    0.0279 C.2       1 <0>        -0.0238
      3 C3          0.4255    3.7374    0.0181 C.2       1 <0>        -0.2538
      4 S1          1.3606    2.2166    0.0010 S.3       1 <0>         0.1754
      5 C4         -0.0126    1.0758    0.0080 C.2       1 <0>        -0.1034
      6 C5          0.9130    5.1255    0.0202 C.cat     1 <0>         0.4714
      7 C6          0.9713    7.2830    0.2079 C.2       1 <0>        -0.0676
      8 C7          2.2105    6.8967   -0.1553 C.2       1 <0>         0.1199
      9 N1          2.1880    5.5286   -0.2719 N.pl3     1 <0>        -0.3742
     10 C8          3.2637    4.7034   -0.6253 C.ar      1 <0>         0.1248
     11 C9          3.5745    3.5949    0.1509 C.ar      1 <0>        -0.1257
     12 C10         4.6322    2.7803   -0.2031 C.ar      1 <0>         0.0160
     13 C11         5.3882    3.0741   -1.3231 C.ar      1 <0>        -0.6494
     14 C12         5.0845    4.1803   -2.0952 C.ar      1 <0>         0.0091
     15 C13         4.0247    4.9957   -1.7493 C.ar      1 <0>        -0.1062
     16 S2          6.7417    2.0369   -1.7670 S.o2      1 <0>         2.6981
     17 O1          6.4816    0.7626   -1.1947 O.2       1 <0>        -0.9453
     18 O2          6.9518    2.2177   -3.1607 O.2       1 <0>        -0.9407
     19 N2          8.0857    2.6327   -1.0046 N.pl3     1 <0>        -1.2424
     20 C14         0.5296    8.7018    0.4583 C.3       1 <0>         0.5547
     21 F1         -0.7891    8.7041    0.9255 F         1 <0>        -0.1586
     22 F2          1.3645    9.2881    1.4157 F         1 <0>        -0.1436
     23 F3          0.6033    9.4305   -0.7336 F         1 <0>        -0.1444
     24 H1         -2.0863    1.5207    0.0184 H         1 <0>         0.1622
     25 H2         -1.6982    3.9632    0.0396 H         1 <0>         0.1509
     26 H3          0.0021   -0.0041    0.0020 H         1 <0>         0.2101
     27 H4          3.0618    7.5410   -0.3185 H         1 <0>         0.2442
     28 H5          2.9874    3.3677    1.0285 H         1 <0>         0.1563
     29 H6          4.8719    1.9157    0.3979 H         1 <0>         0.1709
     30 H7          5.6767    4.4071   -2.9694 H         1 <0>         0.1717
     31 H8          3.7884    5.8599   -2.3523 H         1 <0>         0.1576
     32 H9          8.8022    2.0326   -0.7453 H         1 <0>         0.4294
     33 H10         8.1563    3.5818   -0.8173 H         1 <0>         0.4188
     34 N3          0.2001    6.1942    0.3087 N.pl3     1 <0>        -0.4647
     35 H11        -0.7928    6.1924    0.5703 H         1 <0>         0.4876
@<TRIPOS>BOND
     1    1    5 2
     2    1    2 1
     3    1   24 1
     4    2    3 2
     5    2   25 1
     6    3    4 1
     7    3    6 1
     8    4    5 1
     9    5   26 1
    10    6    9 1
    11    6   34 2
    12    7    8 2
    13    7   20 1
    14    7   34 1
    15    8    9 1
    16    8   27 1
    17    9   10 1
    18   10   15 ar
    19   10   11 ar
    20   11   12 ar
    21   11   28 1
    22   12   13 ar
    23   12   29 1
    24   13   14 ar
    25   13   16 1
    26   14   15 ar
    27   14   30 1
    28   15   31 1
    29   16   17 2
    30   16   18 2
    31   16   19 1
    32   19   32 1
    33   19   33 1
    34   20   21 1
    35   20   22 1
    36   20   23 1
    37   34   35 1
@<TRIPOS>MOLECULE
ZINC03814631
   35    37     0     0     0
SMALL
USER_CHARGES

@<TRIPOS>ATOM
      1 C1         -1.1345    2.0336   -1.2793 C.3       1 <0>        -0.6487
      2 S1         -0.0172    1.4168    0.0098 S.o2      1 <0>         2.4980
      3 O1          0.0021   -0.0041    0.0020 O.2       1 <0>        -0.9298
      4 O2          1.1953    2.1578    0.0022 O.2       1 <0>        -0.9294
      5 C2         -0.7978    1.8475    1.5296 C.ar      1 <0>        -0.6510
      6 C3         -0.5200    3.0629    2.1278 C.ar      1 <0>         0.0001
      7 C4         -1.1340    3.4054    3.3166 C.ar      1 <0>        -0.1255
      8 C5         -2.0232    2.5236    3.9163 C.ar      1 <0>         0.1542
      9 C6         -2.2960    1.3017    3.3160 C.ar      1 <0>        -0.1251
     10 C7         -1.6826    0.9670    2.1247 C.ar      1 <0>        -0.0030
     11 N1         -2.6443    2.8663    5.1246 N.pl3     1 <0>        -0.4121
     12 C8         -3.9875    2.7979    5.4020 C.2       1 <0>         0.0433
     13 C9         -4.1507    3.2173    6.6724 C.2       1 <0>        -0.0789
     14 N2         -2.9507    3.5370    7.1722 N.2       1 <0>        -0.4154
     15 C10        -2.0275    3.3276    6.2561 C.2       1 <0>         0.3187
     16 C11        -0.5831    3.5532    6.4200 C.2       1 <0>        -0.1159
     17 C12         0.0820    4.2641    7.4014 C.2       1 <0>        -0.0722
     18 C13         1.4553    4.3338    7.3424 C.2       1 <0>        -0.1296
     19 C14         2.1095    3.7070    6.3298 C.2       1 <0>        -0.1282
     20 S2          0.7685    2.9738    5.4076 S.3       1 <0>         0.1345
     21 Br1         2.4211    5.2919    8.6559 Br        1 <0>        -0.0200
     22 C15        -5.4633    3.3100    7.4070 C.3       1 <0>         0.5579
     23 F1         -5.7171    2.1005    8.0627 F         1 <0>        -0.1689
     24 F2         -5.4001    4.3452    8.3460 F         1 <0>        -0.1629
     25 F3         -6.4911    3.5703    6.4944 F         1 <0>        -0.1703
     26 H1         -2.1080    1.5544   -1.1761 H         1 <0>         0.1334
     27 H2         -1.2479    3.1127   -1.1759 H         1 <0>         0.1335
     28 H3         -0.7188    1.8043   -2.2605 H         1 <0>         0.1372
     29 H4          0.1746    3.7468    1.6627 H         1 <0>         0.1593
     30 H5         -0.9195    4.3564    3.7814 H         1 <0>         0.1456
     31 H6         -2.9875    0.6139    3.7799 H         1 <0>         0.1468
     32 H7         -1.8944    0.0167    1.6572 H         1 <0>         0.1585
     33 H8         -4.7660    2.4696    4.7292 H         1 <0>         0.2030
     34 H9         -0.4630    4.7534    8.1952 H         1 <0>         0.1580
     35 H10         3.1708    3.6603    6.1352 H         1 <0>         0.2049
@<TRIPOS>BOND
     1    1    2 1
     2    1   26 1
     3    1   27 1
     4    1   28 1
     5    2    3 2
     6    2    4 2
     7    2    5 1
     8    5   10 ar
     9    5    6 ar
    10    6    7 ar
    11    6   29 1
    12    7    8 ar
    13    7   30 1
    14    8    9 ar
    15    8   11 1
    16    9   10 ar
    17    9   31 1
    18   10   32 1
    19   11   15 1
    20   11   12 1
    21   12   13 2
    22   12   33 1
    23   13   14 1
    24   13   22 1
    25   14   15 2
    26   15   16 1
    27   16   20 1
    28   16   17 2
    29   17   18 1
    30   17   34 1
    31   18   19 2
    32   18   21 1
    33   19   20 1
    34   19   35 1
    35   22   23 1
    36   22   24 1
    37   22   25 1
@<TRIPOS>MOLECULE
ZINC03814631
   36    38     0     0     0
SMALL
USER_CHARGES

@<TRIPOS>ATOM
      1 C1         -1.1345    2.0336   -1.2793 C.3       1 <0>        -0.6450
      2 S1         -0.0172    1.4168    0.0098 S.o2      1 <0>         2.4907
      3 O1          0.0021   -0.0041    0.0020 O.2       1 <0>        -0.9197
      4 O2          1.1953    2.1578    0.0022 O.2       1 <0>        -0.9208
      5 C2         -0.7978    1.8475    1.5296 C.ar      1 <0>        -0.6283
      6 C3         -0.5200    3.0629    2.1278 C.ar      1 <0>         0.0016
      7 C4         -1.1340    3.4054    3.3166 C.ar      1 <0>        -0.1157
      8 C5         -2.0232    2.5236    3.9163 C.ar      1 <0>         0.1068
      9 C6         -2.2960    1.3017    3.3160 C.ar      1 <0>        -0.1029
     10 C7         -1.6826    0.9670    2.1247 C.ar      1 <0>         0.0018
     11 N1         -2.6443    2.8663    5.1246 N.pl3     1 <0>        -0.3682
     12 C8         -3.9875    2.7979    5.4020 C.2       1 <0>         0.1227
     13 C9         -4.1507    3.2173    6.6724 C.2       1 <0>        -0.0665
     14 C10        -2.0275    3.3276    6.2561 C.cat     1 <0>         0.4671
     15 C11        -0.5831    3.5532    6.4200 C.2       1 <0>        -0.2442
     16 C12         0.0820    4.2641    7.4014 C.2       1 <0>        -0.0142
     17 C13         1.4553    4.3338    7.3424 C.2       1 <0>        -0.1611
     18 C14         2.1095    3.7070    6.3298 C.2       1 <0>        -0.0727
     19 S2          0.7685    2.9738    5.4076 S.3       1 <0>         0.2247
     20 Br1         2.4211    5.2919    8.6559 Br        1 <0>         0.0145
     21 C15        -5.4633    3.3100    7.4070 C.3       1 <0>         0.5542
     22 F1         -5.7171    2.1005    8.0627 F         1 <0>        -0.1464
     23 F2         -5.4001    4.3452    8.3460 F         1 <0>        -0.1561
     24 F3         -6.4911    3.5703    6.4944 F         1 <0>        -0.1423
     25 H1         -2.1080    1.5544   -1.1761 H         1 <0>         0.1356
     26 H2         -1.2479    3.1127   -1.1759 H         1 <0>         0.1353
     27 H3         -0.7188    1.8043   -2.2605 H         1 <0>         0.1438
     28 H4          0.1746    3.7468    1.6627 H         1 <0>         0.1705
     29 H5         -0.9195    4.3564    3.7814 H         1 <0>         0.1519
     30 H6         -2.9875    0.6139    3.7799 H         1 <0>         0.1561
     31 H7         -1.8944    0.0167    1.6572 H         1 <0>         0.1708
     32 H8         -4.7660    2.4696    4.7292 H         1 <0>         0.2455
     33 H9         -0.4630    4.7534    8.1952 H         1 <0>         0.1607
     34 H10         3.1708    3.6603    6.1352 H         1 <0>         0.2218
     35 N2         -2.9509    3.5366    7.1712 N.pl3     1 <0>        -0.4603
     36 H11        -2.7773    3.8896    8.1197 H         1 <0>         0.4881
@<TRIPOS>BOND
     1    1    2 1
     2    1   25 1
     3    1   26 1
     4    1   27 1
     5    2    3 2
     6    2    4 2
     7    2    5 1
     8    5   10 ar
     9    5    6 ar
    10    6    7 ar
    11    6   28 1
    12    7    8 ar
    13    7   29 1
    14    8    9 ar
    15    8   11 1
    16    9   10 ar
    17    9   30 1
    18   10   31 1
    19   11   14 1
    20   11   12 1
    21   12   13 2
    22   12   32 1
    23   13   21 1
    24   13   35 1
    25   14   15 1
    26   14   35 2
    27   15   19 1
    28   15   16 2
    29   16   17 1
    30   16   33 1
    31   17   18 2
    32   17   20 1
    33   18   19 1
    34   18   34 1
    35   21   22 1
    36   21   23 1
    37   21   24 1
    38   35   36 1
@<TRIPOS>MOLECULE
ZINC03814632
   37    39     0     0     0
SMALL
USER_CHARGES

@<TRIPOS>ATOM
      1 C1          2.6571    3.2910    4.5582 C.3       1 <0>        -0.0691
      2 C2          1.5571    3.5090    5.5650 C.2       1 <0>         0.1045
      3 N1          0.2701    3.3066    5.4295 N.2       1 <0>        -0.5084
      4 C3         -0.5773    3.5534    6.4184 C.2       1 <0>         0.1085
      5 C4         -0.0618    4.0204    7.6008 C.2       1 <0>        -0.1510
      6 S1          1.6779    4.0850    7.1982 S.3       1 <0>         0.0839
      7 C5         -2.0281    3.3271    6.2547 C.2       1 <0>         0.3072
      8 N2         -2.9491    3.5379    7.1700 N.2       1 <0>        -0.4283
      9 C6         -4.1505    3.2179    6.6715 C.2       1 <0>        -0.0817
     10 C7         -3.9878    2.7978    5.4019 C.2       1 <0>         0.0356
     11 N3         -2.6444    2.8664    5.1248 N.pl3     1 <0>        -0.4022
     12 C8         -2.0232    2.5236    3.9163 C.ar      1 <0>         0.1666
     13 C9         -2.2960    1.3018    3.3160 C.ar      1 <0>        -0.1287
     14 C10        -1.6826    0.9670    2.1247 C.ar      1 <0>        -0.0145
     15 C11        -0.7978    1.8475    1.5296 C.ar      1 <0>        -0.6492
     16 C12        -0.5201    3.0629    2.1278 C.ar      1 <0>        -0.0160
     17 C13        -1.1340    3.4054    3.3167 C.ar      1 <0>        -0.0702
     18 S2         -0.0172    1.4168    0.0098 S.o2      1 <0>         2.4993
     19 O1          0.0021   -0.0041    0.0020 O.2       1 <0>        -0.9332
     20 O2          1.1953    2.1578    0.0022 O.2       1 <0>        -0.9328
     21 C14        -1.1345    2.0336   -1.2793 C.3       1 <0>        -0.6500
     22 C15        -5.4625    3.3116    7.4070 C.3       1 <0>         0.5584
     23 F1         -5.7164    2.1027    8.0637 F         1 <0>        -0.1700
     24 F2         -5.3983    4.3474    8.3452 F         1 <0>        -0.1642
     25 F3         -6.4909    3.5717    6.4948 F         1 <0>        -0.1711
     26 H1          3.6157    3.5560    5.0043 H         1 <0>         0.0916
     27 H2          2.6730    2.2431    4.2586 H         1 <0>         0.0968
     28 H3          2.4782    3.9163    3.6835 H         1 <0>         0.0979
     29 H4         -0.5671    4.2773    8.5200 H         1 <0>         0.2099
     30 H5         -4.7663    2.4693    4.7294 H         1 <0>         0.1995
     31 H6         -2.9870    0.6137    3.7803 H         1 <0>         0.1399
     32 H7         -1.8944    0.0167    1.6572 H         1 <0>         0.1527
     33 H8          0.1745    3.7468    1.6628 H         1 <0>         0.1511
     34 H9         -0.9199    4.3565    3.7813 H         1 <0>         0.1364
     35 H10        -2.1080    1.5544   -1.1761 H         1 <0>         0.1326
     36 H11        -1.2479    3.1127   -1.1759 H         1 <0>         0.1326
     37 H12        -0.7188    1.8043   -2.2605 H         1 <0>         0.1355
@<TRIPOS>BOND
     1    1    2 1
     2    1   26 1
     3    1   27 1
     4    1   28 1
     5    2    6 1
     6    2    3 2
     7    3    4 1
     8    4    5 2
     9    4    7 1
    10    5    6 1
    11    5   29 1
    12    7   11 1
    13    7    8 2
    14    8    9 1
    15    9   10 2
    16    9   22 1
    17   10   11 1
    18   10   30 1
    19   11   12 1
    20   12   17 ar
    21   12   13 ar
    22   13   14 ar
    23   13   31 1
    24   14   15 ar
    25   14   32 1
    26   15   16 ar
    27   15   18 1
    28   16   17 ar
    29   16   33 1
    30   17   34 1
    31   18   19 2
    32   18   20 2
    33   18   21 1
    34   21   35 1
    35   21   36 1
    36   21   37 1
    37   22   23 1
    38   22   24 1
    39   22   25 1
@<TRIPOS>MOLECULE
ZINC03814632
   38    40     0     0     0
SMALL
USER_CHARGES

@<TRIPOS>ATOM
      1 C1          2.6571    3.2910    4.5582 C.3       1 <0>        -0.0815
      2 C2          1.5571    3.5090    5.5650 C.2       1 <0>         0.1275
      3 N1          0.2701    3.3066    5.4295 N.2       1 <0>        -0.5074
      4 C3         -0.5773    3.5534    6.4184 C.2       1 <0>         0.0599
      5 C4         -0.0618    4.0204    7.6008 C.2       1 <0>        -0.1746
      6 S1          1.6779    4.0850    7.1982 S.3       1 <0>         0.1956
      7 C5         -2.0281    3.3271    6.2547 C.cat     1 <0>         0.4386
      8 C6         -4.1505    3.2179    6.6715 C.2       1 <0>        -0.0683
      9 C7         -3.9878    2.7978    5.4019 C.2       1 <0>         0.1183
     10 N2         -2.6444    2.8664    5.1248 N.pl3     1 <0>        -0.3521
     11 C8         -2.0232    2.5236    3.9163 C.ar      1 <0>         0.1155
     12 C9         -2.2960    1.3018    3.3160 C.ar      1 <0>        -0.1060
     13 C10        -1.6826    0.9670    2.1247 C.ar      1 <0>        -0.0106
     14 C11        -0.7978    1.8475    1.5296 C.ar      1 <0>        -0.6255
     15 C12        -0.5201    3.0629    2.1278 C.ar      1 <0>        -0.0133
     16 C13        -1.1340    3.4054    3.3167 C.ar      1 <0>        -0.0562
     17 S2         -0.0172    1.4168    0.0098 S.o2      1 <0>         2.4926
     18 O1          0.0021   -0.0041    0.0020 O.2       1 <0>        -0.9231
     19 O2          1.1953    2.1578    0.0022 O.2       1 <0>        -0.9241
     20 C14        -1.1345    2.0336   -1.2793 C.3       1 <0>        -0.6464
     21 C15        -5.4625    3.3116    7.4070 C.3       1 <0>         0.5549
     22 F1         -5.7164    2.1027    8.0637 F         1 <0>        -0.1469
     23 F2         -5.3983    4.3474    8.3452 F         1 <0>        -0.1568
     24 F3         -6.4909    3.5717    6.4948 F         1 <0>        -0.1423
     25 H1          3.6157    3.5560    5.0043 H         1 <0>         0.1026
     26 H2          2.6730    2.2431    4.2586 H         1 <0>         0.1082
     27 H3          2.4782    3.9163    3.6835 H         1 <0>         0.1091
     28 H4         -0.5671    4.2773    8.5200 H         1 <0>         0.2132
     29 H5         -4.7663    2.4693    4.7294 H         1 <0>         0.2440
     30 H6         -2.9870    0.6137    3.7803 H         1 <0>         0.1491
     31 H7         -1.8944    0.0167    1.6572 H         1 <0>         0.1650
     32 H8          0.1745    3.7468    1.6628 H         1 <0>         0.1625
     33 H9         -0.9199    4.3565    3.7813 H         1 <0>         0.1423
     34 H10        -2.1080    1.5544   -1.1761 H         1 <0>         0.1348
     35 H11        -1.2479    3.1127   -1.1759 H         1 <0>         0.1344
     36 H12        -0.7188    1.8043   -2.2605 H         1 <0>         0.1422
     37 N3         -2.9493    3.5376    7.1691 N.pl3     1 <0>        -0.4610
     38 H13        -2.7747    3.8918    8.1168 H         1 <0>         0.4856
@<TRIPOS>BOND
     1    1    2 1
     2    1   25 1
     3    1   26 1
     4    1   27 1
     5    2    6 1
     6    2    3 2
     7    3    4 1
     8    4    5 2
     9    4    7 1
    10    5    6 1
    11    5   28 1
    12    7   10 1
    13    7   37 2
    14    8    9 2
    15    8   21 1
    16    8   37 1
    17    9   10 1
    18    9   29 1
    19   10   11 1
    20   11   16 ar
    21   11   12 ar
    22   12   13 ar
    23   12   30 1
    24   13   14 ar
    25   13   31 1
    26   14   15 ar
    27   14   17 1
    28   15   16 ar
    29   15   32 1
    30   16   33 1
    31   17   18 2
    32   17   19 2
    33   17   20 1
    34   20   34 1
    35   20   35 1
    36   20   36 1
    37   21   22 1
    38   21   23 1
    39   21   24 1
    40   37   38 1
@<TRIPOS>MOLECULE
ZINC03814633
   36    38     0     0     0
SMALL
USER_CHARGES

@<TRIPOS>ATOM
      1 C1         -5.3418    4.1159    6.1972 C.3       1 <0>        -0.0697
      2 C2         -4.9739    3.6395    4.8156 C.2       1 <0>         0.1040
      3 N1         -3.7961    3.3040    4.3509 N.2       1 <0>        -0.5094
      4 C3         -3.6345    2.9052    3.0972 C.2       1 <0>         0.1079
      5 C4         -4.7474    2.8425    2.2976 C.2       1 <0>        -0.1505
      6 S1         -6.0057    3.3903    3.4419 S.3       1 <0>         0.0857
      7 C5         -2.3010    2.5348    2.5799 C.2       1 <0>         0.3079
      8 N2         -2.0341    2.1289    1.3575 N.2       1 <0>        -0.4277
      9 C6         -0.7223    1.8808    1.2496 C.2       1 <0>        -0.0809
     10 C7         -0.1390    2.1447    2.4350 C.2       1 <0>         0.0358
     11 N3         -1.1318    2.5608    3.2877 N.pl3     1 <0>        -0.4035
     12 C8         -0.9761    2.9392    4.6280 C.ar      1 <0>         0.1729
     13 C9         -1.5130    4.1374    5.0794 C.ar      1 <0>        -0.0715
     14 C10        -1.3632    4.5047    6.4025 C.ar      1 <0>        -0.0100
     15 C11        -0.6688    3.6862    7.2743 C.ar      1 <0>        -0.6657
     16 C12        -0.1281    2.4949    6.8263 C.ar      1 <0>        -0.0085
     17 C13        -0.2799    2.1193    5.5059 C.ar      1 <0>        -0.1299
     18 S2         -0.4731    4.1619    8.9595 S.o2      1 <0>         2.7019
     19 O1         -1.5377    5.0554    9.2556 O.2       1 <0>        -0.9581
     20 O2         -0.2546    2.9666    9.6962 O.2       1 <0>        -0.9586
     21 N4          0.9257    5.0425    9.0604 N.pl3     1 <0>        -1.2492
     22 C14        -0.0169    1.3948    0.0097 C.3       1 <0>         0.5583
     23 F1          0.0021   -0.0041    0.0020 F         1 <0>        -0.1699
     24 F2          1.2956    1.8790   -0.0002 F         1 <0>        -0.1709
     25 F3         -0.6935    1.8582   -1.1237 F         1 <0>        -0.1641
     26 H1         -6.4148    4.3019    6.2436 H         1 <0>         0.0921
     27 H2         -5.0733    3.3532    6.9280 H         1 <0>         0.0968
     28 H3         -4.8035    5.0373    6.4191 H         1 <0>         0.0980
     29 H4         -4.8380    2.5446    1.2634 H         1 <0>         0.2101
     30 H5          0.9106    2.0473    2.6701 H         1 <0>         0.2001
     31 H6         -2.0513    4.7794    4.3979 H         1 <0>         0.1380
     32 H7         -1.7847    5.4343    6.7553 H         1 <0>         0.1523
     33 H8          0.4137    1.8577    7.5096 H         1 <0>         0.1540
     34 H9          0.1430    1.1890    5.1566 H         1 <0>         0.1416
     35 H10         1.4574    5.2012    8.2648 H         1 <0>         0.4173
     36 H11         1.2135    5.3995    9.9152 H         1 <0>         0.4231
@<TRIPOS>BOND
     1    1    2 1
     2    1   26 1
     3    1   27 1
     4    1   28 1
     5    2    6 1
     6    2    3 2
     7    3    4 1
     8    4    5 2
     9    4    7 1
    10    5    6 1
    11    5   29 1
    12    7   11 1
    13    7    8 2
    14    8    9 1
    15    9   10 2
    16    9   22 1
    17   10   11 1
    18   10   30 1
    19   11   12 1
    20   12   17 ar
    21   12   13 ar
    22   13   14 ar
    23   13   31 1
    24   14   15 ar
    25   14   32 1
    26   15   16 ar
    27   15   18 1
    28   16   17 ar
    29   16   33 1
    30   17   34 1
    31   18   19 2
    32   18   20 2
    33   18   21 1
    34   21   35 1
    35   21   36 1
    36   22   23 1
    37   22   24 1
    38   22   25 1
@<TRIPOS>MOLECULE
ZINC03814633
   37    39     0     0     0
SMALL
USER_CHARGES

@<TRIPOS>ATOM
      1 C1         -5.3418    4.1159    6.1972 C.3       1 <0>        -0.0821
      2 C2         -4.9739    3.6395    4.8156 C.2       1 <0>         0.1270
      3 N1         -3.7961    3.3040    4.3509 N.2       1 <0>        -0.5084
      4 C3         -3.6345    2.9052    3.0972 C.2       1 <0>         0.0593
      5 C4         -4.7474    2.8425    2.2976 C.2       1 <0>        -0.1740
      6 S1         -6.0057    3.3903    3.4419 S.3       1 <0>         0.1975
      7 C5         -2.3010    2.5348    2.5799 C.cat     1 <0>         0.4396
      8 C6         -0.7223    1.8808    1.2496 C.2       1 <0>        -0.0677
      9 C7         -0.1390    2.1447    2.4350 C.2       1 <0>         0.1185
     10 N2         -1.1318    2.5608    3.2877 N.pl3     1 <0>        -0.3537
     11 C8         -0.9761    2.9392    4.6280 C.ar      1 <0>         0.1222
     12 C9         -1.5130    4.1374    5.0794 C.ar      1 <0>        -0.0577
     13 C10        -1.3632    4.5047    6.4025 C.ar      1 <0>        -0.0067
     14 C11        -0.6688    3.6862    7.2743 C.ar      1 <0>        -0.6425
     15 C12        -0.1281    2.4949    6.8263 C.ar      1 <0>        -0.0042
     16 C13        -0.2799    2.1193    5.5059 C.ar      1 <0>        -0.1073
     17 S2         -0.4731    4.1619    8.9595 S.o2      1 <0>         2.6983
     18 O1         -1.5377    5.0554    9.2556 O.2       1 <0>        -0.9484
     19 O2         -0.2546    2.9666    9.6962 O.2       1 <0>        -0.9475
     20 N3          0.9257    5.0425    9.0604 N.pl3     1 <0>        -1.2461
     21 C14        -0.0169    1.3948    0.0097 C.3       1 <0>         0.5549
     22 F1          0.0021   -0.0041    0.0020 F         1 <0>        -0.1467
     23 F2          1.2956    1.8790   -0.0002 F         1 <0>        -0.1421
     24 F3         -0.6935    1.8582   -1.1237 F         1 <0>        -0.1567
     25 H1         -6.4148    4.3019    6.2436 H         1 <0>         0.1031
     26 H2         -5.0733    3.3532    6.9280 H         1 <0>         0.1082
     27 H3         -4.8035    5.0373    6.4191 H         1 <0>         0.1092
     28 H4         -4.8380    2.5446    1.2634 H         1 <0>         0.2135
     29 H5          0.9106    2.0473    2.6701 H         1 <0>         0.2445
     30 H6         -2.0513    4.7794    4.3979 H         1 <0>         0.1440
     31 H7         -1.7847    5.4343    6.7553 H         1 <0>         0.1638
     32 H8          0.4137    1.8577    7.5096 H         1 <0>         0.1664
     33 H9          0.1430    1.1890    5.1566 H         1 <0>         0.1509
     34 H10         1.4574    5.2012    8.2648 H         1 <0>         0.4174
     35 H11         1.2135    5.3995    9.9152 H         1 <0>         0.4282
     36 N4         -2.0334    2.1290    1.3582 N.pl3     1 <0>        -0.4605
     37 H12        -2.7225    2.0195    0.6050 H         1 <0>         0.4859
@<TRIPOS>BOND
     1    1    2 1
     2    1   25 1
     3    1   26 1
     4    1   27 1
     5    2    6 1
     6    2    3 2
     7    3    4 1
     8    4    5 2
     9    4    7 1
    10    5    6 1
    11    5   28 1
    12    7   10 1
    13    7   36 2
    14    8    9 2
    15    8   21 1
    16    8   36 1
    17    9   10 1
    18    9   29 1
    19   10   11 1
    20   11   16 ar
    21   11   12 ar
    22   12   13 ar
    23   12   30 1
    24   13   14 ar
    25   13   31 1
    26   14   15 ar
    27   14   17 1
    28   15   16 ar
    29   15   32 1
    30   16   33 1
    31   17   18 2
    32   17   19 2
    33   17   20 1
    34   20   34 1
    35   20   35 1
    36   21   22 1
    37   21   23 1
    38   21   24 1
    39   36   37 1
@<TRIPOS>MOLECULE
ZINC03814634
   36    38     0     0     0
SMALL
USER_CHARGES

@<TRIPOS>ATOM
      1 C1         -4.4394    0.9320    7.9627 C.3       1 <0>        -0.0728
      2 C2         -3.6291    0.9555    6.6923 C.2       1 <0>         0.0965
      3 N1         -2.8901    0.0027    6.1687 N.2       1 <0>        -0.5129
      4 C3         -2.2368    0.1773    5.0444 C.2       1 <0>         0.1117
      5 C4         -2.3446    1.3960    4.4183 C.2       1 <0>        -0.1697
      6 S1         -3.4289    2.2508    5.5531 S.3       1 <0>         0.0927
      7 C5         -1.7326    1.8678    3.1658 C.2       1 <0>         0.3292
      8 N2         -1.1690    1.1094    2.2483 N.2       1 <0>        -0.4184
      9 C6         -0.7223    1.8808    1.2496 C.2       1 <0>        -0.0764
     10 C7         -1.0044    3.1658    1.5424 C.2       1 <0>         0.0399
     11 N3         -1.6511    3.1702    2.7536 N.pl3     1 <0>        -0.4150
     12 C8         -2.1306    4.2940    3.4395 C.ar      1 <0>         0.1690
     13 C9         -3.4343    4.3138    3.9168 C.ar      1 <0>        -0.1346
     14 C10        -3.9028    5.4215    4.5959 C.ar      1 <0>         0.0117
     15 C11        -3.0779    6.5137    4.7926 C.ar      1 <0>        -0.6699
     16 C12        -1.7805    6.4989    4.3142 C.ar      1 <0>         0.0067
     17 C13        -1.3048    5.3924    3.6382 C.ar      1 <0>        -0.1278
     18 S2         -3.6813    7.9274    5.6540 S.o2      1 <0>         2.7025
     19 O1         -4.7499    7.4770    6.4753 O.2       1 <0>        -0.9544
     20 O2         -2.5446    8.5969    6.1821 O.2       1 <0>        -0.9547
     21 N4         -4.3461    8.9412    4.5260 N.pl3     1 <0>        -1.2481
     22 C14        -0.0169    1.3948    0.0097 C.3       1 <0>         0.5571
     23 F1          0.0021   -0.0041    0.0020 F         1 <0>        -0.1608
     24 F2          1.2956    1.8790   -0.0002 F         1 <0>        -0.1698
     25 F3         -0.6935    1.8582   -1.1237 F         1 <0>        -0.1700
     26 H1         -3.8206    1.2685    8.7946 H         1 <0>         0.0979
     27 H2         -5.2987    1.5942    7.8579 H         1 <0>         0.0921
     28 H3         -4.7848   -0.0839    8.1545 H         1 <0>         0.0995
     29 H4         -1.6328   -0.6129    4.6234 H         1 <0>         0.1836
     30 H5         -0.7683    4.0289    0.9375 H         1 <0>         0.2025
     31 H6         -4.0803    3.4626    3.7600 H         1 <0>         0.1499
     32 H7         -4.9157    5.4361    4.9704 H         1 <0>         0.1609
     33 H8         -1.1387    7.3536    4.4690 H         1 <0>         0.1604
     34 H9         -0.2917    5.3818    3.2641 H         1 <0>         0.1491
     35 H10        -4.3441    8.6918    3.5886 H         1 <0>         0.4177
     36 H11        -4.7375    9.7845    4.8027 H         1 <0>         0.4244
@<TRIPOS>BOND
     1    1    2 1
     2    1   26 1
     3    1   27 1
     4    1   28 1
     5    2    6 1
     6    2    3 2
     7    3    4 1
     8    4    5 2
     9    4   29 1
    10    5    6 1
    11    5    7 1
    12    7   11 1
    13    7    8 2
    14    8    9 1
    15    9   10 2
    16    9   22 1
    17   10   11 1
    18   10   30 1
    19   11   12 1
    20   12   17 ar
    21   12   13 ar
    22   13   14 ar
    23   13   31 1
    24   14   15 ar
    25   14   32 1
    26   15   16 ar
    27   15   18 1
    28   16   17 ar
    29   16   33 1
    30   17   34 1
    31   18   19 2
    32   18   20 2
    33   18   21 1
    34   21   35 1
    35   21   36 1
    36   22   23 1
    37   22   24 1
    38   22   25 1
@<TRIPOS>MOLECULE
ZINC03814634
   37    39     0     0     0
SMALL
USER_CHARGES

@<TRIPOS>ATOM
      1 C1         -4.4394    0.9320    7.9627 C.3       1 <0>        -0.0914
      2 C2         -3.6291    0.9555    6.6923 C.2       1 <0>         0.1543
      3 N1         -2.8901    0.0027    6.1687 N.2       1 <0>        -0.5200
      4 C3         -2.2368    0.1773    5.0444 C.2       1 <0>         0.1782
      5 C4         -2.3446    1.3960    4.4183 C.2       1 <0>        -0.2989
      6 S1         -3.4289    2.2508    5.5531 S.3       1 <0>         0.1743
      7 C5         -1.7326    1.8678    3.1658 C.cat     1 <0>         0.4784
      8 C6         -0.7223    1.8808    1.2496 C.2       1 <0>        -0.0660
      9 C7         -1.0044    3.1658    1.5424 C.2       1 <0>         0.1209
     10 N2         -1.6511    3.1702    2.7536 N.pl3     1 <0>        -0.3742
     11 C8         -2.1306    4.2940    3.4395 C.ar      1 <0>         0.1253
     12 C9         -3.4343    4.3138    3.9168 C.ar      1 <0>        -0.1259
     13 C10        -3.9028    5.4215    4.5959 C.ar      1 <0>         0.0138
     14 C11        -3.0779    6.5137    4.7926 C.ar      1 <0>        -0.6482
     15 C12        -1.7805    6.4989    4.3142 C.ar      1 <0>         0.0130
     16 C13        -1.3048    5.3924    3.6382 C.ar      1 <0>        -0.1060
     17 S2         -3.6813    7.9274    5.6540 S.o2      1 <0>         2.6984
     18 O1         -4.7499    7.4770    6.4753 O.2       1 <0>        -0.9450
     19 O2         -2.5446    8.5969    6.1821 O.2       1 <0>        -0.9435
     20 N3         -4.3461    8.9412    4.5260 N.pl3     1 <0>        -1.2449
     21 C14        -0.0169    1.3948    0.0097 C.3       1 <0>         0.5548
     22 F1          0.0021   -0.0041    0.0020 F         1 <0>        -0.1580
     23 F2          1.2956    1.8790   -0.0002 F         1 <0>        -0.1441
     24 F3         -0.6935    1.8582   -1.1237 F         1 <0>        -0.1432
     25 H1         -3.8206    1.2685    8.7946 H         1 <0>         0.1160
     26 H2         -5.2987    1.5942    7.8579 H         1 <0>         0.1058
     27 H3         -4.7848   -0.0839    8.1545 H         1 <0>         0.1143
     28 H4         -1.6328   -0.6129    4.6234 H         1 <0>         0.1868
     29 H5         -0.7683    4.0289    0.9375 H         1 <0>         0.2450
     30 H6         -4.0803    3.4626    3.7600 H         1 <0>         0.1544
     31 H7         -4.9157    5.4361    4.9704 H         1 <0>         0.1720
     32 H8         -1.1387    7.3536    4.4690 H         1 <0>         0.1727
     33 H9         -0.2917    5.3818    3.2641 H         1 <0>         0.1586
     34 H10        -4.3441    8.6918    3.5886 H         1 <0>         0.4178
     35 H11        -4.7375    9.7845    4.8027 H         1 <0>         0.4295
     36 N4         -1.1691    1.1104    2.2483 N.pl3     1 <0>        -0.4633
     37 H12        -1.0855    0.0880    2.2921 H         1 <0>         0.4884
@<TRIPOS>BOND
     1    1    2 1
     2    1   25 1
     3    1   26 1
     4    1   27 1
     5    2    6 1
     6    2    3 2
     7    3    4 1
     8    4    5 2
     9    4   28 1
    10    5    6 1
    11    5    7 1
    12    7   10 1
    13    7   36 2
    14    8    9 2
    15    8   21 1
    16    8   36 1
    17    9   10 1
    18    9   29 1
    19   10   11 1
    20   11   16 ar
    21   11   12 ar
    22   12   13 ar
    23   12   30 1
    24   13   14 ar
    25   13   31 1
    26   14   15 ar
    27   14   17 1
    28   15   16 ar
    29   15   32 1
    30   16   33 1
    31   17   18 2
    32   17   19 2
    33   17   20 1
    34   20   34 1
    35   20   35 1
    36   21   22 1
    37   21   23 1
    38   21   24 1
    39   36   37 1
@<TRIPOS>MOLECULE
ZINC03814635
   36    38     0     0     0
SMALL
USER_CHARGES

@<TRIPOS>ATOM
      1 C1         -7.2161    3.2575    2.3681 C.3       1 <0>        -0.0863
      2 C2         -5.8977    3.2660    3.0982 C.2       1 <0>         0.0538
      3 C3         -5.8434    3.6503    4.4026 C.2       1 <0>        -0.1902
      4 S1         -4.0954    3.4610    4.7301 S.3       1 <0>         0.0525
      5 C4         -3.6274    2.9024    3.0973 C.2       1 <0>         0.1484
      6 N1         -4.8015    2.9036    2.4777 N.2       1 <0>        -0.4427
      7 C5         -2.2986    2.5342    2.5809 C.2       1 <0>         0.3082
      8 N2         -2.0315    2.1283    1.3571 N.2       1 <0>        -0.3848
      9 C6         -0.7223    1.8808    1.2496 C.2       1 <0>        -0.0809
     10 C7         -0.1377    2.1451    2.4370 C.2       1 <0>         0.0537
     11 N3         -1.1276    2.5601    3.2886 N.pl3     1 <0>        -0.4060
     12 C8         -0.9708    2.9387    4.6284 C.ar      1 <0>         0.1595
     13 C9         -1.5068    4.1375    5.0799 C.ar      1 <0>        -0.1312
     14 C10        -1.3547    4.5057    6.4023 C.ar      1 <0>         0.0109
     15 C11        -0.6604    3.6869    7.2740 C.ar      1 <0>        -0.6673
     16 C12        -0.1210    2.4950    6.8262 C.ar      1 <0>         0.0055
     17 C13        -0.2742    2.1188    5.5062 C.ar      1 <0>        -0.1240
     18 S2         -0.4623    4.1637    8.9587 S.o2      1 <0>         2.7022
     19 O1         -1.5259    5.0580    9.2555 O.2       1 <0>        -0.9541
     20 O2         -0.2435    2.9688    9.6959 O.2       1 <0>        -0.9543
     21 N4          0.9372    5.0435    9.0572 N.pl3     1 <0>        -1.2479
     22 C14        -0.0169    1.3948    0.0097 C.3       1 <0>         0.5589
     23 F1          0.0021   -0.0041    0.0020 F         1 <0>        -0.1679
     24 F2          1.2956    1.8790   -0.0002 F         1 <0>        -0.1695
     25 F3         -0.6935    1.8582   -1.1237 F         1 <0>        -0.1613
     26 H1         -7.6900    2.2829    2.4852 H         1 <0>         0.0785
     27 H2         -7.8653    4.0292    2.7816 H         1 <0>         0.0784
     28 H3         -7.0465    3.4541    1.3095 H         1 <0>         0.0793
     29 H4         -6.6369    3.9752    5.0594 H         1 <0>         0.2067
     30 H5          0.9121    2.0483    2.6715 H         1 <0>         0.2083
     31 H6         -2.0456    4.7793    4.3986 H         1 <0>         0.1486
     32 H7         -1.7752    5.4358    6.7551 H         1 <0>         0.1613
     33 H8          0.4210    1.8579    7.5093 H         1 <0>         0.1611
     34 H9          0.1476    1.1879    5.1569 H         1 <0>         0.1506
     35 H10         1.4679    5.2014    8.2607 H         1 <0>         0.4177
     36 H11         1.2263    5.4010    9.9113 H         1 <0>         0.4244
@<TRIPOS>BOND
     1    1    2 1
     2    1   26 1
     3    1   27 1
     4    1   28 1
     5    2    6 1
     6    2    3 2
     7    3    4 1
     8    3   29 1
     9    4    5 1
    10    5    6 2
    11    5    7 1
    12    7   11 1
    13    7    8 2
    14    8    9 1
    15    9   10 2
    16    9   22 1
    17   10   11 1
    18   10   30 1
    19   11   12 1
    20   12   17 ar
    21   12   13 ar
    22   13   14 ar
    23   13   31 1
    24   14   15 ar
    25   14   32 1
    26   15   16 ar
    27   15   18 1
    28   16   17 ar
    29   16   33 1
    30   17   34 1
    31   18   19 2
    32   18   20 2
    33   18   21 1
    34   21   35 1
    35   21   36 1
    36   22   23 1
    37   22   24 1
    38   22   25 1
@<TRIPOS>MOLECULE
ZINC03814635
   37    39     0     0     0
SMALL
USER_CHARGES

@<TRIPOS>ATOM
      1 C1         -7.2161    3.2575    2.3681 C.3       1 <0>        -0.0934
      2 C2         -5.8977    3.2660    3.0982 C.2       1 <0>         0.0514
      3 C3         -5.8434    3.6503    4.4026 C.2       1 <0>        -0.1308
      4 S1         -4.0954    3.4610    4.7301 S.3       1 <0>         0.1713
      5 C4         -3.6274    2.9024    3.0973 C.2       1 <0>         0.0054
      6 N1         -4.8015    2.9036    2.4777 N.2       1 <0>        -0.4187
      7 C5         -2.2986    2.5342    2.5809 C.cat     1 <0>         0.4605
      8 C6         -0.7223    1.8808    1.2496 C.2       1 <0>        -0.0626
      9 C7         -0.1377    2.1451    2.4370 C.2       1 <0>         0.1274
     10 N2         -1.1276    2.5601    3.2886 N.pl3     1 <0>        -0.3603
     11 C8         -0.9708    2.9387    4.6284 C.ar      1 <0>         0.1135
     12 C9         -1.5068    4.1375    5.0799 C.ar      1 <0>        -0.1242
     13 C10        -1.3547    4.5057    6.4023 C.ar      1 <0>         0.0129
     14 C11        -0.6604    3.6869    7.2740 C.ar      1 <0>        -0.6454
     15 C12        -0.1210    2.4950    6.8262 C.ar      1 <0>         0.0118
     16 C13        -0.2742    2.1188    5.5062 C.ar      1 <0>        -0.1015
     17 S2         -0.4623    4.1637    8.9587 S.o2      1 <0>         2.6980
     18 O1         -1.5259    5.0580    9.2555 O.2       1 <0>        -0.9444
     19 O2         -0.2435    2.9688    9.6959 O.2       1 <0>        -0.9429
     20 N3          0.9372    5.0435    9.0572 N.pl3     1 <0>        -1.2447
     21 C14        -0.0169    1.3948    0.0097 C.3       1 <0>         0.5547
     22 F1          0.0021   -0.0041    0.0020 F         1 <0>        -0.1452
     23 F2          1.2956    1.8790   -0.0002 F         1 <0>        -0.1412
     24 F3         -0.6935    1.8582   -1.1237 F         1 <0>        -0.1544
     25 H1         -7.6900    2.2829    2.4852 H         1 <0>         0.0882
     26 H2         -7.8653    4.0292    2.7816 H         1 <0>         0.0899
     27 H3         -7.0465    3.4541    1.3095 H         1 <0>         0.0848
     28 H4         -6.6369    3.9752    5.0594 H         1 <0>         0.2255
     29 H5          0.9121    2.0483    2.6715 H         1 <0>         0.2503
     30 H6         -2.0456    4.7793    4.3986 H         1 <0>         0.1543
     31 H7         -1.7752    5.4358    6.7551 H         1 <0>         0.1729
     32 H8          0.4210    1.8579    7.5093 H         1 <0>         0.1738
     33 H9          0.1476    1.1879    5.1569 H         1 <0>         0.1603
     34 H10         1.4679    5.2014    8.2607 H         1 <0>         0.4179
     35 H11         1.2263    5.4010    9.9113 H         1 <0>         0.4296
     36 N4         -2.0308    2.1284    1.3579 N.pl3     1 <0>        -0.4394
     37 H12        -2.7198    2.0192    0.6046 H         1 <0>         0.4949
@<TRIPOS>BOND
     1    1    2 1
     2    1   25 1
     3    1   26 1
     4    1   27 1
     5    2    6 1
     6    2    3 2
     7    3    4 1
     8    3   28 1
     9    4    5 1
    10    5    6 2
    11    5    7 1
    12    7   10 1
    13    7   36 2
    14    8    9 2
    15    8   21 1
    16    8   36 1
    17    9   10 1
    18    9   29 1
    19   10   11 1
    20   11   16 ar
    21   11   12 ar
    22   12   13 ar
    23   12   30 1
    24   13   14 ar
    25   13   31 1
    26   14   15 ar
    27   14   17 1
    28   15   16 ar
    29   15   32 1
    30   16   33 1
    31   17   18 2
    32   17   19 2
    33   17   20 1
    34   20   34 1
    35   20   35 1
    36   21   22 1
    37   21   23 1
    38   21   24 1
    39   36   37 1
@<TRIPOS>MOLECULE
ZINC03814636
   36    38     0     0     0
SMALL
USER_CHARGES

@<TRIPOS>ATOM
      1 C1         -7.2547    3.4744    3.0690 C.3       1 <0>        -0.0785
      2 C2         -5.7740    3.3043    3.2919 C.2       1 <0>        -0.0180
      3 C3         -4.8637    2.8896    2.3825 C.2       1 <0>        -0.1897
      4 C4         -3.6328    2.9027    3.0988 C.2       1 <0>         0.0787
      5 N1         -3.9218    3.3146    4.3101 N.2       1 <0>        -0.3459
      6 O1         -5.1037    3.5399    4.4289 O.3       1 <0>         0.1203
      7 C5         -2.2974    2.5328    2.5799 C.2       1 <0>         0.3022
      8 N2         -2.0314    2.1285    1.3578 N.2       1 <0>        -0.4087
      9 C6         -0.7223    1.8808    1.2496 C.2       1 <0>        -0.0811
     10 C7         -0.1383    2.1453    2.4375 C.2       1 <0>         0.0435
     11 N3         -1.1285    2.5593    3.2872 N.pl3     1 <0>        -0.4017
     12 C8         -0.9730    2.9384    4.6273 C.ar      1 <0>         0.1613
     13 C9         -1.5103    4.1367    5.0780 C.ar      1 <0>        -0.0980
     14 C10        -1.3591    4.5057    6.4004 C.ar      1 <0>         0.0027
     15 C11        -0.6648    3.6877    7.2728 C.ar      1 <0>        -0.6657
     16 C12        -0.1244    2.4960    6.8257 C.ar      1 <0>        -0.0029
     17 C13        -0.2764    2.1193    5.5056 C.ar      1 <0>        -0.1281
     18 S1         -0.4677    4.1653    8.9573 S.o2      1 <0>         2.7030
     19 O2         -1.5321    5.0591    9.2532 O.2       1 <0>        -0.9552
     20 O3         -0.2486    2.9708    9.6951 O.2       1 <0>        -0.9566
     21 N4          0.9312    5.0461    9.0561 N.pl3     1 <0>        -1.2485
     22 C14        -0.0169    1.3948    0.0097 C.3       1 <0>         0.5592
     23 F1          0.0021   -0.0041    0.0020 F         1 <0>        -0.1687
     24 F2          1.2956    1.8790   -0.0002 F         1 <0>        -0.1698
     25 F3         -0.6935    1.8582   -1.1237 F         1 <0>        -0.1629
     26 H1         -7.7223    3.8272    3.9882 H         1 <0>         0.0877
     27 H2         -7.4213    4.2016    2.2743 H         1 <0>         0.0964
     28 H3         -7.6914    2.5175    2.7833 H         1 <0>         0.0960
     29 H4         -5.0312    2.6109    1.3526 H         1 <0>         0.1844
     30 H5          0.9113    2.0490    2.6729 H         1 <0>         0.2040
     31 H6         -2.0491    4.7779    4.3961 H         1 <0>         0.1391
     32 H7         -1.7800    5.4359    6.7524 H         1 <0>         0.1570
     33 H8          0.4174    1.8592    7.5094 H         1 <0>         0.1578
     34 H9          0.1465    1.1887    5.1569 H         1 <0>         0.1456
     35 H10         1.4622    5.2039    8.2598 H         1 <0>         0.4172
     36 H11         1.2196    5.4041    9.9102 H         1 <0>         0.4237
@<TRIPOS>BOND
     1    1    2 1
     2    1   26 1
     3    1   27 1
     4    1   28 1
     5    2    6 1
     6    2    3 2
     7    3    4 1
     8    3   29 1
     9    4    5 2
    10    4    7 1
    11    5    6 1
    12    7   11 1
    13    7    8 2
    14    8    9 1
    15    9   10 2
    16    9   22 1
    17   10   11 1
    18   10   30 1
    19   11   12 1
    20   12   17 ar
    21   12   13 ar
    22   13   14 ar
    23   13   31 1
    24   14   15 ar
    25   14   32 1
    26   15   16 ar
    27   15   18 1
    28   16   17 ar
    29   16   33 1
    30   17   34 1
    31   18   19 2
    32   18   20 2
    33   18   21 1
    34   21   35 1
    35   21   36 1
    36   22   23 1
    37   22   24 1
    38   22   25 1
@<TRIPOS>MOLECULE
ZINC03814636
   37    39     0     0     0
SMALL
USER_CHARGES

@<TRIPOS>ATOM
      1 C1         -7.2547    3.4744    3.0690 C.3       1 <0>        -0.0936
      2 C2         -5.7740    3.3043    3.2919 C.2       1 <0>         0.0308
      3 C3         -4.8637    2.8896    2.3825 C.2       1 <0>        -0.2089
      4 C4         -3.6328    2.9027    3.0988 C.2       1 <0>         0.0064
      5 N1         -3.9218    3.3146    4.3101 N.2       1 <0>        -0.3004
      6 O1         -5.1037    3.5399    4.4289 O.3       1 <0>         0.1581
      7 C5         -2.2974    2.5328    2.5799 C.cat     1 <0>         0.4383
      8 C6         -0.7223    1.8808    1.2496 C.2       1 <0>        -0.0632
      9 C7         -0.1383    2.1453    2.4375 C.2       1 <0>         0.1237
     10 N2         -1.1285    2.5593    3.2872 N.pl3     1 <0>        -0.3489
     11 C8         -0.9730    2.9384    4.6273 C.ar      1 <0>         0.1089
     12 C9         -1.5103    4.1367    5.0780 C.ar      1 <0>        -0.0863
     13 C10        -1.3591    4.5057    6.4004 C.ar      1 <0>         0.0065
     14 C11        -0.6648    3.6877    7.2728 C.ar      1 <0>        -0.6418
     15 C12        -0.1244    2.4960    6.8257 C.ar      1 <0>         0.0024
     16 C13        -0.2764    2.1193    5.5056 C.ar      1 <0>        -0.1048
     17 S1         -0.4677    4.1653    8.9573 S.o2      1 <0>         2.6988
     18 O2         -1.5321    5.0591    9.2532 O.2       1 <0>        -0.9447
     19 O3         -0.2486    2.9708    9.6951 O.2       1 <0>        -0.9450
     20 N3          0.9312    5.0461    9.0561 N.pl3     1 <0>        -1.2453
     21 C14        -0.0169    1.3948    0.0097 C.3       1 <0>         0.5555
     22 F1          0.0021   -0.0041    0.0020 F         1 <0>        -0.1449
     23 F2          1.2956    1.8790   -0.0002 F         1 <0>        -0.1405
     24 F3         -0.6935    1.8582   -1.1237 F         1 <0>        -0.1550
     25 H1         -7.7223    3.8272    3.9882 H         1 <0>         0.1001
     26 H2         -7.4213    4.2016    2.2743 H         1 <0>         0.1090
     27 H3         -7.6914    2.5175    2.7833 H         1 <0>         0.1087
     28 H4         -5.0312    2.6109    1.3526 H         1 <0>         0.1937
     29 H5          0.9113    2.0490    2.6729 H         1 <0>         0.2487
     30 H6         -2.0491    4.7779    4.3961 H         1 <0>         0.1447
     31 H7         -1.7800    5.4359    6.7524 H         1 <0>         0.1689
     32 H8          0.4174    1.8592    7.5094 H         1 <0>         0.1708
     33 H9          0.1465    1.1887    5.1569 H         1 <0>         0.1554
     34 H10         1.4622    5.2039    8.2598 H         1 <0>         0.4173
     35 H11         1.2196    5.4041    9.9102 H         1 <0>         0.4289
     36 N4         -2.0307    2.1286    1.3586 N.pl3     1 <0>        -0.4425
     37 H12        -2.7200    2.0201    0.6055 H         1 <0>         0.4904
@<TRIPOS>BOND
     1    1    2 1
     2    1   25 1
     3    1   26 1
     4    1   27 1
     5    2    6 1
     6    2    3 2
     7    3    4 1
     8    3   28 1
     9    4    5 2
    10    4    7 1
    11    5    6 1
    12    7   10 1
    13    7   36 2
    14    8    9 2
    15    8   21 1
    16    8   36 1
    17    9   10 1
    18    9   29 1
    19   10   11 1
    20   11   16 ar
    21   11   12 ar
    22   12   13 ar
    23   12   30 1
    24   13   14 ar
    25   13   31 1
    26   14   15 ar
    27   14   17 1
    28   15   16 ar
    29   15   32 1
    30   16   33 1
    31   17   18 2
    32   17   19 2
    33   17   20 1
    34   20   34 1
    35   20   35 1
    36   21   22 1
    37   21   23 1
    38   21   24 1
    39   36   37 1
@<TRIPOS>MOLECULE
ZINC03814637
   43    45     0     0     0
SMALL
USER_CHARGES

@<TRIPOS>ATOM
      1 C1          7.5661    0.3922    3.9913 C.3       1 <0>         0.0256
      2 O1          7.4052    0.6082    2.5879 O.3       1 <0>        -0.3164
      3 C2          6.1343    0.6242    2.1081 C.ar      1 <0>         0.1326
      4 C3          5.9085    0.8294    0.7530 C.ar      1 <0>        -0.1504
      5 C4          4.6212    0.8460    0.2615 C.ar      1 <0>        -0.0651
      6 C5          3.5418    0.6559    1.1291 C.ar      1 <0>        -0.0831
      7 C6          3.7739    0.4550    2.4928 C.ar      1 <0>        -0.0594
      8 C7          5.0649    0.4348    2.9741 C.ar      1 <0>        -0.2059
      9 C8          2.1635    0.6732    0.6087 C.2       1 <0>        -0.0595
     10 C9          1.3336   -0.3783    0.6110 C.2       1 <0>        -0.1110
     11 C10         0.0021   -0.0041    0.0020 C.3       1 <0>        -0.0824
     12 C11        -0.0189    1.5412    0.0105 C.3       1 <0>        -0.1223
     13 C12         1.4889    1.8797   -0.0021 C.3       1 <0>        -0.0889
     14 C13         1.6720   -1.7140    1.1340 C.ar      1 <0>         0.0304
     15 C14         2.6645   -2.4792    0.5158 C.ar      1 <0>        -0.1225
     16 C15         2.9791   -3.7263    1.0138 C.ar      1 <0>        -0.0208
     17 C16         2.3073   -4.2245    2.1163 C.ar      1 <0>        -0.6624
     18 C17         1.3197   -3.4746    2.7304 C.ar      1 <0>        -0.0219
     19 C18         0.9979   -2.2237    2.2469 C.ar      1 <0>        -0.1306
     20 S1          2.7119   -5.8214    2.7415 S.o2      1 <0>         2.4985
     21 O2          4.0616   -6.0327    2.3503 O.2       1 <0>        -0.9375
     22 O3          2.3551   -5.7736    4.1162 O.2       1 <0>        -0.9381
     23 C19         1.6175   -6.9616    1.8512 C.3       1 <0>        -0.6506
     24 H1          8.6270    0.4029    4.2412 H         1 <0>         0.1023
     25 H2          7.0552    1.1824    4.5415 H         1 <0>         0.0563
     26 H3          7.1388   -0.5734    4.2616 H         1 <0>         0.0572
     27 H4          6.7431    0.9765    0.0835 H         1 <0>         0.1332
     28 H5          4.4466    1.0053   -0.7923 H         1 <0>         0.1303
     29 H6          2.9428    0.3118    3.1675 H         1 <0>         0.1228
     30 H7          5.2454    0.2753    4.0268 H         1 <0>         0.1299
     31 H8         -0.8152   -0.3976    0.6064 H         1 <0>         0.0739
     32 H9         -0.0682   -0.3785   -1.0192 H         1 <0>         0.0800
     33 H10        -0.5129    1.9291   -0.8803 H         1 <0>         0.0780
     34 H11        -0.4957    1.9195    0.9147 H         1 <0>         0.0737
     35 H12         1.8351    2.0305   -1.0246 H         1 <0>         0.0818
     36 H13         1.6831    2.7677    0.5996 H         1 <0>         0.0763
     37 H14         3.1865   -2.0935   -0.3474 H         1 <0>         0.1316
     38 H15         3.7488   -4.3172    0.5396 H         1 <0>         0.1423
     39 H16         0.7998   -3.8697    3.5906 H         1 <0>         0.1428
     40 H17         0.2271   -1.6394    2.7274 H         1 <0>         0.1332
     41 H18         1.8088   -6.8874    0.7807 H         1 <0>         0.1315
     42 H19         1.8073   -7.9820    2.1843 H         1 <0>         0.1332
     43 H20         0.5787   -6.7007    2.0536 H         1 <0>         0.1315
@<TRIPOS>BOND
     1    1    2 1
     2    1   24 1
     3    1   25 1
     4    1   26 1
     5    2    3 1
     6    3    8 ar
     7    3    4 ar
     8    4    5 ar
     9    4   27 1
    10    5    6 ar
    11    5   28 1
    12    6    7 ar
    13    6    9 1
    14    7    8 ar
    15    7   29 1
    16    8   30 1
    17    9   13 1
    18    9   10 2
    19   10   11 1
    20   10   14 1
    21   11   12 1
    22   11   31 1
    23   11   32 1
    24   12   13 1
    25   12   33 1
    26   12   34 1
    27   13   35 1
    28   13   36 1
    29   14   19 ar
    30   14   15 ar
    31   15   16 ar
    32   15   37 1
    33   16   17 ar
    34   16   38 1
    35   17   18 ar
    36   17   20 1
    37   18   19 ar
    38   18   39 1
    39   19   40 1
    40   20   21 2
    41   20   22 2
    42   20   23 1
    43   23   41 1
    44   23   42 1
    45   23   43 1
@<TRIPOS>MOLECULE
ZINC03814638
   42    44     0     0     0
SMALL
USER_CHARGES

@<TRIPOS>ATOM
      1 C1          7.5440    0.6052    2.6368 C.3       1 <0>        -0.1182
      2 C2          6.1340    0.6228    2.1053 C.ar      1 <0>        -0.0811
      3 C3          5.9096    0.8280    0.7553 C.ar      1 <0>        -0.1195
      4 C4          4.6219    0.8454    0.2616 C.ar      1 <0>        -0.1017
      5 C5          3.5425    0.6552    1.1283 C.ar      1 <0>        -0.0497
      6 C6          3.7766    0.4539    2.4911 C.ar      1 <0>        -0.0966
      7 C7          5.0700    0.4333    2.9695 C.ar      1 <0>        -0.1183
      8 C8          2.1634    0.6729    0.6085 C.2       1 <0>        -0.0653
      9 C9          1.3337   -0.3782    0.6108 C.2       1 <0>        -0.1086
     10 C10         0.0021   -0.0041    0.0020 C.3       1 <0>        -0.0827
     11 C11        -0.0189    1.5412    0.0105 C.3       1 <0>        -0.1222
     12 C12         1.4890    1.8796   -0.0021 C.3       1 <0>        -0.0881
     13 C13         1.6722   -1.7140    1.1338 C.ar      1 <0>         0.0295
     14 C14         2.6646   -2.4792    0.5156 C.ar      1 <0>        -0.1227
     15 C15         2.9800   -3.7259    1.0140 C.ar      1 <0>        -0.0205
     16 C16         2.3083   -4.2242    2.1165 C.ar      1 <0>        -0.6620
     17 C17         1.3204   -3.4745    2.7304 C.ar      1 <0>        -0.0216
     18 C18         0.9982   -2.2238    2.2466 C.ar      1 <0>        -0.1299
     19 S1          2.7134   -5.8208    2.7420 S.o2      1 <0>         2.4990
     20 O1          4.0632   -6.0317    2.3510 O.2       1 <0>        -0.9374
     21 O2          2.3565   -5.7730    4.1166 O.2       1 <0>        -0.9377
     22 C19         1.6195   -6.9616    1.8518 C.3       1 <0>        -0.6507
     23 H1          7.8355    1.6146    2.9271 H         1 <0>         0.0717
     24 H2          7.5969   -0.0520    3.5048 H         1 <0>         0.0676
     25 H3          8.2195    0.2403    1.8631 H         1 <0>         0.0674
     26 H4          6.7449    0.9752    0.0867 H         1 <0>         0.1237
     27 H5          4.4483    1.0053   -0.7923 H         1 <0>         0.1222
     28 H6          2.9469    0.3106    3.1675 H         1 <0>         0.1196
     29 H7          5.2527    0.2733    4.0218 H         1 <0>         0.1233
     30 H8         -0.8151   -0.3976    0.6065 H         1 <0>         0.0746
     31 H9         -0.0683   -0.3785   -1.0192 H         1 <0>         0.0801
     32 H10        -0.5128    1.9291   -0.8803 H         1 <0>         0.0782
     33 H11        -0.4957    1.9195    0.9147 H         1 <0>         0.0741
     34 H12         1.8351    2.0304   -1.0246 H         1 <0>         0.0816
     35 H13         1.6832    2.7674    0.5997 H         1 <0>         0.0763
     36 H14         3.1862   -2.0936   -0.3479 H         1 <0>         0.1308
     37 H15         3.7499   -4.3166    0.5400 H         1 <0>         0.1423
     38 H16         0.8006   -3.8697    3.5907 H         1 <0>         0.1432
     39 H17         0.2272   -1.6397    2.7270 H         1 <0>         0.1332
     40 H18         1.8109   -6.8875    0.7813 H         1 <0>         0.1313
     41 H19         1.8097   -7.9818    2.1851 H         1 <0>         0.1332
     42 H20         0.5806   -6.7010    2.0541 H         1 <0>         0.1315
@<TRIPOS>BOND
     1    1    2 1
     2    1   23 1
     3    1   24 1
     4    1   25 1
     5    2    7 ar
     6    2    3 ar
     7    3    4 ar
     8    3   26 1
     9    4    5 ar
    10    4   27 1
    11    5    6 ar
    12    5    8 1
    13    6    7 ar
    14    6   28 1
    15    7   29 1
    16    8   12 1
    17    8    9 2
    18    9   10 1
    19    9   13 1
    20   10   11 1
    21   10   30 1
    22   10   31 1
    23   11   12 1
    24   11   32 1
    25   11   33 1
    26   12   34 1
    27   12   35 1
    28   13   18 ar
    29   13   14 ar
    30   14   15 ar
    31   14   36 1
    32   15   16 ar
    33   15   37 1
    34   16   17 ar
    35   16   19 1
    36   17   18 ar
    37   17   38 1
    38   18   39 1
    39   19   20 2
    40   19   21 2
    41   19   22 1
    42   22   40 1
    43   22   41 1
    44   22   42 1
@<TRIPOS>MOLECULE
ZINC03814639
   42    44     0     0     0
SMALL
USER_CHARGES

@<TRIPOS>ATOM
      1 C1          1.6185   -6.9616    1.8505 C.3       1 <0>        -0.6504
      2 S1          2.7126   -5.8213    2.7413 S.o2      1 <0>         2.4980
      3 O1          4.0623   -6.0324    2.3504 O.2       1 <0>        -0.9360
      4 O2          2.3554   -5.7738    4.1158 O.2       1 <0>        -0.9365
      5 C2          2.3079   -4.2244    2.1161 C.ar      1 <0>        -0.6600
      6 C3          1.3200   -3.4747    2.7301 C.ar      1 <0>        -0.0208
      7 C4          0.9982   -2.2238    2.2466 C.ar      1 <0>        -0.1278
      8 C5          1.6722   -1.7140    1.1338 C.ar      1 <0>         0.0209
      9 C6          2.6646   -2.4792    0.5155 C.ar      1 <0>        -0.1238
     10 C7          2.9799   -3.7260    1.0139 C.ar      1 <0>        -0.0200
     11 C8          1.3337   -0.3782    0.6108 C.2       1 <0>        -0.0919
     12 C9          2.1634    0.6729    0.6085 C.2       1 <0>        -0.0818
     13 C10         1.4890    1.8796   -0.0021 C.3       1 <0>        -0.0862
     14 C11        -0.0189    1.5412    0.0105 C.3       1 <0>        -0.1220
     15 C12         0.0021   -0.0041    0.0020 C.3       1 <0>        -0.0849
     16 C13         3.5424    0.6553    1.1286 C.ar      1 <0>        -0.0057
     17 C14         3.7762    0.4541    2.4915 C.ar      1 <0>        -0.1041
     18 C15         5.0696    0.4326    2.9700 C.ar      1 <0>        -0.0658
     19 C16         6.1337    0.6220    2.1059 C.ar      1 <0>        -0.1813
     20 C17         5.9096    0.8275    0.7559 C.ar      1 <0>        -0.0669
     21 C18         4.6220    0.8454    0.2621 C.ar      1 <0>        -0.1084
     22 C19         7.5437    0.6039    2.6377 C.3       1 <0>         0.5073
     23 F1          7.9181    1.8993    3.0105 F         1 <0>        -0.1759
     24 F2          7.6112   -0.2398    3.7515 F         1 <0>        -0.1754
     25 F3          8.4106    0.1355    1.6446 F         1 <0>        -0.1761
     26 H1          1.8101   -6.8872    0.7801 H         1 <0>         0.1315
     27 H2          1.8084   -7.9820    2.1836 H         1 <0>         0.1337
     28 H3          0.5797   -6.7008    2.0527 H         1 <0>         0.1315
     29 H4          0.8000   -3.8701    3.5901 H         1 <0>         0.1444
     30 H5          0.2275   -1.6395    2.7272 H         1 <0>         0.1346
     31 H6          3.1867   -2.0933   -0.3475 H         1 <0>         0.1317
     32 H7          3.7503   -4.3164    0.5403 H         1 <0>         0.1436
     33 H8          1.8351    2.0304   -1.0246 H         1 <0>         0.0834
     34 H9          1.6832    2.7674    0.5997 H         1 <0>         0.0779
     35 H10        -0.5128    1.9291   -0.8803 H         1 <0>         0.0800
     36 H11        -0.4957    1.9195    0.9147 H         1 <0>         0.0754
     37 H12        -0.8151   -0.3976    0.6065 H         1 <0>         0.0772
     38 H13        -0.0683   -0.3785   -1.0192 H         1 <0>         0.0829
     39 H14         2.9463    0.3113    3.1678 H         1 <0>         0.1337
     40 H15         5.2521    0.2724    4.0223 H         1 <0>         0.1386
     41 H16         6.7450    0.9746    0.0875 H         1 <0>         0.1390
     42 H17         4.4486    1.0055   -0.7918 H         1 <0>         0.1365
@<TRIPOS>BOND
     1    1    2 1
     2    1   26 1
     3    1   27 1
     4    1   28 1
     5    2    3 2
     6    2    4 2
     7    2    5 1
     8    5   10 ar
     9    5    6 ar
    10    6    7 ar
    11    6   29 1
    12    7    8 ar
    13    7   30 1
    14    8    9 ar
    15    8   11 1
    16    9   10 ar
    17    9   31 1
    18   10   32 1
    19   11   15 1
    20   11   12 2
    21   12   13 1
    22   12   16 1
    23   13   14 1
    24   13   33 1
    25   13   34 1
    26   14   15 1
    27   14   35 1
    28   14   36 1
    29   15   37 1
    30   15   38 1
    31   16   21 ar
    32   16   17 ar
    33   17   18 ar
    34   17   39 1
    35   18   19 ar
    36   18   40 1
    37   19   20 ar
    38   19   22 1
    39   20   21 ar
    40   20   41 1
    41   21   42 1
    42   22   23 1
    43   22   24 1
    44   22   25 1
@<TRIPOS>MOLECULE
ZINC03814640
   39    41     0     0     0
SMALL
USER_CHARGES

@<TRIPOS>ATOM
      1 C1          3.0093    2.2446   -7.6623 C.3       1 <0>        -0.6506
      2 S1          2.0836    3.2814   -6.4968 S.o2      1 <0>         2.4974
      3 O1          0.6867    3.0902   -6.6743 O.2       1 <0>        -0.9367
      4 O2          2.6367    4.5899   -6.4597 O.2       1 <0>        -0.9366
      5 C2          2.4324    2.6007   -4.9095 C.ar      1 <0>        -0.6601
      6 C3          3.5167    3.0638   -4.1849 C.ar      1 <0>        -0.0212
      7 C4          3.7956    2.5361   -2.9416 C.ar      1 <0>        -0.1210
      8 C5          2.9803    1.5314   -2.4139 C.ar      1 <0>         0.0230
      9 C6          1.8906    1.0648   -3.1538 C.ar      1 <0>        -0.1253
     10 C7          1.6206    1.6061   -4.3933 C.ar      1 <0>        -0.0210
     11 C8          3.2718    0.9624   -1.0859 C.2       1 <0>        -0.0842
     12 C9          2.4760    1.0781   -0.0148 C.2       1 <0>        -0.0811
     13 C10         3.0872    0.3795    1.1777 C.3       1 <0>        -0.0837
     14 C11         4.1653   -0.5550    0.5792 C.3       1 <0>        -0.1206
     15 C12         4.5099    0.1666   -0.7432 C.3       1 <0>        -0.0843
     16 C13         1.1872    1.7924    0.0003 C.ar      1 <0>        -0.0253
     17 C14        -0.0126    1.0758    0.0080 C.ar      1 <0>        -0.0825
     18 C15        -1.2150    1.7503    0.0173 C.ar      1 <0>        -0.1034
     19 C16        -1.2363    3.1355    0.0297 C.ar      1 <0>        -0.0220
     20 C17        -0.0521    3.8527    0.0223 C.ar      1 <0>        -0.1020
     21 C18         1.1591    3.1905    0.0076 C.ar      1 <0>        -0.0119
     22 Cl1         2.6432    4.0910   -0.0011 Cl        1 <0>        -0.0476
     23 Cl2        -2.7552    3.9759    0.0482 Cl        1 <0>        -0.0530
     24 H1          2.6669    1.2129   -7.5819 H         1 <0>         0.1315
     25 H2          2.8447    2.6039   -8.6782 H         1 <0>         0.1334
     26 H3          4.0725    2.2939   -7.4273 H         1 <0>         0.1316
     27 H4          4.1457    3.8406   -4.5939 H         1 <0>         0.1433
     28 H5          4.6419    2.8987   -2.3771 H         1 <0>         0.1320
     29 H6          1.2587    0.2854   -2.7542 H         1 <0>         0.1312
     30 H7          0.7761    1.2496   -4.9644 H         1 <0>         0.1430
     31 H8          3.5426    1.1062    1.8505 H         1 <0>         0.0834
     32 H9          2.3314   -0.2037    1.7038 H         1 <0>         0.0770
     33 H10         3.7620   -1.5493    0.3870 H         1 <0>         0.0756
     34 H11         5.0366   -0.6096    1.2319 H         1 <0>         0.0794
     35 H12         4.7227   -0.5600   -1.5273 H         1 <0>         0.0767
     36 H13         5.3612    0.8324   -0.6010 H         1 <0>         0.0827
     37 H14         0.0021   -0.0041    0.0020 H         1 <0>         0.1435
     38 H15        -2.1427    1.1973    0.0187 H         1 <0>         0.1434
     39 H16        -0.0760    4.9324    0.0276 H         1 <0>         0.1461
@<TRIPOS>BOND
     1    1    2 1
     2    1   24 1
     3    1   25 1
     4    1   26 1
     5    2    3 2
     6    2    4 2
     7    2    5 1
     8    5   10 ar
     9    5    6 ar
    10    6    7 ar
    11    6   27 1
    12    7    8 ar
    13    7   28 1
    14    8    9 ar
    15    8   11 1
    16    9   10 ar
    17    9   29 1
    18   10   30 1
    19   11   15 1
    20   11   12 2
    21   12   13 1
    22   12   16 1
    23   13   14 1
    24   13   31 1
    25   13   32 1
    26   14   15 1
    27   14   33 1
    28   14   34 1
    29   15   35 1
    30   15   36 1
    31   16   21 ar
    32   16   17 ar
    33   17   18 ar
    34   17   37 1
    35   18   19 ar
    36   18   38 1
    37   19   20 ar
    38   19   23 1
    39   20   21 ar
    40   20   39 1
    41   21   22 1
@<TRIPOS>MOLECULE
ZINC03814641
   43    45     0     0     0
SMALL
USER_CHARGES

@<TRIPOS>ATOM
      1 C1          7.5777    0.3103    4.5077 C.3       1 <0>        -0.1450
      2 S1          7.7833    0.6041    2.7295 S.3       1 <0>        -0.1168
      3 C2          6.1349    0.6242    2.1074 C.ar      1 <0>        -0.0787
      4 C3          5.9077    0.8300    0.7499 C.ar      1 <0>        -0.0978
      5 C4          4.6208    0.8468    0.2602 C.ar      1 <0>        -0.0859
      6 C5          3.5415    0.6563    1.1288 C.ar      1 <0>        -0.0473
      7 C6          3.7734    0.4551    2.4931 C.ar      1 <0>        -0.0803
      8 C7          5.0632    0.4338    2.9747 C.ar      1 <0>        -0.1310
      9 C8          2.1636    0.6736    0.6089 C.2       1 <0>        -0.0667
     10 C9          1.3335   -0.3783    0.6112 C.2       1 <0>        -0.1056
     11 C10         0.0021   -0.0041    0.0020 C.3       1 <0>        -0.0830
     12 C11        -0.0189    1.5411    0.0105 C.3       1 <0>        -0.1221
     13 C12         1.4889    1.8799   -0.0021 C.3       1 <0>        -0.0879
     14 C13         1.6718   -1.7139    1.1342 C.ar      1 <0>         0.0281
     15 C14         2.6644   -2.4792    0.5162 C.ar      1 <0>        -0.1225
     16 C15         2.9789   -3.7262    1.0143 C.ar      1 <0>        -0.0203
     17 C16         2.3070   -4.2244    2.1167 C.ar      1 <0>        -0.6619
     18 C17         1.3193   -3.4744    2.7307 C.ar      1 <0>        -0.0219
     19 C18         0.9975   -2.2236    2.2471 C.ar      1 <0>        -0.1299
     20 S2          2.7115   -5.8212    2.7421 S.o2      1 <0>         2.4983
     21 O1          4.0612   -6.0326    2.3511 O.2       1 <0>        -0.9369
     22 O2          2.3545   -5.7734    4.1167 O.2       1 <0>        -0.9379
     23 C19         1.6172   -6.9615    1.8517 C.3       1 <0>        -0.6505
     24 H1          8.5564    0.2809    4.9866 H         1 <0>         0.1112
     25 H2          6.9845    1.1147    4.9426 H         1 <0>         0.0845
     26 H3          7.0688   -0.6410    4.6623 H         1 <0>         0.0853
     27 H4          6.7417    0.9770    0.0796 H         1 <0>         0.1305
     28 H5          4.4453    1.0065   -0.7934 H         1 <0>         0.1291
     29 H6          2.9421    0.3121    3.1675 H         1 <0>         0.1236
     30 H7          5.2433    0.2740    4.0275 H         1 <0>         0.1249
     31 H8         -0.8153   -0.3976    0.6063 H         1 <0>         0.0749
     32 H9         -0.0680   -0.3785   -1.0192 H         1 <0>         0.0808
     33 H10        -0.5129    1.9291   -0.8803 H         1 <0>         0.0786
     34 H11        -0.4957    1.9194    0.9147 H         1 <0>         0.0741
     35 H12         1.8350    2.0305   -1.0246 H         1 <0>         0.0823
     36 H13         1.6829    2.7679    0.5994 H         1 <0>         0.0767
     37 H14         3.1868   -2.0934   -0.3467 H         1 <0>         0.1315
     38 H15         3.7489   -4.3170    0.5405 H         1 <0>         0.1427
     39 H16         0.7993   -3.8695    3.5909 H         1 <0>         0.1431
     40 H17         0.2267   -1.6393    2.7275 H         1 <0>         0.1334
     41 H18         1.8087   -6.8874    0.7812 H         1 <0>         0.1316
     42 H19         1.8070   -7.9818    2.1849 H         1 <0>         0.1334
     43 H20         0.5784   -6.7006    2.0540 H         1 <0>         0.1315
@<TRIPOS>BOND
     1    1    2 1
     2    1   24 1
     3    1   25 1
     4    1   26 1
     5    2    3 1
     6    3    8 ar
     7    3    4 ar
     8    4    5 ar
     9    4   27 1
    10    5    6 ar
    11    5   28 1
    12    6    7 ar
    13    6    9 1
    14    7    8 ar
    15    7   29 1
    16    8   30 1
    17    9   13 1
    18    9   10 2
    19   10   11 1
    20   10   14 1
    21   11   12 1
    22   11   31 1
    23   11   32 1
    24   12   13 1
    25   12   33 1
    26   12   34 1
    27   13   35 1
    28   13   36 1
    29   14   19 ar
    30   14   15 ar
    31   15   16 ar
    32   15   37 1
    33   16   17 ar
    34   16   38 1
    35   17   18 ar
    36   17   20 1
    37   18   19 ar
    38   18   39 1
    39   19   40 1
    40   20   21 2
    41   20   22 2
    42   20   23 1
    43   23   41 1
    44   23   42 1
    45   23   43 1
@<TRIPOS>MOLECULE
ZINC03814642
   42    44     0     0     0
SMALL
USER_CHARGES

@<TRIPOS>ATOM
      1 C1          2.8889   -1.6660    1.6449 C.3       1 <0>        -0.1200
      2 C2          2.3826   -2.4761    0.4795 C.ar      1 <0>        -0.0389
      3 C3          2.7155   -3.8097    0.3685 C.ar      1 <0>        -0.1550
      4 C4          2.2554   -4.5546   -0.7059 C.ar      1 <0>         0.1072
      5 C5          1.4534   -3.9665   -1.6717 C.ar      1 <0>        -0.1574
      6 C6          1.1090   -2.6357   -1.5688 C.ar      1 <0>        -0.0722
      7 C7          1.5702   -1.8790   -0.4880 C.ar      1 <0>        -0.0560
      8 C8          1.2061   -0.4557   -0.3723 C.2       1 <0>        -0.0654
      9 C9          0.0021   -0.0041    0.0020 C.2       1 <0>        -0.1027
     10 C10        -0.0184    1.5070    0.0103 C.3       1 <0>        -0.0830
     11 C11         1.4694    1.9249   -0.0016 C.3       1 <0>        -0.1223
     12 C12         2.1390    0.6978   -0.6604 C.3       1 <0>        -0.0893
     13 C13        -1.1435   -0.8613    0.3557 C.ar      1 <0>         0.0267
     14 C14        -1.7336   -1.6789   -0.6117 C.ar      1 <0>        -0.1268
     15 C15        -2.8023   -2.4820   -0.2722 C.ar      1 <0>        -0.0209
     16 C16        -3.2969   -2.4715    1.0202 C.ar      1 <0>        -0.6614
     17 C17        -2.7210   -1.6605    1.9822 C.ar      1 <0>        -0.0213
     18 C18        -1.6484   -0.8560    1.6587 C.ar      1 <0>        -0.1275
     19 S1         -4.6664   -3.4963    1.4430 S.o2      1 <0>         2.4983
     20 O1         -4.6115   -4.5745    0.5190 O.2       1 <0>        -0.9369
     21 O2         -4.5275   -3.7299    2.8378 O.2       1 <0>        -0.9372
     22 C19        -6.1302   -2.4736    1.1234 C.3       1 <0>        -0.6504
     23 F1          2.5896   -5.8593   -0.8121 F         1 <0>        -0.1374
     24 H1          2.1766   -1.7284    2.4676 H         1 <0>         0.0756
     25 H2          3.8530   -2.0582    1.9686 H         1 <0>         0.0711
     26 H3          3.0034   -0.6253    1.3416 H         1 <0>         0.0753
     27 H4          3.3400   -4.2734    1.1177 H         1 <0>         0.1375
     28 H5          1.0979   -4.5522   -2.5066 H         1 <0>         0.1381
     29 H6          0.4844   -2.1786   -2.3221 H         1 <0>         0.1323
     30 H7         -0.5253    1.8841   -0.8779 H         1 <0>         0.0812
     31 H8         -0.5082    1.8745    0.9121 H         1 <0>         0.0755
     32 H9          1.6177    2.8205   -0.6049 H         1 <0>         0.0789
     33 H10         1.8405    2.0739    1.0124 H         1 <0>         0.0747
     34 H11         3.1169    0.5148   -0.2149 H         1 <0>         0.0778
     35 H12         2.2337    0.8493   -1.7357 H         1 <0>         0.0832
     36 H13        -1.3512   -1.6851   -1.6217 H         1 <0>         0.1319
     37 H14        -3.2566   -3.1178   -1.0177 H         1 <0>         0.1432
     38 H15        -3.1121   -1.6578    2.9889 H         1 <0>         0.1435
     39 H16        -1.1997   -0.2238    2.4106 H         1 <0>         0.1336
     40 H17        -6.1506   -2.1869    0.0720 H         1 <0>         0.1314
     41 H18        -7.0293   -3.0413    1.3628 H         1 <0>         0.1334
     42 H19        -6.0901   -1.5781    1.7435 H         1 <0>         0.1315
@<TRIPOS>BOND
     1    1    2 1
     2    1   24 1
     3    1   25 1
     4    1   26 1
     5    2    7 ar
     6    2    3 ar
     7    3    4 ar
     8    3   27 1
     9    4    5 ar
    10    4   23 1
    11    5    6 ar
    12    5   28 1
    13    6    7 ar
    14    6   29 1
    15    7    8 1
    16    8   12 1
    17    8    9 2
    18    9   10 1
    19    9   13 1
    20   10   11 1
    21   10   30 1
    22   10   31 1
    23   11   12 1
    24   11   32 1
    25   11   33 1
    26   12   34 1
    27   12   35 1
    28   13   18 ar
    29   13   14 ar
    30   14   15 ar
    31   14   36 1
    32   15   16 ar
    33   15   37 1
    34   16   17 ar
    35   16   19 1
    36   17   18 ar
    37   17   38 1
    38   18   39 1
    39   19   20 2
    40   19   21 2
    41   19   22 1
    42   22   40 1
    43   22   41 1
    44   22   42 1
@<TRIPOS>MOLECULE
ZINC03814643
   45    47     0     0     0
SMALL
USER_CHARGES

@<TRIPOS>ATOM
      1 C1         -5.6560    2.9434    6.4815 C.3       1 <0>        -0.1376
      2 C2         -4.3672    3.7373    6.7044 C.3       1 <0>        -0.0659
      3 C3         -3.3140    2.8840    7.4466 C.3       1 <0>        -0.0788
      4 C4         -2.4873    2.2487    6.3526 C.2       1 <0>        -0.0685
      5 C5         -2.6782    2.8850    5.1897 C.2       1 <0>        -0.0996
      6 C6         -3.6514    4.0279    5.3640 C.3       1 <0>        -0.0747
      7 C7         -2.0252    2.5247    3.9184 C.ar      1 <0>         0.0263
      8 C8         -2.2980    1.2953    3.3127 C.ar      1 <0>        -0.1231
      9 C9         -1.6829    0.9649    2.1234 C.ar      1 <0>        -0.0205
     10 C10        -0.7978    1.8475    1.5296 C.ar      1 <0>        -0.6615
     11 C11        -0.5185    3.0643    2.1265 C.ar      1 <0>        -0.0210
     12 C12        -1.1300    3.4107    3.3132 C.ar      1 <0>        -0.1299
     13 S1         -0.0172    1.4168    0.0098 S.o2      1 <0>         2.4981
     14 O1          0.0021   -0.0041    0.0020 O.2       1 <0>        -0.9369
     15 O2          1.1953    2.1578    0.0022 O.2       1 <0>        -0.9372
     16 C13        -1.1345    2.0336   -1.2793 C.3       1 <0>        -0.6505
     17 C14        -1.5959    1.0901    6.5393 C.ar      1 <0>        -0.0521
     18 C15        -2.1262   -0.1531    6.8945 C.ar      1 <0>        -0.0764
     19 C16        -1.2875   -1.2345    7.0625 C.ar      1 <0>        -0.1515
     20 C17         0.0801   -1.0878    6.8908 C.ar      1 <0>         0.1023
     21 C18         0.6127    0.1441    6.5442 C.ar      1 <0>        -0.1505
     22 C19        -0.2162    1.2316    6.3677 C.ar      1 <0>        -0.0730
     23 F1          0.8973   -2.1500    7.0616 F         1 <0>        -0.1376
     24 C20        -4.6512    5.0361    7.4616 C.3       1 <0>        -0.1394
     25 H1         -6.0807    2.6621    7.4452 H         1 <0>         0.0591
     26 H2         -6.3713    3.5579    5.9348 H         1 <0>         0.0585
     27 H3         -5.4342    2.0448    5.9059 H         1 <0>         0.0568
     28 H4         -3.8025    2.1165    8.0468 H         1 <0>         0.0777
     29 H5         -2.6881    3.5171    8.0755 H         1 <0>         0.0838
     30 H6         -3.1169    4.9765    5.4146 H         1 <0>         0.0826
     31 H7         -4.3715    4.0407    4.5459 H         1 <0>         0.0758
     32 H8         -2.9891    0.6058    3.7746 H         1 <0>         0.1313
     33 H9         -1.8927    0.0151    1.6541 H         1 <0>         0.1427
     34 H10         0.1767    3.7463    1.6596 H         1 <0>         0.1436
     35 H11        -0.9147    4.3627    3.7754 H         1 <0>         0.1336
     36 H12        -2.1080    1.5544   -1.1761 H         1 <0>         0.1314
     37 H13        -1.2479    3.1127   -1.1759 H         1 <0>         0.1315
     38 H14        -0.7188    1.8043   -2.2605 H         1 <0>         0.1334
     39 H15        -3.1912   -0.2677    7.0325 H         1 <0>         0.1339
     40 H16        -1.6966   -2.1968    7.3326 H         1 <0>         0.1381
     41 H17         1.6791    0.2522    6.4118 H         1 <0>         0.1377
     42 H18         0.1999    2.1908    6.0969 H         1 <0>         0.1309
     43 H19        -3.7262    5.6021    7.5719 H         1 <0>         0.0580
     44 H20        -5.3764    5.6300    6.9052 H         1 <0>         0.0594
     45 H21        -5.0534    4.8016    8.4472 H         1 <0>         0.0597
@<TRIPOS>BOND
     1    1    2 1
     2    1   25 1
     3    1   26 1
     4    1   27 1
     5    2    6 1
     6    2    3 1
     7    2   24 1
     8    3    4 1
     9    3   28 1
    10    3   29 1
    11    4    5 2
    12    4   17 1
    13    5    6 1
    14    5    7 1
    15    6   30 1
    16    6   31 1
    17    7   12 ar
    18    7    8 ar
    19    8    9 ar
    20    8   32 1
    21    9   10 ar
    22    9   33 1
    23   10   11 ar
    24   10   13 1
    25   11   12 ar
    26   11   34 1
    27   12   35 1
    28   13   14 2
    29   13   15 2
    30   13   16 1
    31   16   36 1
    32   16   37 1
    33   16   38 1
    34   17   22 ar
    35   17   18 ar
    36   18   19 ar
    37   18   39 1
    38   19   20 ar
    39   19   40 1
    40   20   21 ar
    41   20   23 1
    42   21   22 ar
    43   21   41 1
    44   22   42 1
    45   24   43 1
    46   24   44 1
    47   24   45 1
@<TRIPOS>MOLECULE
ZINC03814644
   45    47     0     0     0
SMALL
USER_CHARGES

@<TRIPOS>ATOM
      1 C1         -4.3513   -5.0527   -0.7212 C.3       1 <0>        -0.6503
      2 S1         -4.8866   -3.4923    0.0331 S.o2      1 <0>         2.4974
      3 O1         -5.1821   -3.6897    1.4089 O.2       1 <0>        -0.9356
      4 O2         -5.8107   -2.8287   -0.8184 O.2       1 <0>        -0.9355
      5 C2         -3.4520   -2.4692    0.0237 C.ar      1 <0>        -0.6560
      6 C3         -3.1970   -1.6509   -1.0627 C.ar      1 <0>        -0.0204
      7 C4         -2.0766   -0.8468   -1.0766 C.ar      1 <0>        -0.1168
      8 C5         -1.1977   -0.8601    0.0096 C.ar      1 <0>         0.0198
      9 C6         -1.4587   -1.6933    1.1006 C.ar      1 <0>        -0.1241
     10 C7         -2.5861   -2.4878    1.1030 C.ar      1 <0>        -0.0204
     11 C8          0.0021   -0.0041    0.0020 C.2       1 <0>        -0.0883
     12 C9         -0.0161    1.3351    0.0094 C.2       1 <0>        -0.0546
     13 C10         1.3916    1.8846   -0.0011 C.3       1 <0>        -0.0743
     14 C11         2.2861    0.6944    0.4131 C.3       1 <0>        -0.1764
     15 C12         1.4242   -0.5150   -0.0143 C.3       1 <0>        -0.0699
     16 C13         2.5247    0.6893    1.9244 C.3       1 <0>         0.4733
     17 F1          3.1894   -0.4868    2.2876 F         1 <0>        -0.1651
     18 F2          3.3064    1.7947    2.2768 F         1 <0>        -0.1638
     19 F3          1.2962    0.7554    2.5906 F         1 <0>        -0.1594
     20 C14         3.6136    0.7161   -0.3474 C.3       1 <0>         0.4751
     21 F4          3.3628    0.8062   -1.7208 F         1 <0>        -0.1623
     22 F5          4.3678    1.8208    0.0625 F         1 <0>        -0.1625
     23 F6          4.3239   -0.4590   -0.0792 F         1 <0>        -0.1636
     24 C15        -1.2385    2.1581    0.0198 C.ar      1 <0>        -0.0592
     25 C16        -1.5379    2.9836   -1.0674 C.ar      1 <0>        -0.0719
     26 C17        -2.6860    3.7469   -1.0542 C.ar      1 <0>        -0.1516
     27 C18        -3.5364    3.7057    0.0397 C.ar      1 <0>         0.1095
     28 C19        -3.2420    2.8933    1.1235 C.ar      1 <0>        -0.1505
     29 C20        -2.1002    2.1207    1.1195 C.ar      1 <0>        -0.0647
     30 F7         -4.6570    4.4602    0.0492 F         1 <0>        -0.1356
     31 H1         -3.5443   -5.4845   -0.1292 H         1 <0>         0.1320
     32 H2         -5.1905   -5.7476   -0.7531 H         1 <0>         0.1341
     33 H3         -3.9974   -4.8638   -1.7347 H         1 <0>         0.1319
     34 H4         -3.8772   -1.6417   -1.9015 H         1 <0>         0.1451
     35 H5         -1.8792   -0.2081   -1.9249 H         1 <0>         0.1345
     36 H6         -0.7816   -1.7119    1.9418 H         1 <0>         0.1355
     37 H7         -2.7917   -3.1287    1.9476 H         1 <0>         0.1459
     38 H8          1.6570    2.2283   -1.0009 H         1 <0>         0.1185
     39 H9          1.4864    2.6982    0.7180 H         1 <0>         0.1071
     40 H10         1.5410   -1.3337    0.6958 H         1 <0>         0.1062
     41 H11         1.6986   -0.8404   -1.0178 H         1 <0>         0.1169
     42 H12        -0.8737    3.0199   -1.9183 H         1 <0>         0.1362
     43 H13        -2.9209    4.3816   -1.8958 H         1 <0>         0.1403
     44 H14        -3.9087    2.8653    1.9727 H         1 <0>         0.1400
     45 H15        -1.8722    1.4876    1.9642 H         1 <0>         0.1338
@<TRIPOS>BOND
     1    1    2 1
     2    1   31 1
     3    1   32 1
     4    1   33 1
     5    2    3 2
     6    2    4 2
     7    2    5 1
     8    5   10 ar
     9    5    6 ar
    10    6    7 ar
    11    6   34 1
    12    7    8 ar
    13    7   35 1
    14    8    9 ar
    15    8   11 1
    16    9   10 ar
    17    9   36 1
    18   10   37 1
    19   11   15 1
    20   11   12 2
    21   12   13 1
    22   12   24 1
    23   13   14 1
    24   13   38 1
    25   13   39 1
    26   14   15 1
    27   14   16 1
    28   14   20 1
    29   15   40 1
    30   15   41 1
    31   16   17 1
    32   16   18 1
    33   16   19 1
    34   20   21 1
    35   20   22 1
    36   20   23 1
    37   24   29 ar
    38   24   25 ar
    39   25   26 ar
    40   25   42 1
    41   26   27 ar
    42   26   43 1
    43   27   28 ar
    44   27   30 1
    45   28   29 ar
    46   28   44 1
    47   29   45 1
@<TRIPOS>MOLECULE
ZINC03814645
   45    47     0     0     0
SMALL
USER_CHARGES

@<TRIPOS>ATOM
      1 C1         -1.4338   10.2821    3.9929 C.3       1 <0>        -0.6504
      2 S1         -1.6452    9.0814    5.3361 S.o2      1 <0>         2.4979
      3 O1         -3.0093    9.0227    5.7298 O.2       1 <0>        -0.9366
      4 O2         -0.6181    9.2443    6.3044 O.2       1 <0>        -0.9362
      5 C2         -1.3226    7.5145    4.5977 C.ar      1 <0>        -0.6594
      6 C3         -0.0340    7.0100    4.5885 C.ar      1 <0>        -0.0201
      7 C4          0.2260    5.7838    4.0132 C.ar      1 <0>        -0.1213
      8 C5         -0.8155    5.0508    3.4382 C.ar      1 <0>         0.0243
      9 C6         -2.1131    5.5692    3.4462 C.ar      1 <0>        -0.1288
     10 C7         -2.3590    6.7942    4.0303 C.ar      1 <0>        -0.0208
     11 C8         -0.5457    3.7398    2.8210 C.2       1 <0>        -0.1034
     12 C9         -0.1247    2.6558    3.4854 C.2       1 <0>        -0.0602
     13 C10         0.0478    1.4888    2.5409 C.3       1 <0>        -0.0762
     14 C11        -0.7330    1.8882    1.2685 C.3       1 <0>        -0.1287
     15 C12        -0.7073    3.4312    1.3499 C.3       1 <0>        -0.0666
     16 C13        -0.0169    1.3948    0.0097 C.3       1 <0>         0.0764
     17 F1          0.0021   -0.0041    0.0020 F         1 <0>        -0.2037
     18 C14        -2.1686    1.3615    1.3198 C.3       1 <0>         0.0766
     19 F2         -2.1526   -0.0374    1.3139 F         1 <0>        -0.2036
     20 C15         0.1334    2.6075    4.9355 C.ar      1 <0>        -0.0561
     21 C16         1.4284    2.3829    5.4105 C.ar      1 <0>        -0.0747
     22 C17         1.6645    2.3445    6.7684 C.ar      1 <0>        -0.1512
     23 C18         0.6186    2.5163    7.6617 C.ar      1 <0>         0.1050
     24 C19        -0.6690    2.7337    7.1967 C.ar      1 <0>        -0.1503
     25 C20        -0.9167    2.7804    5.8412 C.ar      1 <0>        -0.0706
     26 F3          0.8552    2.4720    8.9910 F         1 <0>        -0.1367
     27 H1         -2.1400   10.0603    3.1928 H         1 <0>         0.1316
     28 H2         -1.6180   11.2874    4.3718 H         1 <0>         0.1337
     29 H3         -0.4163   10.2201    3.6070 H         1 <0>         0.1315
     30 H4          0.7699    7.5776    5.0333 H         1 <0>         0.1435
     31 H5          1.2320    5.3909    4.0074 H         1 <0>         0.1323
     32 H6         -2.9222    5.0101    3.0000 H         1 <0>         0.1340
     33 H7         -3.3622    7.1941    4.0414 H         1 <0>         0.1443
     34 H8         -0.3745    0.5831    2.9762 H         1 <0>         0.0887
     35 H9          1.1026    1.3423    2.3081 H         1 <0>         0.0914
     36 H10         0.1367    3.8267    0.7848 H         1 <0>         0.0937
     37 H11        -1.6431    3.8462    0.9754 H         1 <0>         0.0859
     38 H12         1.0057    1.7721    0.0020 H         1 <0>         0.0818
     39 H13        -0.5441    1.7559   -0.8734 H         1 <0>         0.0803
     40 H14        -2.6532    1.7155    2.2297 H         1 <0>         0.0799
     41 H15        -2.7192    1.7223    0.4510 H         1 <0>         0.0797
     42 H16         2.2433    2.2445    4.7155 H         1 <0>         0.1344
     43 H17         2.6656    2.1758    7.1367 H         1 <0>         0.1390
     44 H18        -1.4797    2.8672    7.8976 H         1 <0>         0.1386
     45 H19        -1.9203    2.9506    5.4801 H         1 <0>         0.1312
@<TRIPOS>BOND
     1    1    2 1
     2    1   27 1
     3    1   28 1
     4    1   29 1
     5    2    3 2
     6    2    4 2
     7    2    5 1
     8    5   10 ar
     9    5    6 ar
    10    6    7 ar
    11    6   30 1
    12    7    8 ar
    13    7   31 1
    14    8    9 ar
    15    8   11 1
    16    9   10 ar
    17    9   32 1
    18   10   33 1
    19   11   15 1
    20   11   12 2
    21   12   13 1
    22   12   20 1
    23   13   14 1
    24   13   34 1
    25   13   35 1
    26   14   15 1
    27   14   16 1
    28   14   18 1
    29   15   36 1
    30   15   37 1
    31   16   17 1
    32   16   38 1
    33   16   39 1
    34   18   19 1
    35   18   40 1
    36   18   41 1
    37   20   25 ar
    38   20   21 ar
    39   21   22 ar
    40   21   42 1
    41   22   23 ar
    42   22   43 1
    43   23   24 ar
    44   23   26 1
    45   24   25 ar
    46   24   44 1
    47   25   45 1
@<TRIPOS>MOLECULE
ZINC03814646
   39    41     0     0     0
SMALL
USER_CHARGES

@<TRIPOS>ATOM
      1 C1          1.1438    4.3053    1.7668 C.3       1 <0>        -0.6504
      2 S1          1.1363    3.8481    0.0113 S.o2      1 <0>         2.4982
      3 O1          2.3581    4.2375   -0.6010 O.2       1 <0>        -0.9363
      4 O2         -0.1106    4.1899   -0.5781 O.2       1 <0>        -0.9367
      5 C2          1.1702    2.0865    0.0021 C.ar      1 <0>        -0.6599
      6 C3         -0.0166    1.3750    0.0096 C.ar      1 <0>        -0.0210
      7 C4          0.0021   -0.0041    0.0020 C.ar      1 <0>        -0.1275
      8 C5          1.2235   -0.6827   -0.0133 C.ar      1 <0>         0.0206
      9 C6          2.4179    0.0425   -0.0209 C.ar      1 <0>        -0.1241
     10 C7          2.3836    1.4213   -0.0132 C.ar      1 <0>        -0.0203
     11 C8          1.2518   -2.1563   -0.0220 C.2       1 <0>        -0.0908
     12 C9          1.7222   -2.9045   -1.0284 C.2       1 <0>        -0.0775
     13 C10         1.5979   -4.3742   -0.6995 C.3       1 <0>        -0.0873
     14 C11         0.5940   -4.4356    0.4739 C.3       1 <0>        -0.1218
     15 C12         0.7602   -3.0335    1.1061 C.3       1 <0>        -0.0848
     16 C13         2.2836   -2.3691   -2.2814 C.ar      1 <0>        -0.0205
     17 C14         1.4690   -1.6598   -3.1683 C.ar      1 <0>        -0.0835
     18 C15         2.0004   -1.1555   -4.3364 C.ar      1 <0>        -0.1209
     19 C16         3.3370   -1.3605   -4.6387 C.ar      1 <0>         0.0706
     20 C17         4.1507   -2.0693   -3.7656 C.ar      1 <0>         0.0719
     21 C18         3.6309   -2.5736   -2.5899 C.ar      1 <0>        -0.1147
     22 F1          5.4531   -2.2656   -4.0664 F         1 <0>        -0.1257
     23 F2          3.8503   -0.8683   -5.7873 F         1 <0>        -0.1256
     24 H1          2.0459    3.9169    2.2396 H         1 <0>         0.1315
     25 H2          1.1237    5.3912    1.8595 H         1 <0>         0.1337
     26 H3          0.2663    3.8826    2.2561 H         1 <0>         0.1317
     27 H4         -0.9599    1.9009    0.0169 H         1 <0>         0.1446
     28 H5         -0.9250   -0.5581    0.0083 H         1 <0>         0.1351
     29 H6          3.3656   -0.4753   -0.0324 H         1 <0>         0.1318
     30 H7          3.3059    1.9831   -0.0190 H         1 <0>         0.1436
     31 H8          1.2115   -4.9234   -1.5581 H         1 <0>         0.0786
     32 H9          2.5634   -4.7773   -0.3938 H         1 <0>         0.0835
     33 H10        -0.4225   -4.5848    0.1097 H         1 <0>         0.0760
     34 H11         0.8704   -5.2160    1.1828 H         1 <0>         0.0798
     35 H12         1.4944   -3.0626    1.9112 H         1 <0>         0.0835
     36 H13        -0.1978   -2.6707    1.4784 H         1 <0>         0.0775
     37 H14         0.4258   -1.5028   -2.9367 H         1 <0>         0.1399
     38 H15         1.3722   -0.6032   -5.0196 H         1 <0>         0.1498
     39 H16         4.2641   -3.1250   -1.9107 H         1 <0>         0.1476
@<TRIPOS>BOND
     1    1    2 1
     2    1   24 1
     3    1   25 1
     4    1   26 1
     5    2    3 2
     6    2    4 2
     7    2    5 1
     8    5   10 ar
     9    5    6 ar
    10    6    7 ar
    11    6   27 1
    12    7    8 ar
    13    7   28 1
    14    8    9 ar
    15    8   11 1
    16    9   10 ar
    17    9   29 1
    18   10   30 1
    19   11   15 1
    20   11   12 2
    21   12   13 1
    22   12   16 1
    23   13   14 1
    24   13   31 1
    25   13   32 1
    26   14   15 1
    27   14   33 1
    28   14   34 1
    29   15   35 1
    30   15   36 1
    31   16   21 ar
    32   16   17 ar
    33   17   18 ar
    34   17   37 1
    35   18   19 ar
    36   18   38 1
    37   19   20 ar
    38   19   23 1
    39   20   21 ar
    40   20   22 1
    41   21   39 1
@<TRIPOS>MOLECULE
ZINC03814647
   43    45     0     0     0
SMALL
USER_CHARGES

@<TRIPOS>ATOM
      1 C1          2.9613   -0.1494   -6.6500 C.3       1 <0>         0.0243
      2 O1          3.8535   -0.8683   -5.7961 O.3       1 <0>        -0.3081
      3 C2          3.3373   -1.3621   -4.6399 C.ar      1 <0>         0.1009
      4 C3          1.9982   -1.1565   -4.3364 C.ar      1 <0>        -0.1790
      5 C4          1.4684   -1.6602   -3.1680 C.ar      1 <0>        -0.0694
      6 C5          2.2837   -2.3694   -2.2813 C.ar      1 <0>        -0.0518
      7 C6          3.6316   -2.5744   -2.5893 C.ar      1 <0>        -0.1028
      8 C7          4.1522   -2.0715   -3.7641 C.ar      1 <0>         0.0719
      9 F1          5.4548   -2.2681   -4.0636 F         1 <0>        -0.1299
     10 C8          1.7224   -2.9046   -1.0285 C.2       1 <0>        -0.0664
     11 C9          1.2519   -2.1562   -0.0220 C.2       1 <0>        -0.1011
     12 C10         0.7603   -3.0334    1.1060 C.3       1 <0>        -0.0835
     13 C11         0.5928   -4.4353    0.4731 C.3       1 <0>        -0.1218
     14 C12         1.5972   -4.3743   -0.6999 C.3       1 <0>        -0.0885
     15 C13         1.2235   -0.6827   -0.0133 C.ar      1 <0>         0.0259
     16 C14         0.0021   -0.0041    0.0020 C.ar      1 <0>        -0.1290
     17 C15        -0.0166    1.3750    0.0096 C.ar      1 <0>        -0.0217
     18 C16         1.1702    2.0865    0.0021 C.ar      1 <0>        -0.6613
     19 C17         2.3836    1.4213   -0.0132 C.ar      1 <0>        -0.0206
     20 C18         2.4180    0.0426   -0.0209 C.ar      1 <0>        -0.1231
     21 S1          1.1363    3.8481    0.0119 S.o2      1 <0>         2.4983
     22 O2          2.3579    4.2377   -0.6006 O.2       1 <0>        -0.9370
     23 O3         -0.1108    4.1901   -0.5772 O.2       1 <0>        -0.9377
     24 C19         1.1441    4.3047    1.7675 C.3       1 <0>        -0.6504
     25 H1          3.4995    0.1890   -7.5354 H         1 <0>         0.1058
     26 H2          2.1414   -0.8018   -6.9505 H         1 <0>         0.0590
     27 H3          2.5625    0.7128   -6.1155 H         1 <0>         0.0599
     28 H4          1.3694   -0.6047   -5.0194 H         1 <0>         0.1411
     29 H5          0.4254   -1.5035   -2.9357 H         1 <0>         0.1315
     30 H6          4.2642   -3.1256   -1.9094 H         1 <0>         0.1438
     31 H7          1.4947   -3.0632    1.9109 H         1 <0>         0.0820
     32 H8         -0.1975   -2.6703    1.4789 H         1 <0>         0.0756
     33 H9         -0.4236   -4.5839    0.1084 H         1 <0>         0.0750
     34 H10         0.8685   -5.2161    1.1819 H         1 <0>         0.0787
     35 H11         1.2109   -4.9232   -1.5587 H         1 <0>         0.0776
     36 H12         2.5623   -4.7779   -0.3939 H         1 <0>         0.0828
     37 H13        -0.9250   -0.5581    0.0083 H         1 <0>         0.1342
     38 H14        -0.9599    1.9009    0.0169 H         1 <0>         0.1436
     39 H15         3.3059    1.9832   -0.0186 H         1 <0>         0.1429
     40 H16         3.3657   -0.4752   -0.0324 H         1 <0>         0.1318
     41 H17         2.0463    3.9162    2.2400 H         1 <0>         0.1316
     42 H18         1.1240    5.3906    1.8606 H         1 <0>         0.1334
     43 H19         0.2667    3.8818    2.2568 H         1 <0>         0.1316
@<TRIPOS>BOND
     1    1    2 1
     2    1   25 1
     3    1   26 1
     4    1   27 1
     5    2    3 1
     6    3    8 ar
     7    3    4 ar
     8    4    5 ar
     9    4   28 1
    10    5    6 ar
    11    5   29 1
    12    6    7 ar
    13    6   10 1
    14    7    8 ar
    15    7   30 1
    16    8    9 1
    17   10   14 1
    18   10   11 2
    19   11   12 1
    20   11   15 1
    21   12   13 1
    22   12   31 1
    23   12   32 1
    24   13   14 1
    25   13   33 1
    26   13   34 1
    27   14   35 1
    28   14   36 1
    29   15   20 ar
    30   15   16 ar
    31   16   17 ar
    32   16   37 1
    33   17   18 ar
    34   17   38 1
    35   18   19 ar
    36   18   21 1
    37   19   20 ar
    38   19   39 1
    39   20   40 1
    40   21   22 2
    41   21   23 2
    42   21   24 1
    43   24   41 1
    44   24   42 1
    45   24   43 1
@<TRIPOS>MOLECULE
ZINC03814648
   42    45     0     0     0
SMALL
USER_CHARGES

@<TRIPOS>ATOM
      1 C1          8.1370    2.3236    3.1695 C.3       1 <0>        -0.6507
      2 S1          7.7822    0.6003    2.7279 S.o2      1 <0>         2.4985
      3 O1          7.7173   -0.2016    3.8992 O.2       1 <0>        -0.9370
      4 O2          8.5815    0.2040    1.6220 O.2       1 <0>        -0.9373
      5 C2          6.1337    0.6224    2.1063 C.ar      1 <0>        -0.6612
      6 C3          5.9096    0.8282    0.7563 C.ar      1 <0>        -0.0213
      7 C4          4.6221    0.8459    0.2624 C.ar      1 <0>        -0.1290
      8 C5          3.5423    0.6558    1.1288 C.ar      1 <0>         0.0250
      9 C6          3.7761    0.4547    2.4918 C.ar      1 <0>        -0.1226
     10 C7          5.0694    0.4334    2.9704 C.ar      1 <0>        -0.0203
     11 C8          2.1635    0.6732    0.6087 C.2       1 <0>        -0.0981
     12 C9          1.3336   -0.3783    0.6110 C.2       1 <0>        -0.0678
     13 C10         0.0021   -0.0041    0.0020 C.3       1 <0>        -0.0878
     14 C11        -0.0189    1.5412    0.0105 C.3       1 <0>        -0.1221
     15 C12         1.4889    1.8797   -0.0021 C.3       1 <0>        -0.0835
     16 C13         1.6719   -1.7136    1.1338 C.ar      1 <0>        -0.0323
     17 C14         2.6648   -2.4779    0.5146 C.ar      1 <0>        -0.0904
     18 C15         2.9830   -3.7248    1.0089 C.ar      1 <0>        -0.0970
     19 C16         2.3129   -4.2303    2.1140 C.ar      1 <0>         0.0364
     20 C17         1.3173   -3.4754    2.7336 C.ar      1 <0>         0.0343
     21 C18         0.9969   -2.2221    2.2469 C.ar      1 <0>        -0.0871
     22 O3          0.8194   -4.1900    3.7851 O.3       1 <0>        -0.3080
     23 C19         1.2316   -5.5501    3.5548 C.3       1 <0>         0.2129
     24 O4          2.4369   -5.4161    2.7789 O.3       1 <0>        -0.3070
     25 H1          7.4259    2.6591    3.9244 H         1 <0>         0.1314
     26 H2          9.1495    2.3958    3.5666 H         1 <0>         0.1332
     27 H3          8.0488    2.9514    2.2829 H         1 <0>         0.1315
     28 H4          6.7451    0.9750    0.0879 H         1 <0>         0.1437
     29 H5          4.4487    1.0059   -0.7916 H         1 <0>         0.1343
     30 H6          2.9462    0.3115    3.1680 H         1 <0>         0.1316
     31 H7          5.2519    0.2730    4.0227 H         1 <0>         0.1426
     32 H8         -0.8152   -0.3976    0.6064 H         1 <0>         0.0774
     33 H9         -0.0663   -0.3785   -1.0194 H         1 <0>         0.0837
     34 H10        -0.5129    1.9291   -0.8803 H         1 <0>         0.0792
     35 H11        -0.4957    1.9195    0.9147 H         1 <0>         0.0747
     36 H12         1.8351    2.0305   -1.0246 H         1 <0>         0.0820
     37 H13         1.6831    2.7677    0.5996 H         1 <0>         0.0759
     38 H14         3.1856   -2.0899   -0.3483 H         1 <0>         0.1371
     39 H15         3.7531   -4.3125    0.5314 H         1 <0>         0.1386
     40 H16         0.2259   -1.6368    2.7258 H         1 <0>         0.1366
     41 H17         0.4713   -6.0904    2.9908 H         1 <0>         0.0860
     42 H18         1.4384   -6.0528    4.4996 H         1 <0>         0.1338
@<TRIPOS>BOND
     1    1    2 1
     2    1   25 1
     3    1   26 1
     4    1   27 1
     5    2    3 2
     6    2    4 2
     7    2    5 1
     8    5   10 ar
     9    5    6 ar
    10    6    7 ar
    11    6   28 1
    12    7    8 ar
    13    7   29 1
    14    8    9 ar
    15    8   11 1
    16    9   10 ar
    17    9   30 1
    18   10   31 1
    19   11   15 1
    20   11   12 2
    21   12   13 1
    22   12   16 1
    23   13   14 1
    24   13   32 1
    25   13   33 1
    26   14   15 1
    27   14   34 1
    28   14   35 1
    29   15   36 1
    30   15   37 1
    31   16   21 ar
    32   16   17 ar
    33   17   18 ar
    34   17   38 1
    35   18   19 ar
    36   18   39 1
    37   19   24 1
    38   19   20 ar
    39   20   21 ar
    40   20   22 1
    41   21   40 1
    42   22   23 1
    43   23   24 1
    44   23   41 1
    45   23   42 1
@<TRIPOS>MOLECULE
ZINC03814649
   47    49     0     0     0
SMALL
USER_CHARGES

@<TRIPOS>ATOM
      1 C1          3.1777   -1.4120   -6.9933 C.3       1 <0>         0.0277
      2 N1          3.8714   -0.8542   -5.8247 N.pl3     1 <0>        -0.5066
      3 C2          3.8255    0.6140   -5.8363 C.3       1 <0>         0.0274
      4 C3          3.3400   -1.3618   -4.6382 C.ar      1 <0>         0.0990
      5 C4          1.9987   -1.1553   -4.3348 C.ar      1 <0>        -0.1338
      6 C5          1.4687   -1.6600   -3.1678 C.ar      1 <0>        -0.0882
      7 C6          2.2841   -2.3697   -2.2810 C.ar      1 <0>        -0.0304
      8 C7          3.6323   -2.5753   -2.5886 C.ar      1 <0>        -0.0949
      9 C8          4.1539   -2.0730   -3.7614 C.ar      1 <0>        -0.0105
     10 Cl1         5.8278   -2.3273   -4.1450 Cl        1 <0>        -0.0489
     11 C9          1.7225   -2.9047   -1.0287 C.2       1 <0>        -0.0712
     12 C10         1.2520   -2.1561   -0.0220 C.2       1 <0>        -0.0989
     13 C11         0.7603   -3.0334    1.1060 C.3       1 <0>        -0.0837
     14 C12         0.5928   -4.4353    0.4730 C.3       1 <0>        -0.1217
     15 C13         1.5973   -4.3743   -0.6999 C.3       1 <0>        -0.0877
     16 C14         1.2236   -0.6827   -0.0133 C.ar      1 <0>         0.0252
     17 C15         0.0021   -0.0041    0.0020 C.ar      1 <0>        -0.1287
     18 C16        -0.0166    1.3750    0.0096 C.ar      1 <0>        -0.0218
     19 C17         1.1702    2.0865    0.0021 C.ar      1 <0>        -0.6610
     20 C18         2.3836    1.4213   -0.0132 C.ar      1 <0>        -0.0202
     21 C19         2.4180    0.0426   -0.0209 C.ar      1 <0>        -0.1226
     22 S1          1.1363    3.8481    0.0119 S.o2      1 <0>         2.4978
     23 O1          2.3579    4.2377   -0.6006 O.2       1 <0>        -0.9366
     24 O2         -0.1108    4.1901   -0.5772 O.2       1 <0>        -0.9375
     25 C20         1.1441    4.3047    1.7675 C.3       1 <0>        -0.6505
     26 H1          2.1199   -1.1535   -6.9454 H         1 <0>         0.0319
     27 H2          3.6116   -0.9998   -7.9043 H         1 <0>         0.0772
     28 H3          3.2869   -2.4965   -6.9972 H         1 <0>         0.0712
     29 H4          4.4056    1.0023   -4.9992 H         1 <0>         0.0723
     30 H5          4.2457    0.9832   -6.7719 H         1 <0>         0.0776
     31 H6          2.7912    0.9459   -5.7466 H         1 <0>         0.0324
     32 H7          1.3703   -0.6026   -5.0176 H         1 <0>         0.1301
     33 H8          0.4257   -1.5031   -2.9356 H         1 <0>         0.1269
     34 H9          4.2641   -3.1271   -1.9084 H         1 <0>         0.1371
     35 H10         1.4948   -3.0632    1.9108 H         1 <0>         0.0824
     36 H11        -0.1974   -2.6703    1.4789 H         1 <0>         0.0759
     37 H12        -0.4236   -4.5838    0.1084 H         1 <0>         0.0750
     38 H13         0.8685   -5.2160    1.1819 H         1 <0>         0.0791
     39 H14         1.2110   -4.9233   -1.5587 H         1 <0>         0.0774
     40 H15         2.5624   -4.7779   -0.3938 H         1 <0>         0.0832
     41 H16        -0.9250   -0.5581    0.0083 H         1 <0>         0.1339
     42 H17        -0.9599    1.9008    0.0169 H         1 <0>         0.1436
     43 H18         3.3059    1.9832   -0.0186 H         1 <0>         0.1430
     44 H19         3.3658   -0.4752   -0.0324 H         1 <0>         0.1317
     45 H20         2.0462    3.9162    2.2400 H         1 <0>         0.1317
     46 H21         1.1240    5.3906    1.8606 H         1 <0>         0.1336
     47 H22         0.2667    3.8818    2.2568 H         1 <0>         0.1316
@<TRIPOS>BOND
     1    1    2 1
     2    1   26 1
     3    1   27 1
     4    1   28 1
     5    2    3 1
     6    2    4 1
     7    3   29 1
     8    3   30 1
     9    3   31 1
    10    4    9 ar
    11    4    5 ar
    12    5    6 ar
    13    5   32 1
    14    6    7 ar
    15    6   33 1
    16    7    8 ar
    17    7   11 1
    18    8    9 ar
    19    8   34 1
    20    9   10 1
    21   11   15 1
    22   11   12 2
    23   12   13 1
    24   12   16 1
    25   13   14 1
    26   13   35 1
    27   13   36 1
    28   14   15 1
    29   14   37 1
    30   14   38 1
    31   15   39 1
    32   15   40 1
    33   16   21 ar
    34   16   17 ar
    35   17   18 ar
    36   17   41 1
    37   18   19 ar
    38   18   42 1
    39   19   20 ar
    40   19   22 1
    41   20   21 ar
    42   20   43 1
    43   21   44 1
    44   22   23 2
    45   22   24 2
    46   22   25 1
    47   25   45 1
    48   25   46 1
    49   25   47 1
@<TRIPOS>MOLECULE
ZINC03814650
   42    44     0     0     0
SMALL
USER_CHARGES

@<TRIPOS>ATOM
      1 C1          1.1437    4.3054    1.7667 C.3       1 <0>        -0.6503
      2 S1          1.1363    3.8481    0.0113 S.o2      1 <0>         2.4974
      3 O1          2.3581    4.2375   -0.6011 O.2       1 <0>        -0.9354
      4 O2         -0.1106    4.1899   -0.5783 O.2       1 <0>        -0.9360
      5 C2          1.1702    2.0865    0.0021 C.ar      1 <0>        -0.6589
      6 C3         -0.0166    1.3750    0.0096 C.ar      1 <0>        -0.0207
      7 C4          0.0021   -0.0041    0.0020 C.ar      1 <0>        -0.1261
      8 C5          1.2235   -0.6827   -0.0133 C.ar      1 <0>         0.0163
      9 C6          2.4179    0.0425   -0.0208 C.ar      1 <0>        -0.1243
     10 C7          2.3835    1.4213   -0.0130 C.ar      1 <0>        -0.0198
     11 C8          1.2518   -2.1563   -0.0219 C.2       1 <0>        -0.0819
     12 C9          1.7222   -2.9044   -1.0282 C.2       1 <0>        -0.0887
     13 C10         1.5970   -4.3742   -0.6997 C.3       1 <0>        -0.0859
     14 C11         0.5926   -4.4354    0.4732 C.3       1 <0>        -0.1216
     15 C12         0.7600   -3.0335    1.1061 C.3       1 <0>        -0.0859
     16 C13         2.2837   -2.3689   -2.2813 C.ar      1 <0>         0.0259
     17 C14         1.4696   -1.6595   -3.1686 C.ar      1 <0>        -0.1157
     18 C15         2.0015   -1.1575   -4.3377 C.ar      1 <0>        -0.0387
     19 C16         3.3364   -1.3620   -4.6389 C.ar      1 <0>        -0.2222
     20 C17         4.1496   -2.0684   -3.7670 C.ar      1 <0>         0.1567
     21 C18         3.6306   -2.5731   -2.5902 C.ar      1 <0>        -0.1456
     22 F1          5.4519   -2.2642   -4.0685 F         1 <0>        -0.1207
     23 C19         3.9085   -0.8146   -5.9211 C.3       1 <0>         0.5124
     24 F2          2.9058   -0.1450   -6.6307 F         1 <0>        -0.1720
     25 F3          4.9455    0.0768   -5.6260 F         1 <0>        -0.1707
     26 F4          4.4052   -1.8674   -6.6971 F         1 <0>        -0.1717
     27 H1          2.0458    3.9170    2.2395 H         1 <0>         0.1316
     28 H2          1.1237    5.3913    1.8593 H         1 <0>         0.1340
     29 H3          0.2662    3.8827    2.2559 H         1 <0>         0.1317
     30 H4         -0.9599    1.9009    0.0169 H         1 <0>         0.1452
     31 H5         -0.9250   -0.5581    0.0082 H         1 <0>         0.1356
     32 H6          3.3656   -0.4753   -0.0322 H         1 <0>         0.1319
     33 H7          3.3059    1.9831   -0.0188 H         1 <0>         0.1443
     34 H8          1.2107   -4.9230   -1.5586 H         1 <0>         0.0793
     35 H9          2.5622   -4.7778   -0.3938 H         1 <0>         0.0844
     36 H10        -0.4238   -4.5840    0.1086 H         1 <0>         0.0768
     37 H11         0.8684   -5.2161    1.1821 H         1 <0>         0.0808
     38 H12         1.4944   -3.0632    1.9110 H         1 <0>         0.0849
     39 H13        -0.1977   -2.6703    1.4788 H         1 <0>         0.0790
     40 H14         0.4264   -1.5022   -2.9376 H         1 <0>         0.1422
     41 H15         1.3735   -0.6064   -5.0220 H         1 <0>         0.1523
     42 H16         4.2644   -3.1241   -1.9112 H         1 <0>         0.1500
@<TRIPOS>BOND
     1    1    2 1
     2    1   27 1
     3    1   28 1
     4    1   29 1
     5    2    3 2
     6    2    4 2
     7    2    5 1
     8    5   10 ar
     9    5    6 ar
    10    6    7 ar
    11    6   30 1
    12    7    8 ar
    13    7   31 1
    14    8    9 ar
    15    8   11 1
    16    9   10 ar
    17    9   32 1
    18   10   33 1
    19   11   15 1
    20   11   12 2
    21   12   13 1
    22   12   16 1
    23   13   14 1
    24   13   34 1
    25   13   35 1
    26   14   15 1
    27   14   36 1
    28   14   37 1
    29   15   38 1
    30   15   39 1
    31   16   21 ar
    32   16   17 ar
    33   17   18 ar
    34   17   40 1
    35   18   19 ar
    36   18   41 1
    37   19   20 ar
    38   19   23 1
    39   20   21 ar
    40   20   22 1
    41   21   42 1
    42   23   24 1
    43   23   25 1
    44   23   26 1
@<TRIPOS>MOLECULE
ZINC03814651
   38    40     0     0     0
SMALL
USER_CHARGES

@<TRIPOS>ATOM
      1 C1          2.6647   -2.4787    0.5151 C.ar      1 <0>        -0.0733
      2 C2          2.9812   -3.7249    1.0128 C.ar      1 <0>        -0.1507
      3 C3          2.3087   -4.2245    2.1171 C.ar      1 <0>         0.1028
      4 C4          1.3188   -3.4733    2.7313 C.ar      1 <0>        -0.1514
      5 C5          0.9977   -2.2231    2.2468 C.ar      1 <0>        -0.0760
      6 C6          1.6721   -1.7139    1.1338 C.ar      1 <0>        -0.0541
      7 C7          1.3336   -0.3782    0.6109 C.2       1 <0>        -0.0681
      8 C8          2.1634    0.6730    0.6086 C.2       1 <0>        -0.1034
      9 C9          1.4889    1.8796   -0.0021 C.3       1 <0>        -0.0834
     10 C10        -0.0189    1.5412    0.0105 C.3       1 <0>        -0.1221
     11 C11         0.0021   -0.0041    0.0020 C.3       1 <0>        -0.0880
     12 C12         3.5422    0.6556    1.1291 C.ar      1 <0>         0.0315
     13 C13         3.7756    0.4547    2.4921 C.ar      1 <0>        -0.1244
     14 C14         5.0688    0.4334    2.9710 C.ar      1 <0>        -0.0146
     15 C15         6.1333    0.6226    2.1072 C.ar      1 <0>        -0.6776
     16 C16         5.9096    0.8278    0.7571 C.ar      1 <0>        -0.0153
     17 C17         4.6221    0.8455    0.2628 C.ar      1 <0>        -0.1309
     18 S1          7.7816    0.6017    2.7295 S.o2      1 <0>         2.6999
     19 O1          7.7513   -0.1508    3.9345 O.2       1 <0>        -0.9624
     20 O2          8.6236    0.2579    1.6376 O.2       1 <0>        -0.9628
     21 N1          8.1653    2.1563    3.1518 N.pl3     1 <0>        -1.2499
     22 F1          2.6196   -5.4485    2.5970 F         1 <0>        -0.1373
     23 H1          3.1863   -2.0923   -0.3481 H         1 <0>         0.1312
     24 H2          3.7517   -4.3147    0.5388 H         1 <0>         0.1381
     25 H3          0.7984   -3.8680    3.5914 H         1 <0>         0.1387
     26 H4          0.2267   -1.6385    2.7266 H         1 <0>         0.1345
     27 H5          1.8351    2.0304   -1.0246 H         1 <0>         0.0816
     28 H6          1.6832    2.7675    0.5996 H         1 <0>         0.0758
     29 H7         -0.5128    1.9291   -0.8803 H         1 <0>         0.0793
     30 H8         -0.4957    1.9195    0.9147 H         1 <0>         0.0749
     31 H9         -0.8151   -0.3976    0.6065 H         1 <0>         0.0775
     32 H10        -0.0683   -0.3785   -1.0192 H         1 <0>         0.0833
     33 H11         2.9456    0.3117    3.1681 H         1 <0>         0.1333
     34 H12         5.2510    0.2735    4.0234 H         1 <0>         0.1443
     35 H13         6.7452    0.9741    0.0888 H         1 <0>         0.1450
     36 H14         4.4490    1.0053   -0.7911 H         1 <0>         0.1355
     37 H15         7.5153    2.8661    3.0312 H         1 <0>         0.4167
     38 H16         9.0401    2.3571    3.5197 H         1 <0>         0.4216
@<TRIPOS>BOND
     1    1    6 ar
     2    1    2 ar
     3    1   23 1
     4    2    3 ar
     5    2   24 1
     6    3    4 ar
     7    3   22 1
     8    4    5 ar
     9    4   25 1
    10    5    6 ar
    11    5   26 1
    12    6    7 1
    13    7   11 1
    14    7    8 2
    15    8    9 1
    16    8   12 1
    17    9   10 1
    18    9   27 1
    19    9   28 1
    20   10   11 1
    21   10   29 1
    22   10   30 1
    23   11   31 1
    24   11   32 1
    25   12   17 ar
    26   12   13 ar
    27   13   14 ar
    28   13   33 1
    29   14   15 ar
    30   14   34 1
    31   15   16 ar
    32   15   18 1
    33   16   17 ar
    34   16   35 1
    35   17   36 1
    36   18   19 2
    37   18   20 2
    38   18   21 1
    39   21   37 1
    40   21   38 1
@<TRIPOS>MOLECULE
ZINC03814652
   38    40     0     0     0
SMALL
USER_CHARGES

@<TRIPOS>ATOM
      1 C1          3.0866    2.1592   -3.1622 C.ar      1 <0>        -0.1251
      2 C2          2.3751    2.3940   -4.3201 C.ar      1 <0>        -0.0143
      3 C3          1.8923    3.6614   -4.5946 C.ar      1 <0>        -0.6764
      4 C4          2.1134    4.7005   -3.7079 C.ar      1 <0>        -0.0149
      5 C5          2.8179    4.4794   -2.5430 C.ar      1 <0>        -0.1293
      6 C6          3.3088    3.2023   -2.2593 C.ar      1 <0>         0.0269
      7 C7          4.0626    2.9580   -1.0165 C.2       1 <0>        -0.0930
      8 C8          3.6532    2.1626   -0.0197 C.2       1 <0>        -0.0755
      9 C9          4.6685    2.1499    1.0996 C.3       1 <0>        -0.0873
     10 C10         5.9645    2.7077    0.4646 C.3       1 <0>        -0.1220
     11 C11         5.4050    3.5700   -0.6893 C.3       1 <0>        -0.0845
     12 C12         2.3864    1.4096   -0.0127 C.ar      1 <0>        -0.0218
     13 C13         1.1659    2.0904    0.0022 C.ar      1 <0>        -0.0841
     14 C14        -0.0167    1.3814    0.0096 C.ar      1 <0>        -0.1213
     15 C15         0.0021   -0.0041    0.0020 C.ar      1 <0>         0.0712
     16 C16         1.2104   -0.6870   -0.0136 C.ar      1 <0>         0.0721
     17 C17         2.4009    0.0125   -0.0208 C.ar      1 <0>        -0.1137
     18 F1          1.2216   -2.0379   -0.0214 F         1 <0>        -0.1254
     19 F2         -1.1601   -0.6928    0.0094 F         1 <0>        -0.1254
     20 S1          0.9912    3.9535   -6.0803 S.o2      1 <0>         2.6996
     21 O1          0.4499    2.7018   -6.4798 O.2       1 <0>        -0.9619
     22 O2          0.1780    5.0947   -5.8444 O.2       1 <0>        -0.9623
     23 N1          2.0892    4.3867   -7.2418 N.pl3     1 <0>        -1.2498
     24 H1          3.4670    1.1706   -2.9515 H         1 <0>         0.1336
     25 H2          2.1984    1.5877   -5.0166 H         1 <0>         0.1449
     26 H3          1.7330    5.6870   -3.9284 H         1 <0>         0.1457
     27 H4          2.9893    5.2913   -1.8517 H         1 <0>         0.1365
     28 H5          4.3384    2.7895    1.9181 H         1 <0>         0.0853
     29 H6          4.8293    1.1317    1.4540 H         1 <0>         0.0783
     30 H7          6.5928    1.9037    0.0811 H         1 <0>         0.0759
     31 H8          6.5132    3.3213    1.1791 H         1 <0>         0.0803
     32 H9          6.0656    3.5198   -1.5549 H         1 <0>         0.0774
     33 H10         5.2816    4.6033   -0.3650 H         1 <0>         0.0836
     34 H11         1.1490    3.1702    0.0077 H         1 <0>         0.1399
     35 H12        -0.9600    1.9073    0.0169 H         1 <0>         0.1500
     36 H13         3.3410   -0.5190   -0.0322 H         1 <0>         0.1481
     37 H14         3.0329    4.4358   -7.0229 H         1 <0>         0.4168
     38 H15         1.7886    4.5913   -8.1411 H         1 <0>         0.4218
@<TRIPOS>BOND
     1    1    6 ar
     2    1    2 ar
     3    1   24 1
     4    2    3 ar
     5    2   25 1
     6    3    4 ar
     7    3   20 1
     8    4    5 ar
     9    4   26 1
    10    5    6 ar
    11    5   27 1
    12    6    7 1
    13    7   11 1
    14    7    8 2
    15    8    9 1
    16    8   12 1
    17    9   10 1
    18    9   28 1
    19    9   29 1
    20   10   11 1
    21   10   30 1
    22   10   31 1
    23   11   32 1
    24   11   33 1
    25   12   17 ar
    26   12   13 ar
    27   13   14 ar
    28   13   34 1
    29   14   15 ar
    30   14   35 1
    31   15   16 ar
    32   15   19 1
    33   16   17 ar
    34   16   18 1
    35   17   36 1
    36   20   21 2
    37   20   22 2
    38   20   23 1
    39   23   37 1
    40   23   38 1
@<TRIPOS>MOLECULE
ZINC03814653
   42    44     0     0     0
SMALL
USER_CHARGES

@<TRIPOS>ATOM
      1 C1          7.5661    0.3922    3.9913 C.3       1 <0>         0.0255
      2 O1          7.4052    0.6082    2.5879 O.3       1 <0>        -0.3163
      3 C2          6.1343    0.6242    2.1081 C.ar      1 <0>         0.1329
      4 C3          5.9085    0.8294    0.7530 C.ar      1 <0>        -0.1503
      5 C4          4.6212    0.8460    0.2615 C.ar      1 <0>        -0.0647
      6 C5          3.5418    0.6559    1.1291 C.ar      1 <0>        -0.0842
      7 C6          3.7739    0.4550    2.4928 C.ar      1 <0>        -0.0598
      8 C7          5.0649    0.4348    2.9741 C.ar      1 <0>        -0.2062
      9 C8          2.1635    0.6732    0.6087 C.2       1 <0>        -0.0573
     10 C9          1.3336   -0.3783    0.6110 C.2       1 <0>        -0.1133
     11 C10         0.0021   -0.0041    0.0020 C.3       1 <0>        -0.0822
     12 C11        -0.0189    1.5412    0.0105 C.3       1 <0>        -0.1223
     13 C12         1.4889    1.8797   -0.0021 C.3       1 <0>        -0.0892
     14 C13         1.6720   -1.7140    1.1340 C.ar      1 <0>         0.0365
     15 C14         2.6645   -2.4792    0.5158 C.ar      1 <0>        -0.1237
     16 C15         2.9791   -3.7263    1.0138 C.ar      1 <0>        -0.0150
     17 C16         2.3073   -4.2245    2.1163 C.ar      1 <0>        -0.6787
     18 C17         1.3197   -3.4746    2.7304 C.ar      1 <0>        -0.0161
     19 C18         0.9979   -2.2237    2.2469 C.ar      1 <0>        -0.1317
     20 S1          2.7119   -5.8214    2.7415 S.o2      1 <0>         2.7000
     21 O2          4.0433   -6.0946    2.3268 O.2       1 <0>        -0.9631
     22 O3          2.3220   -5.8333    4.1079 O.2       1 <0>        -0.9638
     23 N1          1.7402   -6.9128    1.9626 N.pl3     1 <0>        -1.2500
     24 H1          7.0552    1.1824    4.5415 H         1 <0>         0.0565
     25 H2          7.1388   -0.5734    4.2616 H         1 <0>         0.0572
     26 H3          8.6270    0.4029    4.2412 H         1 <0>         0.1025
     27 H4          6.7431    0.9765    0.0835 H         1 <0>         0.1334
     28 H5          4.4466    1.0053   -0.7923 H         1 <0>         0.1305
     29 H6          2.9428    0.3118    3.1675 H         1 <0>         0.1230
     30 H7          5.2454    0.2753    4.0268 H         1 <0>         0.1301
     31 H8         -0.8152   -0.3976    0.6064 H         1 <0>         0.0742
     32 H9         -0.0682   -0.3785   -1.0192 H         1 <0>         0.0803
     33 H10        -0.5129    1.9291   -0.8803 H         1 <0>         0.0783
     34 H11        -0.4957    1.9195    0.9147 H         1 <0>         0.0739
     35 H12         1.8351    2.0305   -1.0246 H         1 <0>         0.0823
     36 H13         1.6831    2.7677    0.5996 H         1 <0>         0.0767
     37 H14         3.1865   -2.0935   -0.3474 H         1 <0>         0.1332
     38 H15         3.7488   -4.3172    0.5396 H         1 <0>         0.1436
     39 H16         0.7998   -3.8697    3.5906 H         1 <0>         0.1441
     40 H17         0.2271   -1.6394    2.7274 H         1 <0>         0.1348
     41 H18         1.1011   -6.6069    1.3001 H         1 <0>         0.4168
     42 H19         1.8100   -7.8581    2.1688 H         1 <0>         0.4214
@<TRIPOS>BOND
     1    1    2 1
     2    1   24 1
     3    1   25 1
     4    1   26 1
     5    2    3 1
     6    3    8 ar
     7    3    4 ar
     8    4    5 ar
     9    4   27 1
    10    5    6 ar
    11    5   28 1
    12    6    7 ar
    13    6    9 1
    14    7    8 ar
    15    7   29 1
    16    8   30 1
    17    9   13 1
    18    9   10 2
    19   10   11 1
    20   10   14 1
    21   11   12 1
    22   11   31 1
    23   11   32 1
    24   12   13 1
    25   12   33 1
    26   12   34 1
    27   13   35 1
    28   13   36 1
    29   14   19 ar
    30   14   15 ar
    31   15   16 ar
    32   15   37 1
    33   16   17 ar
    34   16   38 1
    35   17   18 ar
    36   17   20 1
    37   18   19 ar
    38   18   39 1
    39   19   40 1
    40   20   21 2
    41   20   22 2
    42   20   23 1
    43   23   41 1
    44   23   42 1
@<TRIPOS>MOLECULE
ZINC03814654
   42    44     0     0     0
SMALL
USER_CHARGES

@<TRIPOS>ATOM
      1 C1          2.9613   -0.1494   -6.6500 C.3       1 <0>         0.0242
      2 O1          3.8535   -0.8683   -5.7961 O.3       1 <0>        -0.3079
      3 C2          3.3373   -1.3621   -4.6399 C.ar      1 <0>         0.1012
      4 C3          1.9982   -1.1565   -4.3364 C.ar      1 <0>        -0.1793
      5 C4          1.4684   -1.6602   -3.1680 C.ar      1 <0>        -0.0697
      6 C5          2.2837   -2.3694   -2.2813 C.ar      1 <0>        -0.0529
      7 C6          3.6316   -2.5744   -2.5893 C.ar      1 <0>        -0.1025
      8 C7          4.1522   -2.0715   -3.7641 C.ar      1 <0>         0.0721
      9 F1          5.4548   -2.2681   -4.0636 F         1 <0>        -0.1297
     10 C8          1.7224   -2.9046   -1.0285 C.2       1 <0>        -0.0643
     11 C9          1.2519   -2.1562   -0.0220 C.2       1 <0>        -0.1033
     12 C10         0.7603   -3.0334    1.1060 C.3       1 <0>        -0.0832
     13 C11         0.5928   -4.4353    0.4731 C.3       1 <0>        -0.1218
     14 C12         1.5972   -4.3743   -0.6999 C.3       1 <0>        -0.0889
     15 C13         1.2235   -0.6827   -0.0133 C.ar      1 <0>         0.0320
     16 C14         0.0021   -0.0041    0.0020 C.ar      1 <0>        -0.1301
     17 C15        -0.0166    1.3750    0.0096 C.ar      1 <0>        -0.0159
     18 C16         1.1702    2.0865    0.0021 C.ar      1 <0>        -0.6776
     19 C17         2.3836    1.4213   -0.0132 C.ar      1 <0>        -0.0148
     20 C18         2.4180    0.0426   -0.0209 C.ar      1 <0>        -0.1243
     21 S1          1.1363    3.8481    0.0119 S.o2      1 <0>         2.6998
     22 O2          2.3683    4.2812   -0.5484 O.2       1 <0>        -0.9626
     23 O3         -0.1218    4.2331   -0.5248 O.2       1 <0>        -0.9633
     24 N1          1.1420    4.3291    1.5965 N.pl3     1 <0>        -1.2499
     25 H1          2.1414   -0.8018   -6.9505 H         1 <0>         0.0591
     26 H2          2.5625    0.7128   -6.1155 H         1 <0>         0.0599
     27 H3          3.4995    0.1890   -7.5354 H         1 <0>         0.1059
     28 H4          1.3694   -0.6047   -5.0194 H         1 <0>         0.1413
     29 H5          0.4254   -1.5035   -2.9357 H         1 <0>         0.1316
     30 H6          4.2642   -3.1256   -1.9094 H         1 <0>         0.1441
     31 H7          1.4947   -3.0632    1.9109 H         1 <0>         0.0823
     32 H8         -0.1975   -2.6703    1.4789 H         1 <0>         0.0759
     33 H9         -0.4236   -4.5839    0.1084 H         1 <0>         0.0752
     34 H10         0.8685   -5.2161    1.1819 H         1 <0>         0.0790
     35 H11         1.2109   -4.9232   -1.5587 H         1 <0>         0.0780
     36 H12         2.5623   -4.7779   -0.3939 H         1 <0>         0.0833
     37 H13        -0.9250   -0.5581    0.0083 H         1 <0>         0.1358
     38 H14        -0.9599    1.9009    0.0169 H         1 <0>         0.1449
     39 H15         3.3059    1.9832   -0.0186 H         1 <0>         0.1442
     40 H16         3.3657   -0.4752   -0.0324 H         1 <0>         0.1335
     41 H17         1.1615    3.6663    2.3045 H         1 <0>         0.4169
     42 H18         1.1259    5.2736    1.8167 H         1 <0>         0.4216
@<TRIPOS>BOND
     1    1    2 1
     2    1   25 1
     3    1   26 1
     4    1   27 1
     5    2    3 1
     6    3    8 ar
     7    3    4 ar
     8    4    5 ar
     9    4   28 1
    10    5    6 ar
    11    5   29 1
    12    6    7 ar
    13    6   10 1
    14    7    8 ar
    15    7   30 1
    16    8    9 1
    17   10   14 1
    18   10   11 2
    19   11   12 1
    20   11   15 1
    21   12   13 1
    22   12   31 1
    23   12   32 1
    24   13   14 1
    25   13   33 1
    26   13   34 1
    27   14   35 1
    28   14   36 1
    29   15   20 ar
    30   15   16 ar
    31   16   17 ar
    32   16   37 1
    33   17   18 ar
    34   17   38 1
    35   18   19 ar
    36   18   21 1
    37   19   20 ar
    38   19   39 1
    39   20   40 1
    40   21   22 2
    41   21   23 2
    42   21   24 1
    43   24   41 1
    44   24   42 1
@<TRIPOS>MOLECULE
ZINC03814655
   41    44     0     0     0
SMALL
USER_CHARGES

@<TRIPOS>ATOM
      1 C1          0.0021   -0.0041    0.0020 C.ar      1 <0>        -0.1290
      2 C2         -0.0166    1.3750    0.0096 C.ar      1 <0>        -0.0192
      3 C3          1.1702    2.0865    0.0021 C.ar      1 <0>        -0.6783
      4 C4          2.3836    1.4213   -0.0130 C.ar      1 <0>        -0.0130
      5 C5          2.4180    0.0426   -0.0208 C.ar      1 <0>        -0.1238
      6 C6          1.2235   -0.6827   -0.0133 C.ar      1 <0>         0.0297
      7 C7          1.2519   -2.1562   -0.0210 C.2       1 <0>        -0.0999
      8 C8          1.7221   -2.9053   -1.0271 C.2       1 <0>        -0.0661
      9 C9          1.5970   -4.3747   -0.6975 C.3       1 <0>        -0.0882
     10 C10         0.5930   -4.4350    0.4758 C.3       1 <0>        -0.1218
     11 C11         0.7606   -3.0327    1.1078 C.3       1 <0>        -0.0835
     12 C12         2.2830   -2.3709   -2.2804 C.ar      1 <0>        -0.0330
     13 C13         1.4675   -1.6623   -3.1672 C.ar      1 <0>        -0.0905
     14 C14         1.9964   -1.1578   -4.3362 C.ar      1 <0>        -0.0971
     15 C15         3.3342   -1.3617   -4.6430 C.ar      1 <0>         0.0363
     16 C16         4.1524   -2.0729   -3.7655 C.ar      1 <0>         0.0345
     17 C17         3.6305   -2.5761   -2.5887 C.ar      1 <0>        -0.0875
     18 O1          5.4100   -2.1325   -4.2938 O.3       1 <0>        -0.3079
     19 C18         5.2569   -1.8073   -5.6879 C.3       1 <0>         0.2129
     20 O2          4.0812   -0.9770   -5.7189 O.3       1 <0>        -0.3070
     21 S1          1.1363    3.8481    0.0118 S.o2      1 <0>         2.6999
     22 O3          2.3683    4.2812   -0.5485 O.2       1 <0>        -0.9619
     23 O4         -0.1218    4.2331   -0.5250 O.2       1 <0>        -0.9602
     24 N1          1.1420    4.3292    1.5964 N.pl3     1 <0>        -1.2481
     25 H1         -0.9250   -0.5581    0.0082 H         1 <0>         0.1359
     26 H2         -0.9599    1.9009    0.0169 H         1 <0>         0.1446
     27 H3          3.3059    1.9832   -0.0188 H         1 <0>         0.1431
     28 H4          3.3657   -0.4752   -0.0322 H         1 <0>         0.1327
     29 H5          1.2104   -4.9242   -1.5558 H         1 <0>         0.0781
     30 H6          2.5622   -4.7781   -0.3915 H         1 <0>         0.0830
     31 H7         -0.4236   -4.5838    0.1116 H         1 <0>         0.0756
     32 H8          0.8689   -5.2153    1.1852 H         1 <0>         0.0790
     33 H9          1.4953   -3.0619    1.9124 H         1 <0>         0.0824
     34 H10        -0.1970   -2.6693    1.4807 H         1 <0>         0.0764
     35 H11         0.4246   -1.5060   -2.9346 H         1 <0>         0.1373
     36 H12         1.3659   -0.6067   -5.0181 H         1 <0>         0.1388
     37 H13         4.2631   -3.1272   -1.9087 H         1 <0>         0.1365
     38 H14         5.1030   -2.7112   -6.2773 H         1 <0>         0.0862
     39 H15         6.1247   -1.2559   -6.0500 H         1 <0>         0.1340
     40 H16         1.5481    5.1742    1.8453 H         1 <0>         0.4221
     41 H17         0.7391    3.7660    2.2757 H         1 <0>         0.4172
@<TRIPOS>BOND
     1    1    6 ar
     2    1    2 ar
     3    1   25 1
     4    2    3 ar
     5    2   26 1
     6    3    4 ar
     7    3   21 1
     8    4    5 ar
     9    4   27 1
    10    5    6 ar
    11    5   28 1
    12    6    7 1
    13    7   11 1
    14    7    8 2
    15    8    9 1
    16    8   12 1
    17    9   10 1
    18    9   29 1
    19    9   30 1
    20   10   11 1
    21   10   31 1
    22   10   32 1
    23   11   33 1
    24   11   34 1
    25   12   17 ar
    26   12   13 ar
    27   13   14 ar
    28   13   35 1
    29   14   15 ar
    30   14   36 1
    31   15   20 1
    32   15   16 ar
    33   16   17 ar
    34   16   18 1
    35   17   37 1
    36   18   19 1
    37   19   20 1
    38   19   38 1
    39   19   39 1
    40   21   22 2
    41   21   23 2
    42   21   24 1
    43   24   40 1
    44   24   41 1
@<TRIPOS>MOLECULE
ZINC03814656
   46    48     0     0     0
SMALL
USER_CHARGES

@<TRIPOS>ATOM
      1 C1          3.1777   -1.4120   -6.9933 C.3       1 <0>         0.0277
      2 N1          3.8714   -0.8542   -5.8247 N.pl3     1 <0>        -0.5067
      3 C2          3.8255    0.6140   -5.8363 C.3       1 <0>         0.0272
      4 C3          3.3400   -1.3618   -4.6382 C.ar      1 <0>         0.0993
      5 C4          1.9987   -1.1553   -4.3348 C.ar      1 <0>        -0.1340
      6 C5          1.4687   -1.6600   -3.1678 C.ar      1 <0>        -0.0886
      7 C6          2.2841   -2.3697   -2.2810 C.ar      1 <0>        -0.0315
      8 C7          3.6323   -2.5753   -2.5886 C.ar      1 <0>        -0.0945
      9 C8          4.1539   -2.0730   -3.7614 C.ar      1 <0>        -0.0106
     10 Cl1         5.8278   -2.3273   -4.1450 Cl        1 <0>        -0.0484
     11 C9          1.7225   -2.9047   -1.0287 C.2       1 <0>        -0.0690
     12 C10         1.2520   -2.1561   -0.0220 C.2       1 <0>        -0.1012
     13 C11         0.7603   -3.0334    1.1060 C.3       1 <0>        -0.0835
     14 C12         0.5928   -4.4353    0.4730 C.3       1 <0>        -0.1217
     15 C13         1.5973   -4.3743   -0.6999 C.3       1 <0>        -0.0880
     16 C14         1.2236   -0.6827   -0.0133 C.ar      1 <0>         0.0313
     17 C15         0.0021   -0.0041    0.0020 C.ar      1 <0>        -0.1298
     18 C16        -0.0166    1.3750    0.0096 C.ar      1 <0>        -0.0159
     19 C17         1.1702    2.0865    0.0021 C.ar      1 <0>        -0.6773
     20 C18         2.3836    1.4213   -0.0132 C.ar      1 <0>        -0.0144
     21 C19         2.4180    0.0426   -0.0209 C.ar      1 <0>        -0.1238
     22 S1          1.1363    3.8481    0.0119 S.o2      1 <0>         2.6992
     23 O1          2.3683    4.2812   -0.5484 O.2       1 <0>        -0.9622
     24 O2         -0.1219    4.2331   -0.5248 O.2       1 <0>        -0.9630
     25 N2          1.1420    4.3291    1.5965 N.pl3     1 <0>        -1.2498
     26 H1          2.1199   -1.1535   -6.9454 H         1 <0>         0.0319
     27 H2          3.6116   -0.9998   -7.9043 H         1 <0>         0.0773
     28 H3          3.2869   -2.4965   -6.9972 H         1 <0>         0.0713
     29 H4          4.4056    1.0023   -4.9992 H         1 <0>         0.0724
     30 H5          4.2457    0.9832   -6.7719 H         1 <0>         0.0778
     31 H6          2.7912    0.9459   -5.7466 H         1 <0>         0.0324
     32 H7          1.3703   -0.6026   -5.0176 H         1 <0>         0.1303
     33 H8          0.4257   -1.5031   -2.9356 H         1 <0>         0.1271
     34 H9          4.2641   -3.1271   -1.9084 H         1 <0>         0.1374
     35 H10         1.4948   -3.0632    1.9108 H         1 <0>         0.0827
     36 H11        -0.1974   -2.6703    1.4789 H         1 <0>         0.0762
     37 H12        -0.4236   -4.5838    0.1084 H         1 <0>         0.0752
     38 H13         0.8685   -5.2160    1.1819 H         1 <0>         0.0794
     39 H14         1.2110   -4.9233   -1.5587 H         1 <0>         0.0777
     40 H15         2.5624   -4.7779   -0.3938 H         1 <0>         0.0837
     41 H16        -0.9250   -0.5581    0.0083 H         1 <0>         0.1356
     42 H17        -0.9599    1.9008    0.0169 H         1 <0>         0.1448
     43 H18         3.3059    1.9832   -0.0186 H         1 <0>         0.1442
     44 H19         3.3658   -0.4752   -0.0324 H         1 <0>         0.1333
     45 H20         1.1615    3.6663    2.3045 H         1 <0>         0.4169
     46 H21         1.1258    5.2736    1.8167 H         1 <0>         0.4216
@<TRIPOS>BOND
     1    1    2 1
     2    1   26 1
     3    1   27 1
     4    1   28 1
     5    2    3 1
     6    2    4 1
     7    3   29 1
     8    3   30 1
     9    3   31 1
    10    4    9 ar
    11    4    5 ar
    12    5    6 ar
    13    5   32 1
    14    6    7 ar
    15    6   33 1
    16    7    8 ar
    17    7   11 1
    18    8    9 ar
    19    8   34 1
    20    9   10 1
    21   11   15 1
    22   11   12 2
    23   12   13 1
    24   12   16 1
    25   13   14 1
    26   13   35 1
    27   13   36 1
    28   14   15 1
    29   14   37 1
    30   14   38 1
    31   15   39 1
    32   15   40 1
    33   16   21 ar
    34   16   17 ar
    35   17   18 ar
    36   17   41 1
    37   18   19 ar
    38   18   42 1
    39   19   20 ar
    40   19   22 1
    41   20   21 ar
    42   20   43 1
    43   21   44 1
    44   22   23 2
    45   22   24 2
    46   22   25 1
    47   25   45 1
    48   25   46 1
@<TRIPOS>MOLECULE
ZINC03814657
   41    43     0     0     0
SMALL
USER_CHARGES

@<TRIPOS>ATOM
      1 C1          3.7766    0.4539    2.4911 C.ar      1 <0>        -0.1045
      2 C2          5.0700    0.4333    2.9695 C.ar      1 <0>        -0.0660
      3 C3          6.1340    0.6228    2.1053 C.ar      1 <0>        -0.1811
      4 C4          5.9096    0.8280    0.7553 C.ar      1 <0>        -0.0667
      5 C5          4.6219    0.8454    0.2616 C.ar      1 <0>        -0.1080
      6 C6          3.5425    0.6552    1.1283 C.ar      1 <0>        -0.0068
      7 C7          2.1634    0.6729    0.6085 C.2       1 <0>        -0.0796
      8 C8          1.3337   -0.3782    0.6108 C.2       1 <0>        -0.0941
      9 C9          0.0021   -0.0041    0.0020 C.3       1 <0>        -0.0847
     10 C10        -0.0189    1.5412    0.0105 C.3       1 <0>        -0.1220
     11 C11         1.4890    1.8796   -0.0021 C.3       1 <0>        -0.0865
     12 C12         1.6722   -1.7140    1.1338 C.ar      1 <0>         0.0270
     13 C13         2.6646   -2.4792    0.5156 C.ar      1 <0>        -0.1250
     14 C14         2.9800   -3.7259    1.0140 C.ar      1 <0>        -0.0141
     15 C15         2.3083   -4.2242    2.1165 C.ar      1 <0>        -0.6763
     16 C16         1.3204   -3.4745    2.7304 C.ar      1 <0>        -0.0150
     17 C17         0.9982   -2.2238    2.2466 C.ar      1 <0>        -0.1289
     18 S1          2.7134   -5.8208    2.7420 S.o2      1 <0>         2.6993
     19 O1          4.0450   -6.0936    2.3274 O.2       1 <0>        -0.9615
     20 O2          2.3235   -5.8326    4.1084 O.2       1 <0>        -0.9620
     21 N1          1.7421   -6.9127    1.9632 N.pl3     1 <0>        -1.2498
     22 C18         7.5440    0.6052    2.6368 C.3       1 <0>         0.5072
     23 F1          7.9182    1.9007    3.0094 F         1 <0>        -0.1758
     24 F2          7.6119   -0.2384    3.7508 F         1 <0>        -0.1755
     25 F3          8.4110    0.1369    1.6437 F         1 <0>        -0.1760
     26 H1          2.9469    0.3106    3.1675 H         1 <0>         0.1339
     27 H2          5.2527    0.2733    4.0218 H         1 <0>         0.1388
     28 H3          6.7449    0.9752    0.0867 H         1 <0>         0.1392
     29 H4          4.4483    1.0053   -0.7923 H         1 <0>         0.1368
     30 H5         -0.8151   -0.3976    0.6065 H         1 <0>         0.0775
     31 H6         -0.0683   -0.3785   -1.0192 H         1 <0>         0.0832
     32 H7         -0.5128    1.9291   -0.8803 H         1 <0>         0.0803
     33 H8         -0.4957    1.9195    0.9147 H         1 <0>         0.0756
     34 H9          1.8351    2.0304   -1.0246 H         1 <0>         0.0839
     35 H10         1.6832    2.7674    0.5997 H         1 <0>         0.0783
     36 H11         3.1862   -2.0936   -0.3479 H         1 <0>         0.1333
     37 H12         3.7499   -4.3166    0.5400 H         1 <0>         0.1449
     38 H13         0.8006   -3.8697    3.5907 H         1 <0>         0.1457
     39 H14         0.2272   -1.6397    2.7270 H         1 <0>         0.1363
     40 H15         1.1030   -6.6071    1.3006 H         1 <0>         0.4167
     41 H16         1.8123   -7.8579    2.1696 H         1 <0>         0.4218
@<TRIPOS>BOND
     1    1    6 ar
     2    1    2 ar
     3    1   26 1
     4    2    3 ar
     5    2   27 1
     6    3    4 ar
     7    3   22 1
     8    4    5 ar
     9    4   28 1
    10    5    6 ar
    11    5   29 1
    12    6    7 1
    13    7   11 1
    14    7    8 2
    15    8    9 1
    16    8   12 1
    17    9   10 1
    18    9   30 1
    19    9   31 1
    20   10   11 1
    21   10   32 1
    22   10   33 1
    23   11   34 1
    24   11   35 1
    25   12   17 ar
    26   12   13 ar
    27   13   14 ar
    28   13   36 1
    29   14   15 ar
    30   14   37 1
    31   15   16 ar
    32   15   18 1
    33   16   17 ar
    34   16   38 1
    35   17   39 1
    36   18   19 2
    37   18   20 2
    38   18   21 1
    39   21   40 1
    40   21   41 1
    41   22   23 1
    42   22   24 1
    43   22   25 1
@<TRIPOS>MOLECULE
ZINC03814658
   41    43     0     0     0
SMALL
USER_CHARGES

@<TRIPOS>ATOM
      1 C1          0.0021   -0.0041    0.0020 C.ar      1 <0>        -0.1269
      2 C2         -0.0166    1.3750    0.0096 C.ar      1 <0>        -0.0182
      3 C3          1.1702    2.0865    0.0021 C.ar      1 <0>        -0.6765
      4 C4          2.3835    1.4213   -0.0132 C.ar      1 <0>        -0.0122
      5 C5          2.4179    0.0425   -0.0209 C.ar      1 <0>        -0.1255
      6 C6          1.2235   -0.6827   -0.0133 C.ar      1 <0>         0.0213
      7 C7          1.2518   -2.1563   -0.0220 C.2       1 <0>        -0.0836
      8 C8          1.7221   -2.9044   -1.0283 C.2       1 <0>        -0.0871
      9 C9          1.5970   -4.3742   -0.6998 C.3       1 <0>        -0.0861
     10 C10         0.5927   -4.4354    0.4731 C.3       1 <0>        -0.1215
     11 C11         0.7601   -3.0335    1.1061 C.3       1 <0>        -0.0857
     12 C12         2.2836   -2.3689   -2.2815 C.ar      1 <0>         0.0251
     13 C13         1.4694   -1.6595   -3.1686 C.ar      1 <0>        -0.1161
     14 C14         2.0015   -1.1566   -4.3374 C.ar      1 <0>        -0.0389
     15 C15         3.3364   -1.3611   -4.6386 C.ar      1 <0>        -0.2221
     16 C16         4.1495   -2.0679   -3.7670 C.ar      1 <0>         0.1569
     17 C17         3.6305   -2.5731   -2.5904 C.ar      1 <0>        -0.1454
     18 F1          5.4518   -2.2638   -4.0685 F         1 <0>        -0.1205
     19 C18         3.9085   -0.8132   -5.9206 C.3       1 <0>         0.5123
     20 F2          2.9059   -0.1432   -6.6299 F         1 <0>        -0.1719
     21 F3          4.9456    0.0780   -5.6250 F         1 <0>        -0.1707
     22 F4          4.4051   -1.8657   -6.6970 F         1 <0>        -0.1715
     23 S1          1.1363    3.8481    0.0119 S.o2      1 <0>         2.6995
     24 O1          2.3683    4.2812   -0.5484 O.2       1 <0>        -0.9604
     25 O2         -0.1218    4.2331   -0.5248 O.2       1 <0>        -0.9590
     26 N1          1.1421    4.3291    1.5965 N.pl3     1 <0>        -1.2478
     27 H1         -0.9250   -0.5581    0.0083 H         1 <0>         0.1369
     28 H2         -0.9599    1.9009    0.0169 H         1 <0>         0.1459
     29 H3          3.3059    1.9831   -0.0190 H         1 <0>         0.1448
     30 H4          3.3655   -0.4753   -0.0324 H         1 <0>         0.1331
     31 H5          1.2106   -4.9230   -1.5587 H         1 <0>         0.0796
     32 H6          2.5622   -4.7778   -0.3939 H         1 <0>         0.0848
     33 H7         -0.4238   -4.5840    0.1086 H         1 <0>         0.0770
     34 H8          0.8684   -5.2161    1.1820 H         1 <0>         0.0810
     35 H9          1.4945   -3.0631    1.9109 H         1 <0>         0.0852
     36 H10        -0.1976   -2.6703    1.4788 H         1 <0>         0.0792
     37 H11         0.4261   -1.5024   -2.9378 H         1 <0>         0.1424
     38 H12         1.3735   -0.6051   -5.0214 H         1 <0>         0.1525
     39 H13         4.2642   -3.1245   -1.9116 H         1 <0>         0.1503
     40 H14         1.5483    5.1741    1.8454 H         1 <0>         0.4226
     41 H15         0.7392    3.7659    2.2758 H         1 <0>         0.4172
@<TRIPOS>BOND
     1    1    6 ar
     2    1    2 ar
     3    1   27 1
     4    2    3 ar
     5    2   28 1
     6    3    4 ar
     7    3   23 1
     8    4    5 ar
     9    4   29 1
    10    5    6 ar
    11    5   30 1
    12    6    7 1
    13    7   11 1
    14    7    8 2
    15    8    9 1
    16    8   12 1
    17    9   10 1
    18    9   31 1
    19    9   32 1
    20   10   11 1
    21   10   33 1
    22   10   34 1
    23   11   35 1
    24   11   36 1
    25   12   17 ar
    26   12   13 ar
    27   13   14 ar
    28   13   37 1
    29   14   15 ar
    30   14   38 1
    31   15   16 ar
    32   15   19 1
    33   16   17 ar
    34   16   18 1
    35   17   39 1
    36   19   20 1
    37   19   21 1
    38   19   22 1
    39   23   24 2
    40   23   25 2
    41   23   26 1
    42   26   40 1
    43   26   41 1
@<TRIPOS>MOLECULE
ZINC03814659
   35    37     0     0     0
SMALL
USER_CHARGES

@<TRIPOS>ATOM
      1 C1         -1.2954    2.0713   -1.3273 C.3       1 <0>        -0.6505
      2 S1         -0.2872    1.2393   -0.0695 S.o2      1 <0>         2.4973
      3 O1         -0.4791   -0.1669   -0.1402 O.2       1 <0>        -0.9359
      4 O2          1.0218    1.7916   -0.0475 O.2       1 <0>        -0.9361
      5 C2         -1.0014    1.7137    1.4698 C.ar      1 <0>        -0.6555
      6 C3         -0.5474    2.8477    2.1195 C.ar      1 <0>        -0.0198
      7 C4         -1.1060    3.2270    3.3228 C.ar      1 <0>        -0.1148
      8 C5         -2.1226    2.4585    3.8894 C.ar      1 <0>         0.0236
      9 C6         -2.5723    1.3136    3.2323 C.ar      1 <0>        -0.1180
     10 C7         -2.0098    0.9476    2.0266 C.ar      1 <0>        -0.0204
     11 C8         -2.7227    2.8572    5.1839 C.2       1 <0>        -0.0741
     12 C9         -2.5380    2.0888    6.3263 C.2       1 <0>        -0.1104
     13 C10        -3.1024    2.4873    7.4899 C.2       1 <0>        -0.1432
     14 S2         -3.9371    3.9933    7.0217 S.3       1 <0>         0.1238
     15 C11        -3.4842    4.0159    5.2953 C.2       1 <0>        -0.0883
     16 C12        -3.8293    5.0058    4.2559 C.ar      1 <0>        -0.0277
     17 C13        -3.6914    6.3713    4.5148 C.ar      1 <0>        -0.0667
     18 C14        -4.0116    7.2912    3.5387 C.ar      1 <0>        -0.1498
     19 C15        -4.4782    6.8633    2.3058 C.ar      1 <0>         0.1144
     20 C16        -4.6217    5.5098    2.0447 C.ar      1 <0>        -0.1509
     21 C17        -4.3004    4.5805    3.0117 C.ar      1 <0>        -0.0577
     22 F1         -4.7949    7.7692    1.3549 F         1 <0>        -0.1337
     23 Br1        -1.5088    0.5039    6.2563 Br        1 <0>        -0.0205
     24 H1         -2.3297    1.7379   -1.2428 H         1 <0>         0.1318
     25 H2         -1.2478    3.1497   -1.1761 H         1 <0>         0.1317
     26 H3         -0.9144    1.8263   -2.3187 H         1 <0>         0.1337
     27 H4          0.2430    3.4395    1.6818 H         1 <0>         0.1447
     28 H5         -0.7534    4.1145    3.8272 H         1 <0>         0.1321
     29 H6         -3.3595    0.7147    3.6660 H         1 <0>         0.1338
     30 H7         -2.3572    0.0612    1.5168 H         1 <0>         0.1454
     31 H8         -3.0591    2.0124    8.4589 H         1 <0>         0.2014
     32 H9         -3.3314    6.7060    5.4765 H         1 <0>         0.1382
     33 H10        -3.9019    8.3473    3.7365 H         1 <0>         0.1436
     34 H11        -4.9861    5.1822    1.0823 H         1 <0>         0.1424
     35 H12        -4.4132    3.5261    2.8074 H         1 <0>         0.1360
@<TRIPOS>BOND
     1    1    2 1
     2    1   24 1
     3    1   25 1
     4    1   26 1
     5    2    3 2
     6    2    4 2
     7    2    5 1
     8    5   10 ar
     9    5    6 ar
    10    6    7 ar
    11    6   27 1
    12    7    8 ar
    13    7   28 1
    14    8    9 ar
    15    8   11 1
    16    9   10 ar
    17    9   29 1
    18   10   30 1
    19   11   15 2
    20   11   12 1
    21   12   13 2
    22   12   23 1
    23   13   14 1
    24   13   31 1
    25   14   15 1
    26   15   16 1
    27   16   21 ar
    28   16   17 ar
    29   17   18 ar
    30   17   32 1
    31   18   19 ar
    32   18   33 1
    33   19   20 ar
    34   19   22 1
    35   20   21 ar
    36   20   34 1
    37   21   35 1
@<TRIPOS>MOLECULE
ZINC03814660
   38    40     0     0     0
SMALL
USER_CHARGES

@<TRIPOS>ATOM
      1 C1         -1.1345    2.0336   -1.2793 C.3       1 <0>        -0.6505
      2 S1         -0.0172    1.4168    0.0098 S.o2      1 <0>         2.4978
      3 O1          0.0021   -0.0041    0.0020 O.2       1 <0>        -0.9368
      4 O2          1.1953    2.1578    0.0022 O.2       1 <0>        -0.9359
      5 C2         -0.7978    1.8475    1.5296 C.ar      1 <0>        -0.6591
      6 C3         -0.5190    3.0637    2.1269 C.ar      1 <0>        -0.0209
      7 C4         -1.1311    3.4085    3.3148 C.ar      1 <0>        -0.1185
      8 C5         -2.0237    2.5239    3.9182 C.ar      1 <0>         0.0127
      9 C6         -2.2967    1.2974    3.3143 C.ar      1 <0>        -0.1305
     10 C7         -1.6827    0.9657    2.1238 C.ar      1 <0>        -0.0208
     11 C8         -2.6804    2.8862    5.1968 C.ar      1 <0>        -0.0524
     12 C9         -4.0607    2.7648    5.3339 C.ar      1 <0>        -0.0983
     13 C10        -4.6681    3.1033    6.5262 C.ar      1 <0>        -0.1147
     14 C11        -3.9123    3.5641    7.5910 C.ar      1 <0>        -0.1081
     15 C12        -2.5430    3.6900    7.4722 C.ar      1 <0>        -0.1044
     16 C13        -1.9136    3.3483    6.2781 C.ar      1 <0>        -0.0285
     17 C14        -0.4426    3.4761    6.1478 C.ar      1 <0>        -0.0634
     18 C15         0.3115    2.4096    5.6601 C.ar      1 <0>        -0.0686
     19 C16         1.6797    2.5348    5.5362 C.ar      1 <0>        -0.1501
     20 C17         2.3060    3.7143    5.9058 C.ar      1 <0>         0.1058
     21 C18         1.5612    4.7752    6.3955 C.ar      1 <0>        -0.1521
     22 C19         0.1919    4.6610    6.5180 C.ar      1 <0>        -0.0778
     23 F1          3.6468    3.8304    5.7879 F         1 <0>        -0.1364
     24 H1         -2.1080    1.5544   -1.1761 H         1 <0>         0.1316
     25 H2         -1.2479    3.1127   -1.1759 H         1 <0>         0.1316
     26 H3         -0.7188    1.8043   -2.2605 H         1 <0>         0.1335
     27 H4          0.1761    3.7463    1.6608 H         1 <0>         0.1432
     28 H5         -0.9158    4.3600    3.7781 H         1 <0>         0.1325
     29 H6         -2.9877    0.6083    3.7771 H         1 <0>         0.1354
     30 H7         -1.8937    0.0160    1.6548 H         1 <0>         0.1446
     31 H8         -4.6560    2.4061    4.5073 H         1 <0>         0.1286
     32 H9         -5.7389    3.0080    6.6293 H         1 <0>         0.1286
     33 H10        -4.3970    3.8261    8.5199 H         1 <0>         0.1287
     34 H11        -1.9594    4.0496    8.3067 H         1 <0>         0.1295
     35 H12        -0.1753    1.4883    5.3760 H         1 <0>         0.1309
     36 H13         2.2642    1.7108    5.1543 H         1 <0>         0.1384
     37 H14         2.0536    5.6927    6.6820 H         1 <0>         0.1391
     38 H15        -0.3877    5.4882    6.9005 H         1 <0>         0.1354
@<TRIPOS>BOND
     1    1    2 1
     2    1   24 1
     3    1   25 1
     4    1   26 1
     5    2    3 2
     6    2    4 2
     7    2    5 1
     8    5   10 ar
     9    5    6 ar
    10    6    7 ar
    11    6   27 1
    12    7    8 ar
    13    7   28 1
    14    8    9 ar
    15    8   11 1
    16    9   10 ar
    17    9   29 1
    18   10   30 1
    19   11   16 ar
    20   11   12 ar
    21   12   13 ar
    22   12   31 1
    23   13   14 ar
    24   13   32 1
    25   14   15 ar
    26   14   33 1
    27   15   16 ar
    28   15   34 1
    29   16   17 1
    30   17   22 ar
    31   17   18 ar
    32   18   19 ar
    33   18   35 1
    34   19   20 ar
    35   19   36 1
    36   20   21 ar
    37   20   23 1
    38   21   22 ar
    39   21   37 1
    40   22   38 1
@<TRIPOS>MOLECULE
ZINC03814661
   37    39     0     0     0
SMALL
USER_CHARGES

@<TRIPOS>ATOM
      1 C1         -4.5555    3.8275    7.1407 C.ar      1 <0>        -0.1076
      2 C2         -5.2141    3.3072    6.0395 C.ar      1 <0>        -0.1146
      3 C3         -4.5056    2.9272    4.9176 C.ar      1 <0>        -0.0979
      4 C4         -3.1205    3.0662    4.8890 C.ar      1 <0>        -0.0532
      5 C5         -2.4521    3.5884    6.0076 C.ar      1 <0>        -0.0283
      6 C6         -3.1829    3.9717    7.1291 C.ar      1 <0>        -0.1043
      7 C7         -0.9772    3.7357    5.9929 C.ar      1 <0>        -0.0635
      8 C8         -0.1710    2.6619    5.6175 C.ar      1 <0>        -0.0691
      9 C9          1.2010    2.8052    5.6007 C.ar      1 <0>        -0.1506
     10 C10         1.7784    4.0103    5.9669 C.ar      1 <0>         0.1059
     11 C11         0.9814    5.0787    6.3454 C.ar      1 <0>        -0.1519
     12 C12        -0.3917    4.9465    6.3602 C.ar      1 <0>        -0.0776
     13 F1          3.1227    4.1443    5.9545 F         1 <0>        -0.1363
     14 C13        -2.3553    2.6595    3.6863 C.ar      1 <0>         0.0155
     15 C14        -2.5607    1.4032    3.1180 C.ar      1 <0>        -0.1314
     16 C15        -1.8458    1.0302    1.9981 C.ar      1 <0>        -0.0148
     17 C16        -0.9267    1.9002    1.4394 C.ar      1 <0>        -0.6796
     18 C17        -0.7149    3.1461    2.0021 C.ar      1 <0>        -0.0200
     19 C18        -1.4278    3.5320    3.1188 C.ar      1 <0>        -0.1190
     20 S1         -0.0172    1.4168    0.0098 S.o2      1 <0>         2.7008
     21 O1          0.0021   -0.0041    0.0020 O.2       1 <0>        -0.9587
     22 O2          1.1718    2.1948    0.0027 O.2       1 <0>        -0.9562
     23 N1         -0.8975    1.8855   -1.3122 N.pl3     1 <0>        -1.2444
     24 H1         -5.1190    4.1219    8.0137 H         1 <0>         0.1289
     25 H2         -6.2884    3.1977    6.0586 H         1 <0>         0.1288
     26 H3         -5.0255    2.5223    4.0619 H         1 <0>         0.1287
     27 H4         -2.6753    4.3776    7.9917 H         1 <0>         0.1296
     28 H5         -0.6200    1.7209    5.3361 H         1 <0>         0.1310
     29 H6          1.8262    1.9754    5.3057 H         1 <0>         0.1386
     30 H7          1.4359    6.0163    6.6297 H         1 <0>         0.1393
     31 H8         -1.0121    5.7795    6.6560 H         1 <0>         0.1356
     32 H9         -3.2782    0.7233    3.5531 H         1 <0>         0.1358
     33 H10        -2.0043    0.0574    1.5567 H         1 <0>         0.1438
     34 H11         0.0071    3.8194    1.5642 H         1 <0>         0.1425
     35 H12        -1.2645    4.5065    3.5549 H         1 <0>         0.1328
     36 H13        -1.2009    1.2230   -1.9525 H         1 <0>         0.4226
     37 H14        -1.1097    2.8224   -1.4463 H         1 <0>         0.4190
@<TRIPOS>BOND
     1    1    6 ar
     2    1    2 ar
     3    1   24 1
     4    2    3 ar
     5    2   25 1
     6    3    4 ar
     7    3   26 1
     8    4    5 ar
     9    4   14 1
    10    5    6 ar
    11    5    7 1
    12    6   27 1
    13    7   12 ar
    14    7    8 ar
    15    8    9 ar
    16    8   28 1
    17    9   10 ar
    18    9   29 1
    19   10   11 ar
    20   10   13 1
    21   11   12 ar
    22   11   30 1
    23   12   31 1
    24   14   19 ar
    25   14   15 ar
    26   15   16 ar
    27   15   32 1
    28   16   17 ar
    29   16   33 1
    30   17   18 ar
    31   17   20 1
    32   18   19 ar
    33   18   34 1
    34   19   35 1
    35   20   21 2
    36   20   22 2
    37   20   23 1
    38   23   36 1
    39   23   37 1
@<TRIPOS>MOLECULE
ZINC03814662
   37    39     0     0     0
SMALL
USER_CHARGES

@<TRIPOS>ATOM
      1 C1         -5.2144    3.3069    6.0394 C.ar      1 <0>        -0.1112
      2 C2         -4.5558    3.8277    7.1404 C.ar      1 <0>        -0.1078
      3 C3         -3.1833    3.9727    7.1285 C.ar      1 <0>        -0.1010
      4 C4         -2.4525    3.5890    6.0071 C.ar      1 <0>        -0.0325
      5 C5         -3.1208    3.0664    4.8887 C.ar      1 <0>        -0.0492
      6 C6         -4.5058    2.9269    4.9175 C.ar      1 <0>        -0.0977
      7 C7         -2.3556    2.6597    3.6860 C.ar      1 <0>         0.0117
      8 C8         -2.5607    1.4032    3.1180 C.ar      1 <0>        -0.1302
      9 C9         -1.8458    1.0302    1.9981 C.ar      1 <0>        -0.0133
     10 C10        -0.9267    1.9002    1.4394 C.ar      1 <0>        -0.6776
     11 C11        -0.7149    3.1461    2.0020 C.ar      1 <0>        -0.0188
     12 C12        -1.4284    3.5324    3.1183 C.ar      1 <0>        -0.1215
     13 S1         -0.0172    1.4168    0.0098 S.o2      1 <0>         2.6986
     14 O1          0.0021   -0.0041    0.0020 O.2       1 <0>        -0.9576
     15 O2          1.1718    2.1948    0.0027 O.2       1 <0>        -0.9545
     16 N1         -0.8975    1.8855   -1.3122 N.pl3     1 <0>        -1.2444
     17 C13        -0.9777    3.7372    5.9921 C.ar      1 <0>        -0.0490
     18 C14        -0.3929    4.9486    6.3592 C.ar      1 <0>        -0.0743
     19 C15         0.9800    5.0825    6.3439 C.ar      1 <0>        -0.1388
     20 C16         1.7783    4.0158    5.9640 C.ar      1 <0>         0.1149
     21 C17         1.2019    2.8092    5.5976 C.ar      1 <0>        -0.0718
     22 C18        -0.1711    2.6642    5.6164 C.ar      1 <0>        -0.0638
     23 Cl1         2.2080    1.4768    5.1220 Cl        1 <0>        -0.0405
     24 F1          3.1224    4.1519    5.9501 F         1 <0>        -0.1227
     25 H1         -6.2886    3.1971    6.0586 H         1 <0>         0.1297
     26 H2         -5.1193    4.1218    8.0136 H         1 <0>         0.1300
     27 H3         -2.6758    4.3796    7.9907 H         1 <0>         0.1308
     28 H4         -5.0257    2.5211    4.0622 H         1 <0>         0.1298
     29 H5         -3.2774    0.7229    3.5537 H         1 <0>         0.1364
     30 H6         -2.0038    0.0571    1.5571 H         1 <0>         0.1443
     31 H7          0.0073    3.8193    1.5644 H         1 <0>         0.1427
     32 H8         -1.2652    4.5069    3.5543 H         1 <0>         0.1326
     33 H9         -1.2009    1.2230   -1.9525 H         1 <0>         0.4226
     34 H10        -1.1097    2.8224   -1.4463 H         1 <0>         0.4189
     35 H11        -1.0140    5.7810    6.6556 H         1 <0>         0.1432
     36 H12         1.4333    6.0207    6.6282 H         1 <0>         0.1499
     37 H13        -0.6196    1.7226    5.3359 H         1 <0>         0.1419
@<TRIPOS>BOND
     1    1    6 ar
     2    1    2 ar
     3    1   25 1
     4    2    3 ar
     5    2   26 1
     6    3    4 ar
     7    3   27 1
     8    4    5 ar
     9    4   17 1
    10    5    6 ar
    11    5    7 1
    12    6   28 1
    13    7   12 ar
    14    7    8 ar
    15    8    9 ar
    16    8   29 1
    17    9   10 ar
    18    9   30 1
    19   10   11 ar
    20   10   13 1
    21   11   12 ar
    22   11   31 1
    23   12   32 1
    24   13   14 2
    25   13   15 2
    26   13   16 1
    27   16   33 1
    28   16   34 1
    29   17   22 ar
    30   17   18 ar
    31   18   19 ar
    32   18   35 1
    33   19   20 ar
    34   19   36 1
    35   20   21 ar
    36   20   24 1
    37   21   22 ar
    38   21   23 1
    39   22   37 1
@<TRIPOS>MOLECULE
ZINC03814663
   41    43     0     0     0
SMALL
USER_CHARGES

@<TRIPOS>ATOM
      1 C1          3.6581    5.4262    6.3397 C.3       1 <0>         0.0246
      2 O1          3.1316    4.1558    5.9513 O.3       1 <0>        -0.3067
      3 C2          1.7794    4.0179    5.9651 C.ar      1 <0>         0.1030
      4 C3          0.9783    5.0854    6.3452 C.ar      1 <0>        -0.1809
      5 C4         -0.3941    4.9495    6.3596 C.ar      1 <0>        -0.0746
      6 C5         -0.9779    3.7376    5.9921 C.ar      1 <0>        -0.0621
      7 C6         -0.1714    2.6640    5.6159 C.ar      1 <0>        -0.0965
      8 C7          1.2017    2.8079    5.5979 C.ar      1 <0>         0.0741
      9 F1          1.9844    1.7704    5.2288 F         1 <0>        -0.1277
     10 C8         -2.4524    3.5890    6.0072 C.ar      1 <0>        -0.0250
     11 C9         -3.1832    3.9710    7.1294 C.ar      1 <0>        -0.1038
     12 C10        -4.5557    3.8263    7.1410 C.ar      1 <0>        -0.1078
     13 C11        -5.2143    3.3065    6.0395 C.ar      1 <0>        -0.1145
     14 C12        -4.5058    2.9269    4.9175 C.ar      1 <0>        -0.0975
     15 C13        -3.1208    3.0664    4.8887 C.ar      1 <0>        -0.0525
     16 C14        -2.3556    2.6597    3.6860 C.ar      1 <0>         0.0141
     17 C15        -2.5607    1.4032    3.1180 C.ar      1 <0>        -0.1314
     18 C16        -1.8458    1.0302    1.9981 C.ar      1 <0>        -0.0144
     19 C17        -0.9267    1.9002    1.4394 C.ar      1 <0>        -0.6787
     20 C18        -0.7149    3.1461    2.0020 C.ar      1 <0>        -0.0204
     21 C19        -1.4284    3.5324    3.1183 C.ar      1 <0>        -0.1198
     22 S1         -0.0172    1.4168    0.0098 S.o2      1 <0>         2.7003
     23 O2          0.0021   -0.0041    0.0020 O.2       1 <0>        -0.9579
     24 O3          1.1718    2.1948    0.0027 O.2       1 <0>        -0.9555
     25 N1         -0.8975    1.8855   -1.3122 N.pl3     1 <0>        -1.2445
     26 H1          3.2782    6.1973    5.6695 H         1 <0>         0.0595
     27 H2          3.3513    5.6496    7.3615 H         1 <0>         0.0590
     28 H3          4.7464    5.4007    6.2844 H         1 <0>         0.1057
     29 H4          1.4302    6.0241    6.6299 H         1 <0>         0.1424
     30 H5         -1.0163    5.7811    6.6557 H         1 <0>         0.1360
     31 H6         -0.6204    1.7229    5.3347 H         1 <0>         0.1407
     32 H7         -2.6756    4.3768    7.9920 H         1 <0>         0.1298
     33 H8         -5.1192    4.1200    8.0143 H         1 <0>         0.1288
     34 H9         -6.2886    3.1970    6.0587 H         1 <0>         0.1287
     35 H10        -5.0257    2.5215    4.0621 H         1 <0>         0.1288
     36 H11        -3.2774    0.7229    3.5537 H         1 <0>         0.1362
     37 H12        -2.0038    0.0571    1.5571 H         1 <0>         0.1441
     38 H13         0.0073    3.8193    1.5644 H         1 <0>         0.1422
     39 H14        -1.2652    4.5069    3.5543 H         1 <0>         0.1330
     40 H15        -1.2009    1.2230   -1.9525 H         1 <0>         0.4225
     41 H16        -1.1097    2.8224   -1.4463 H         1 <0>         0.4187
@<TRIPOS>BOND
     1    1    2 1
     2    1   26 1
     3    1   27 1
     4    1   28 1
     5    2    3 1
     6    3    8 ar
     7    3    4 ar
     8    4    5 ar
     9    4   29 1
    10    5    6 ar
    11    5   30 1
    12    6    7 ar
    13    6   10 1
    14    7    8 ar
    15    7   31 1
    16    8    9 1
    17   10   15 ar
    18   10   11 ar
    19   11   12 ar
    20   11   32 1
    21   12   13 ar
    22   12   33 1
    23   13   14 ar
    24   13   34 1
    25   14   15 ar
    26   14   35 1
    27   15   16 1
    28   16   21 ar
    29   16   17 ar
    30   17   18 ar
    31   17   36 1
    32   18   19 ar
    33   18   37 1
    34   19   20 ar
    35   19   22 1
    36   20   21 ar
    37   20   38 1
    38   21   39 1
    39   22   23 2
    40   22   24 2
    41   22   25 1
    42   25   40 1
    43   25   41 1
@<TRIPOS>MOLECULE
ZINC03814664
   41    43     0     0     0
SMALL
USER_CHARGES

@<TRIPOS>ATOM
      1 C1          2.2409    6.0774    6.7744 C.3       1 <0>        -0.1174
      2 C2          1.5576    4.7936    6.3794 C.ar      1 <0>        -0.1154
      3 C3          0.1882    4.6764    6.5012 C.ar      1 <0>        -0.0759
      4 C4         -0.4421    3.4864    6.1409 C.ar      1 <0>        -0.0662
      5 C5          0.3141    2.4235    5.6480 C.ar      1 <0>        -0.0698
      6 C6          1.6819    2.5519    5.5244 C.ar      1 <0>        -0.1453
      7 C7          2.3047    3.7349    5.8892 C.ar      1 <0>         0.1094
      8 F1          3.6447    3.8559    5.7668 F         1 <0>        -0.1328
      9 C8         -1.9122    3.3533    6.2757 C.ar      1 <0>        -0.0058
     10 C9         -2.5381    3.6911    7.4727 C.ar      1 <0>        -0.1119
     11 C10        -3.9087    3.5654    7.5950 C.ar      1 <0>         0.0816
     12 C11        -4.6681    3.1028    6.5278 C.ar      1 <0>         0.0745
     13 C12        -4.0605    2.7691    5.3326 C.ar      1 <0>        -0.1055
     14 C13        -2.6797    2.8858    5.1972 C.ar      1 <0>        -0.0308
     15 C14        -2.0237    2.5239    3.9182 C.ar      1 <0>         0.0054
     16 C15        -2.2967    1.2974    3.3143 C.ar      1 <0>        -0.1258
     17 C16        -1.6827    0.9657    2.1238 C.ar      1 <0>        -0.0203
     18 C17        -0.7978    1.8475    1.5296 C.ar      1 <0>        -0.6545
     19 C18        -0.5190    3.0637    2.1269 C.ar      1 <0>        -0.0205
     20 C19        -1.1310    3.4085    3.3147 C.ar      1 <0>        -0.1130
     21 S1         -0.0172    1.4168    0.0098 S.o2      1 <0>         2.4970
     22 O1          0.0021   -0.0041    0.0020 O.2       1 <0>        -0.9353
     23 O2          1.1953    2.1578    0.0022 O.2       1 <0>        -0.9347
     24 C20        -1.1345    2.0336   -1.2793 C.3       1 <0>        -0.6503
     25 F2         -6.0076    2.9839    6.6574 F         1 <0>        -0.1222
     26 F3         -4.5131    3.8944    8.7576 F         1 <0>        -0.1216
     27 H1          2.2857    6.7448    5.9138 H         1 <0>         0.0773
     28 H2          1.6793    6.5561    7.5766 H         1 <0>         0.0745
     29 H3          3.2521    5.8598    7.1184 H         1 <0>         0.0727
     30 H4         -0.3939    5.5038    6.8792 H         1 <0>         0.1371
     31 H5         -0.1705    1.5013    5.3632 H         1 <0>         0.1333
     32 H6          2.2684    1.7291    5.1431 H         1 <0>         0.1408
     33 H7         -1.9525    4.0516    8.3054 H         1 <0>         0.1544
     34 H8         -4.6561    2.4139    4.5047 H         1 <0>         0.1538
     35 H9         -2.9871    0.6080    3.7774 H         1 <0>         0.1378
     36 H10        -1.8937    0.0160    1.6548 H         1 <0>         0.1468
     37 H11         0.1761    3.7463    1.6607 H         1 <0>         0.1452
     38 H12        -0.9155    4.3599    3.7782 H         1 <0>         0.1351
     39 H13        -2.1080    1.5544   -1.1761 H         1 <0>         0.1320
     40 H14        -1.2479    3.1127   -1.1759 H         1 <0>         0.1319
     41 H15        -0.7188    1.8043   -2.2605 H         1 <0>         0.1342
@<TRIPOS>BOND
     1    1    2 1
     2    1   27 1
     3    1   28 1
     4    1   29 1
     5    2    7 ar
     6    2    3 ar
     7    3    4 ar
     8    3   30 1
     9    4    5 ar
    10    4    9 1
    11    5    6 ar
    12    5   31 1
    13    6    7 ar
    14    6   32 1
    15    7    8 1
    16    9   14 ar
    17    9   10 ar
    18   10   11 ar
    19   10   33 1
    20   11   12 ar
    21   11   26 1
    22   12   13 ar
    23   12   25 1
    24   13   14 ar
    25   13   34 1
    26   14   15 1
    27   15   20 ar
    28   15   16 ar
    29   16   17 ar
    30   16   35 1
    31   17   18 ar
    32   17   36 1
    33   18   19 ar
    34   18   21 1
    35   19   20 ar
    36   19   37 1
    37   20   38 1
    38   21   22 2
    39   21   23 2
    40   21   24 1
    41   24   39 1
    42   24   40 1
    43   24   41 1
@<TRIPOS>MOLECULE
ZINC03814665
   45    47     0     0     0
SMALL
USER_CHARGES

@<TRIPOS>ATOM
      1 C1          2.2353    6.0826    6.7726 C.3       1 <0>        -0.1071
      2 C2          1.5535    4.7975    6.3793 C.ar      1 <0>        -0.1148
      3 C3          0.1850    4.6784    6.5014 C.ar      1 <0>        -0.0645
      4 C4         -0.4445    3.4877    6.1410 C.ar      1 <0>        -0.0972
      5 C5          0.3114    2.4240    5.6487 C.ar      1 <0>        -0.0553
      6 C6          1.6787    2.5512    5.5249 C.ar      1 <0>        -0.2018
      7 C7          2.3031    3.7367    5.8894 C.ar      1 <0>         0.1409
      8 O1          3.6507    3.8590    5.7657 O.3       1 <0>        -0.3110
      9 C8          4.3604    2.7289    5.2545 C.3       1 <0>         0.0236
     10 C9         -1.9145    3.3547    6.2749 C.ar      1 <0>         0.0040
     11 C10        -2.5413    3.6928    7.4714 C.ar      1 <0>        -0.1156
     12 C11        -3.9120    3.5671    7.5928 C.ar      1 <0>         0.0821
     13 C12        -4.6707    3.1042    6.5254 C.ar      1 <0>         0.0699
     14 C13        -4.0624    2.7701    5.3306 C.ar      1 <0>        -0.1050
     15 C14        -2.6814    2.8868    5.1960 C.ar      1 <0>        -0.0362
     16 C15        -2.0248    2.5245    3.9175 C.ar      1 <0>         0.0091
     17 C16        -2.2974    1.2977    3.3138 C.ar      1 <0>        -0.1271
     18 C17        -1.6827    0.9657    2.1238 C.ar      1 <0>        -0.0212
     19 C18        -0.7978    1.8475    1.5296 C.ar      1 <0>        -0.6559
     20 C19        -0.5191    3.0637    2.1269 C.ar      1 <0>        -0.0212
     21 C20        -1.1317    3.4089    3.3143 C.ar      1 <0>        -0.1104
     22 S1         -0.0172    1.4168    0.0098 S.o2      1 <0>         2.4972
     23 O2          0.0021   -0.0041    0.0020 O.2       1 <0>        -0.9362
     24 O3          1.1953    2.1578    0.0022 O.2       1 <0>        -0.9360
     25 C21        -1.1345    2.0336   -1.2793 C.3       1 <0>        -0.6503
     26 F1         -6.0102    2.9849    6.6543 F         1 <0>        -0.1236
     27 F2         -4.5170    3.8965    8.7550 F         1 <0>        -0.1226
     28 H1          2.2792    6.7490    5.9111 H         1 <0>         0.0702
     29 H2          1.6730    6.5616    7.5742 H         1 <0>         0.0664
     30 H3          3.2467    5.8667    7.1169 H         1 <0>         0.0720
     31 H4         -0.3981    5.5053    6.8791 H         1 <0>         0.1333
     32 H5         -0.1737    1.5019    5.3644 H         1 <0>         0.1251
     33 H6          2.2647    1.7279    5.1438 H         1 <0>         0.1327
     34 H7          3.9949    2.4920    4.2553 H         1 <0>         0.0594
     35 H8          5.4247    2.9595    5.2069 H         1 <0>         0.1032
     36 H9          4.2030    1.8734    5.9113 H         1 <0>         0.0569
     37 H10        -1.9562    4.0536    8.3044 H         1 <0>         0.1535
     38 H11        -4.6575    2.4146    4.5025 H         1 <0>         0.1524
     39 H12        -2.9881    0.6085    3.7768 H         1 <0>         0.1371
     40 H13        -1.8931    0.0157    1.6552 H         1 <0>         0.1459
     41 H14         0.1760    3.7463    1.6607 H         1 <0>         0.1442
     42 H15        -0.9167    4.3606    3.7774 H         1 <0>         0.1356
     43 H16        -2.1080    1.5544   -1.1761 H         1 <0>         0.1321
     44 H17        -1.2479    3.1127   -1.1759 H         1 <0>         0.1321
     45 H18        -0.7188    1.8043   -2.2605 H         1 <0>         0.1339
@<TRIPOS>BOND
     1    1    2 1
     2    1   28 1
     3    1   29 1
     4    1   30 1
     5    2    7 ar
     6    2    3 ar
     7    3    4 ar
     8    3   31 1
     9    4    5 ar
    10    4   10 1
    11    5    6 ar
    12    5   32 1
    13    6    7 ar
    14    6   33 1
    15    7    8 1
    16    8    9 1
    17    9   34 1
    18    9   35 1
    19    9   36 1
    20   10   15 ar
    21   10   11 ar
    22   11   12 ar
    23   11   37 1
    24   12   13 ar
    25   12   27 1
    26   13   14 ar
    27   13   26 1
    28   14   15 ar
    29   14   38 1
    30   15   16 1
    31   16   21 ar
    32   16   17 ar
    33   17   18 ar
    34   17   39 1
    35   18   19 ar
    36   18   40 1
    37   19   20 ar
    38   19   22 1
    39   20   21 ar
    40   20   41 1
    41   21   42 1
    42   22   23 2
    43   22   24 2
    44   22   25 1
    45   25   43 1
    46   25   44 1
    47   25   45 1
@<TRIPOS>MOLECULE
ZINC03814666
   46    48     0     0     0
SMALL
USER_CHARGES

@<TRIPOS>ATOM
      1 C1          4.3619    2.7181    5.2514 C.3       1 <0>         0.0229
      2 O1          3.6554    3.8498    5.7634 O.3       1 <0>        -0.3031
      3 C2          2.3067    3.7309    5.8879 C.ar      1 <0>         0.1151
      4 C3          1.6794    2.5489    5.5241 C.ar      1 <0>        -0.1710
      5 C4          0.3109    2.4241    5.6488 C.ar      1 <0>        -0.0850
      6 C5         -0.4445    3.4877    6.1410 C.ar      1 <0>        -0.0608
      7 C6          0.1846    4.6786    6.5016 C.ar      1 <0>        -0.1562
      8 C7          1.5574    4.7966    6.3801 C.ar      1 <0>         0.1015
      9 O2          2.1746    5.9551    6.7358 O.3       1 <0>        -0.3033
     10 C8          1.3441    7.0065    7.2328 C.3       1 <0>         0.0243
     11 C9         -1.9145    3.3547    6.2749 C.ar      1 <0>         0.0006
     12 C10        -2.5413    3.6928    7.4714 C.ar      1 <0>        -0.1147
     13 C11        -3.9120    3.5671    7.5928 C.ar      1 <0>         0.0817
     14 C12        -4.6707    3.1042    6.5254 C.ar      1 <0>         0.0719
     15 C13        -4.0624    2.7701    5.3306 C.ar      1 <0>        -0.1051
     16 C14        -2.6814    2.8868    5.1960 C.ar      1 <0>        -0.0329
     17 C15        -2.0248    2.5245    3.9175 C.ar      1 <0>         0.0080
     18 C16        -2.2974    1.2977    3.3138 C.ar      1 <0>        -0.1262
     19 C17        -1.6827    0.9657    2.1238 C.ar      1 <0>        -0.0209
     20 C18        -0.7978    1.8475    1.5296 C.ar      1 <0>        -0.6552
     21 C19        -0.5191    3.0637    2.1269 C.ar      1 <0>        -0.0209
     22 C20        -1.1317    3.4089    3.3143 C.ar      1 <0>        -0.1102
     23 S1         -0.0172    1.4168    0.0098 S.o2      1 <0>         2.4970
     24 O3          0.0021   -0.0041    0.0020 O.2       1 <0>        -0.9359
     25 O4          1.1953    2.1578    0.0022 O.2       1 <0>        -0.9354
     26 C21        -1.1345    2.0336   -1.2793 C.3       1 <0>        -0.6505
     27 F1         -6.0103    2.9854    6.6542 F         1 <0>        -0.1229
     28 F2         -4.5170    3.8965    8.7550 F         1 <0>        -0.1223
     29 H1          5.4267    2.9459    5.2033 H         1 <0>         0.1037
     30 H2          4.2026    1.8628    5.9080 H         1 <0>         0.0567
     31 H3          3.9952    2.4824    4.2523 H         1 <0>         0.0591
     32 H4          2.2632    1.7245    5.1420 H         1 <0>         0.1405
     33 H5         -0.1753    1.5025    5.3648 H         1 <0>         0.1286
     34 H6         -0.3983    5.5059    6.8786 H         1 <0>         0.1395
     35 H7          1.9607    7.8710    7.4788 H         1 <0>         0.1031
     36 H8          0.6154    7.2847    6.4715 H         1 <0>         0.0556
     37 H9          0.8229    6.6657    8.1274 H         1 <0>         0.0556
     38 H10        -1.9562    4.0536    8.3044 H         1 <0>         0.1529
     39 H11        -4.6576    2.4149    4.5024 H         1 <0>         0.1533
     40 H12        -2.9881    0.6085    3.7768 H         1 <0>         0.1373
     41 H13        -1.8931    0.0157    1.6552 H         1 <0>         0.1462
     42 H14         0.1760    3.7463    1.6607 H         1 <0>         0.1446
     43 H15        -0.9167    4.3606    3.7774 H         1 <0>         0.1347
     44 H16        -2.1080    1.5544   -1.1761 H         1 <0>         0.1321
     45 H17        -1.2479    3.1127   -1.1759 H         1 <0>         0.1320
     46 H18        -0.7188    1.8043   -2.2605 H         1 <0>         0.1340
@<TRIPOS>BOND
     1    1    2 1
     2    1   29 1
     3    1   30 1
     4    1   31 1
     5    2    3 1
     6    3    8 ar
     7    3    4 ar
     8    4    5 ar
     9    4   32 1
    10    5    6 ar
    11    5   33 1
    12    6    7 ar
    13    6   11 1
    14    7    8 ar
    15    7   34 1
    16    8    9 1
    17    9   10 1
    18   10   35 1
    19   10   36 1
    20   10   37 1
    21   11   16 ar
    22   11   12 ar
    23   12   13 ar
    24   12   38 1
    25   13   14 ar
    26   13   28 1
    27   14   15 ar
    28   14   27 1
    29   15   16 ar
    30   15   39 1
    31   16   17 1
    32   17   22 ar
    33   17   18 ar
    34   18   19 ar
    35   18   40 1
    36   19   20 ar
    37   19   41 1
    38   20   21 ar
    39   20   23 1
    40   21   22 ar
    41   21   42 1
    42   22   43 1
    43   23   24 2
    44   23   25 2
    45   23   26 1
    46   26   44 1
    47   26   45 1
    48   26   46 1
@<TRIPOS>MOLECULE
ZINC03814667
   44    47     0     0     0
SMALL
USER_CHARGES

@<TRIPOS>ATOM
      1 C1         -4.4931    3.2321    6.5470 C.3       1 <0>        -0.6507
      2 S1         -3.7894    3.8774    5.0046 S.o2      1 <0>         2.4972
      3 O1         -2.3770    3.9850    5.1184 O.2       1 <0>        -0.9353
      4 O2         -4.5636    4.9720    4.5337 O.2       1 <0>        -0.9356
      5 C2         -4.0490    2.6000    3.8191 C.ar      1 <0>        -0.6546
      6 C3         -5.2127    2.5800    3.0715 C.ar      1 <0>        -0.0207
      7 C4         -5.4218    1.5818    2.1419 C.ar      1 <0>        -0.1258
      8 C5         -4.4571    0.5925    1.9566 C.ar      1 <0>         0.0073
      9 C6         -3.2886    0.6148    2.7167 C.ar      1 <0>        -0.1112
     10 C7         -3.0884    1.6208    3.6399 C.ar      1 <0>        -0.0205
     11 C8         -4.6757   -0.4824    0.9596 C.ar      1 <0>        -0.0313
     12 C9         -5.8722   -1.1945    0.9498 C.ar      1 <0>        -0.1055
     13 C10        -6.0703   -2.1996    0.0227 C.ar      1 <0>         0.0732
     14 C11        -5.0824   -2.5014   -0.9059 C.ar      1 <0>         0.0815
     15 C12        -3.8922   -1.7995   -0.9107 C.ar      1 <0>        -0.1121
     16 C13        -3.6791   -0.7841    0.0179 C.ar      1 <0>        -0.0006
     17 C14        -2.4036   -0.0293    0.0162 C.ar      1 <0>        -0.0577
     18 C15        -2.4164    1.3649    0.0261 C.ar      1 <0>        -0.0861
     19 C16        -1.2283    2.0652    0.0191 C.ar      1 <0>        -0.1097
     20 C17        -0.0168    1.3869    0.0097 C.ar      1 <0>         0.0648
     21 C18         0.0021   -0.0041    0.0020 C.ar      1 <0>         0.0519
     22 C19        -1.1882   -0.7115    0.0043 C.ar      1 <0>        -0.0957
     23 O3          1.1811   -0.6847   -0.0068 O.3       1 <0>        -0.3056
     24 C20         2.3473    0.0535   -0.3871 C.3       1 <0>         0.0201
     25 C21         2.3347    1.3914    0.3649 C.3       1 <0>         0.0191
     26 O4          1.1438    2.0983    0.0024 O.3       1 <0>        -0.3038
     27 F1         -5.2860   -3.4860   -1.8083 F         1 <0>        -0.1221
     28 F2         -7.2302   -2.8924    0.0196 F         1 <0>        -0.1228
     29 H1         -3.9773    2.3130    6.8251 H         1 <0>         0.1318
     30 H2         -4.3714    3.9710    7.3390 H         1 <0>         0.1338
     31 H3         -5.5535    3.0245    6.4036 H         1 <0>         0.1321
     32 H4         -5.9593    3.3469    3.2159 H         1 <0>         0.1464
     33 H5         -6.3311    1.5668    1.5593 H         1 <0>         0.1377
     34 H6         -2.5398   -0.1515    2.5805 H         1 <0>         0.1349
     35 H7         -2.1820    1.6413    4.2267 H         1 <0>         0.1441
     36 H8         -6.6438   -0.9637    1.6694 H         1 <0>         0.1536
     37 H9         -3.1271   -2.0387   -1.6344 H         1 <0>         0.1543
     38 H10        -3.3566    1.8963    0.0365 H         1 <0>         0.1336
     39 H11        -1.2403    3.1451    0.0270 H         1 <0>         0.1401
     40 H12        -1.1749   -1.7914   -0.0035 H         1 <0>         0.1391
     41 H13         3.2419   -0.5095   -0.1209 H         1 <0>         0.1251
     42 H14         2.3334    0.2350   -1.4618 H         1 <0>         0.0796
     43 H15         2.3412    1.2091    1.4395 H         1 <0>         0.0809
     44 H16         3.2099    1.9782    0.0857 H         1 <0>         0.1253
@<TRIPOS>BOND
     1    1    2 1
     2    1   29 1
     3    1   30 1
     4    1   31 1
     5    2    3 2
     6    2    4 2
     7    2    5 1
     8    5   10 ar
     9    5    6 ar
    10    6    7 ar
    11    6   32 1
    12    7    8 ar
    13    7   33 1
    14    8    9 ar
    15    8   11 1
    16    9   10 ar
    17    9   34 1
    18   10   35 1
    19   11   16 ar
    20   11   12 ar
    21   12   13 ar
    22   12   36 1
    23   13   14 ar
    24   13   28 1
    25   14   15 ar
    26   14   27 1
    27   15   16 ar
    28   15   37 1
    29   16   17 1
    30   17   22 ar
    31   17   18 ar
    32   18   19 ar
    33   18   38 1
    34   19   20 ar
    35   19   39 1
    36   20   26 1
    37   20   21 ar
    38   21   22 ar
    39   21   23 1
    40   22   40 1
    41   23   24 1
    42   24   25 1
    43   24   41 1
    44   24   42 1
    45   25   26 1
    46   25   43 1
    47   25   44 1
@<TRIPOS>MOLECULE
ZINC03814668
   41    44     0     0     0
SMALL
USER_CHARGES

@<TRIPOS>ATOM
      1 C1         -1.1345    2.0336   -1.2793 C.3       1 <0>        -0.6505
      2 S1         -0.0172    1.4168    0.0098 S.o2      1 <0>         2.4970
      3 O1          0.0021   -0.0041    0.0020 O.2       1 <0>        -0.9354
      4 O2          1.1953    2.1578    0.0022 O.2       1 <0>        -0.9347
      5 C2         -0.7978    1.8475    1.5296 C.ar      1 <0>        -0.6542
      6 C3         -0.5190    3.0637    2.1269 C.ar      1 <0>        -0.0201
      7 C4         -1.1310    3.4085    3.3147 C.ar      1 <0>        -0.1124
      8 C5         -2.0237    2.5239    3.9182 C.ar      1 <0>         0.0050
      9 C6         -2.2967    1.2973    3.3143 C.ar      1 <0>        -0.1253
     10 C7         -1.6827    0.9657    2.1238 C.ar      1 <0>        -0.0204
     11 C8         -2.6804    2.8862    5.1967 C.ar      1 <0>        -0.0289
     12 C9         -4.0607    2.7645    5.3331 C.ar      1 <0>        -0.1054
     13 C10        -4.6695    3.1027    6.5264 C.ar      1 <0>         0.0754
     14 C11        -3.9107    3.5647    7.5942 C.ar      1 <0>         0.0816
     15 C12        -2.5400    3.6904    7.4727 C.ar      1 <0>        -0.1109
     16 C13        -1.9128    3.3482    6.2776 C.ar      1 <0>        -0.0034
     17 C14        -0.4422    3.4762    6.1454 C.ar      1 <0>        -0.0511
     18 C15         0.3101    2.4115    5.6508 C.ar      1 <0>        -0.0805
     19 C16         1.6789    2.5320    5.5277 C.ar      1 <0>        -0.0969
     20 C17         2.3113    3.7104    5.8953 C.ar      1 <0>         0.0467
     21 C18         1.5643    4.7779    6.3909 C.ar      1 <0>         0.0344
     22 C19         0.1911    4.6636    6.5100 C.ar      1 <0>        -0.0844
     23 O3          2.4128    5.8090    6.6754 O.3       1 <0>        -0.3062
     24 C20         3.7257    5.2208    6.7351 C.3       1 <0>         0.2125
     25 O4          3.6269    4.0743    5.8699 O.3       1 <0>        -0.3046
     26 F1         -4.5156    3.8924    8.7569 F         1 <0>        -0.1215
     27 F2         -6.0090    2.9830    6.6555 F         1 <0>        -0.1221
     28 H1         -2.1080    1.5544   -1.1761 H         1 <0>         0.1321
     29 H2         -1.2479    3.1127   -1.1759 H         1 <0>         0.1319
     30 H3         -0.7188    1.8043   -2.2605 H         1 <0>         0.1340
     31 H4          0.1761    3.7463    1.6607 H         1 <0>         0.1450
     32 H5         -0.9157    4.3600    3.7781 H         1 <0>         0.1350
     33 H6         -2.9871    0.6080    3.7774 H         1 <0>         0.1381
     34 H7         -1.8931    0.0157    1.6552 H         1 <0>         0.1467
     35 H8         -4.6555    2.4061    4.5059 H         1 <0>         0.1543
     36 H9         -1.9548    4.0505    8.3060 H         1 <0>         0.1548
     37 H10        -0.1790    1.4924    5.3636 H         1 <0>         0.1396
     38 H11         2.2597    1.7064    5.1437 H         1 <0>         0.1415
     39 H12        -0.3895    5.4915    6.8893 H         1 <0>         0.1403
     40 H13         3.9612    4.9127    7.7538 H         1 <0>         0.0876
     41 H14         4.4753    5.9187    6.3620 H         1 <0>         0.1353
@<TRIPOS>BOND
     1    1    2 1
     2    1   28 1
     3    1   29 1
     4    1   30 1
     5    2    3 2
     6    2    4 2
     7    2    5 1
     8    5   10 ar
     9    5    6 ar
    10    6    7 ar
    11    6   31 1
    12    7    8 ar
    13    7   32 1
    14    8    9 ar
    15    8   11 1
    16    9   10 ar
    17    9   33 1
    18   10   34 1
    19   11   16 ar
    20   11   12 ar
    21   12   13 ar
    22   12   35 1
    23   13   14 ar
    24   13   27 1
    25   14   15 ar
    26   14   26 1
    27   15   16 ar
    28   15   36 1
    29   16   17 1
    30   17   22 ar
    31   17   18 ar
    32   18   19 ar
    33   18   37 1
    34   19   20 ar
    35   19   38 1
    36   20   25 1
    37   20   21 ar
    38   21   22 ar
    39   21   23 1
    40   22   39 1
    41   23   24 1
    42   24   25 1
    43   24   40 1
    44   24   41 1
@<TRIPOS>MOLECULE
ZINC03814669
   41    43     0     0     0
SMALL
USER_CHARGES

@<TRIPOS>ATOM
      1 C1          3.7971    3.8736    5.7527 C.3       1 <0>        -0.1208
      2 C2          2.3024    3.7378    5.8892 C.ar      1 <0>        -0.0708
      3 C3          1.5564    4.7950    6.3783 C.ar      1 <0>        -0.1198
      4 C4          0.1874    4.6763    6.5059 C.ar      1 <0>        -0.0974
      5 C5         -0.4435    3.4881    6.1404 C.ar      1 <0>        -0.0682
      6 C6          0.3142    2.4241    5.6531 C.ar      1 <0>        -0.0868
      7 C7          1.6820    2.5562    5.5253 C.ar      1 <0>        -0.1177
      8 C8         -1.9136    3.3543    6.2750 C.ar      1 <0>        -0.0029
      9 C9         -2.5398    3.6917    7.4719 C.ar      1 <0>        -0.1140
     10 C10        -3.9103    3.5654    7.5941 C.ar      1 <0>         0.0813
     11 C11        -4.6694    3.1024    6.5270 C.ar      1 <0>         0.0715
     12 C12        -4.0615    2.7694    5.3316 C.ar      1 <0>        -0.1058
     13 C13        -2.6807    2.8864    5.1965 C.ar      1 <0>        -0.0337
     14 C14        -2.0244    2.5243    3.9177 C.ar      1 <0>         0.0080
     15 C15        -2.2971    1.2976    3.3141 C.ar      1 <0>        -0.1267
     16 C16        -1.6827    0.9657    2.1238 C.ar      1 <0>        -0.0211
     17 C17        -0.7978    1.8475    1.5296 C.ar      1 <0>        -0.6552
     18 C18        -0.5191    3.0637    2.1269 C.ar      1 <0>        -0.0205
     19 C19        -1.1317    3.4089    3.3143 C.ar      1 <0>        -0.1104
     20 S1         -0.0172    1.4168    0.0098 S.o2      1 <0>         2.4977
     21 O1          0.0021   -0.0041    0.0020 O.2       1 <0>        -0.9359
     22 O2          1.1953    2.1578    0.0022 O.2       1 <0>        -0.9353
     23 C20        -1.1345    2.0336   -1.2793 C.3       1 <0>        -0.6505
     24 F1         -6.0089    2.9829    6.6564 F         1 <0>        -0.1231
     25 F2         -4.5149    3.8941    8.7567 F         1 <0>        -0.1224
     26 H1          4.2772    3.5487    6.6758 H         1 <0>         0.0735
     27 H2          4.1441    3.2547    4.9253 H         1 <0>         0.0699
     28 H3          4.0510    4.9157    5.5584 H         1 <0>         0.0689
     29 H4          2.0462    5.7150    6.6611 H         1 <0>         0.1267
     30 H5         -0.3940    5.5021    6.8885 H         1 <0>         0.1261
     31 H6         -0.1687    1.4997    5.3726 H         1 <0>         0.1225
     32 H7          2.2695    1.7341    5.1441 H         1 <0>         0.1261
     33 H8         -1.9543    4.0519    8.3049 H         1 <0>         0.1534
     34 H9         -4.6570    2.4142    4.5035 H         1 <0>         0.1529
     35 H10        -2.9875    0.6082    3.7772 H         1 <0>         0.1369
     36 H11        -1.8929    0.0155    1.6554 H         1 <0>         0.1461
     37 H12         0.1760    3.7463    1.6607 H         1 <0>         0.1447
     38 H13        -0.9167    4.3605    3.7774 H         1 <0>         0.1349
     39 H14        -2.1080    1.5544   -1.1761 H         1 <0>         0.1319
     40 H15        -1.2479    3.1127   -1.1759 H         1 <0>         0.1319
     41 H16        -0.7188    1.8043   -2.2605 H         1 <0>         0.1339
@<TRIPOS>BOND
     1    1    2 1
     2    1   26 1
     3    1   27 1
     4    1   28 1
     5    2    7 ar
     6    2    3 ar
     7    3    4 ar
     8    3   29 1
     9    4    5 ar
    10    4   30 1
    11    5    6 ar
    12    5    8 1
    13    6    7 ar
    14    6   31 1
    15    7   32 1
    16    8   13 ar
    17    8    9 ar
    18    9   10 ar
    19    9   33 1
    20   10   11 ar
    21   10   25 1
    22   11   12 ar
    23   11   24 1
    24   12   13 ar
    25   12   34 1
    26   13   14 1
    27   14   19 ar
    28   14   15 ar
    29   15   16 ar
    30   15   35 1
    31   16   17 ar
    32   16   36 1
    33   17   18 ar
    34   17   20 1
    35   18   19 ar
    36   18   37 1
    37   19   38 1
    38   20   21 2
    39   20   22 2
    40   20   23 1
    41   23   39 1
    42   23   40 1
    43   23   41 1
@<TRIPOS>MOLECULE
ZINC03814670
   46    48     0     0     0
SMALL
USER_CHARGES

@<TRIPOS>ATOM
      1 C1          3.1752    2.1067   -1.2042 C.3       1 <0>         0.0269
      2 N1          2.3917    1.7601   -0.0109 N.pl3     1 <0>        -0.5075
      3 C2          3.1569    2.0216    1.2155 C.3       1 <0>         0.0282
      4 C3          1.1738    2.4432    0.0040 C.ar      1 <0>         0.1077
      5 C4          1.1578    3.8331    0.0107 C.ar      1 <0>        -0.1356
      6 C5         -0.0430    4.5099    0.0253 C.ar      1 <0>        -0.0895
      7 C6         -1.2432    3.7993    0.0334 C.ar      1 <0>        -0.0491
      8 C7         -1.2255    2.4048    0.0209 C.ar      1 <0>        -0.0818
      9 C8         -0.0215    1.7317    0.0116 C.ar      1 <0>        -0.0107
     10 Cl1         0.0021   -0.0041    0.0020 Cl        1 <0>        -0.0413
     11 C9         -2.5352    4.5250    0.0491 C.ar      1 <0>        -0.0083
     12 C10        -2.7572    5.5380    0.9784 C.ar      1 <0>        -0.1102
     13 C11        -3.9631    6.2125    0.9901 C.ar      1 <0>         0.0810
     14 C12        -4.9580    5.8855    0.0777 C.ar      1 <0>         0.0759
     15 C13        -4.7510    4.8828   -0.8502 C.ar      1 <0>        -0.1057
     16 C14        -3.5389    4.1982   -0.8766 C.ar      1 <0>        -0.0284
     17 C15        -3.3109    3.1261   -1.8745 C.ar      1 <0>         0.0035
     18 C16        -2.1539    3.1286   -2.6523 C.ar      1 <0>        -0.1133
     19 C17        -1.9446    2.1249   -3.5760 C.ar      1 <0>        -0.0188
     20 C18        -2.8850    1.1236   -3.7384 C.ar      1 <0>        -0.6523
     21 C19        -4.0377    1.1190   -2.9735 C.ar      1 <0>        -0.0191
     22 C20        -4.2554    2.1145   -2.0430 C.ar      1 <0>        -0.1251
     23 S1         -2.6140   -0.1509   -4.9246 S.o2      1 <0>         2.4950
     24 O1         -1.2014   -0.2264   -5.0593 O.2       1 <0>        -0.9327
     25 O2         -3.3559   -1.2615   -4.4395 O.2       1 <0>        -0.9343
     26 C21        -3.3553    0.4740   -6.4578 C.3       1 <0>        -0.6512
     27 F1         -6.1334    6.5513    0.0972 F         1 <0>        -0.1218
     28 F2         -4.1753    7.1948    1.8930 F         1 <0>        -0.1215
     29 H1          3.3753    3.1781   -1.2089 H         1 <0>         0.0324
     30 H2          4.1186    1.5608   -1.1906 H         1 <0>         0.0782
     31 H3          2.6129    1.8381   -2.0986 H         1 <0>         0.0737
     32 H4          2.5814    1.6913    2.0803 H         1 <0>         0.0717
     33 H5          4.1007    1.4776    1.1778 H         1 <0>         0.0781
     34 H6          3.3565    3.0900    1.2984 H         1 <0>         0.0323
     35 H7          2.0871    4.3834    0.0048 H         1 <0>         0.1335
     36 H8         -0.0545    5.5898    0.0301 H         1 <0>         0.1335
     37 H9         -2.1536    1.8524    0.0226 H         1 <0>         0.1373
     38 H10        -1.9868    5.7967    1.6897 H         1 <0>         0.1543
     39 H11        -5.5280    4.6327   -1.5574 H         1 <0>         0.1544
     40 H12        -1.4209    3.9122   -2.5293 H         1 <0>         0.1339
     41 H13        -1.0465    2.1233   -4.1760 H         1 <0>         0.1445
     42 H14        -4.7688    0.3351   -3.1051 H         1 <0>         0.1468
     43 H15        -5.1558    2.1102   -1.4466 H         1 <0>         0.1378
     44 H16        -2.8648    1.4039   -6.7458 H         1 <0>         0.1318
     45 H17        -3.2285   -0.2641   -7.2498 H         1 <0>         0.1340
     46 H18        -4.4179    0.6578   -6.2991 H         1 <0>         0.1320
@<TRIPOS>BOND
     1    1    2 1
     2    1   29 1
     3    1   30 1
     4    1   31 1
     5    2    3 1
     6    2    4 1
     7    3   32 1
     8    3   33 1
     9    3   34 1
    10    4    9 ar
    11    4    5 ar
    12    5    6 ar
    13    5   35 1
    14    6    7 ar
    15    6   36 1
    16    7    8 ar
    17    7   11 1
    18    8    9 ar
    19    8   37 1
    20    9   10 1
    21   11   16 ar
    22   11   12 ar
    23   12   13 ar
    24   12   38 1
    25   13   14 ar
    26   13   28 1
    27   14   15 ar
    28   14   27 1
    29   15   16 ar
    30   15   39 1
    31   16   17 1
    32   17   22 ar
    33   17   18 ar
    34   18   19 ar
    35   18   40 1
    36   19   20 ar
    37   19   41 1
    38   20   21 ar
    39   20   23 1
    40   21   22 ar
    41   21   42 1
    42   22   43 1
    43   23   24 2
    44   23   25 2
    45   23   26 1
    46   26   44 1
    47   26   45 1
    48   26   46 1
@<TRIPOS>MOLECULE
ZINC03814671
   40    42     0     0     0
SMALL
USER_CHARGES

@<TRIPOS>ATOM
      1 C1          3.7591    3.7303    5.7042 C.3       1 <0>        -0.1103
      2 C2          2.2625    3.6547    5.8638 C.ar      1 <0>         0.1396
      3 C3          1.5747    4.7477    6.3594 C.ar      1 <0>        -0.1704
      4 C4          0.1997    4.6759    6.4994 C.ar      1 <0>        -0.0549
      5 C5         -0.4420    3.4863    6.1409 C.ar      1 <0>        -0.1211
      6 C6          0.3227    2.4299    5.6493 C.ar      1 <0>         0.1358
      7 N1          1.6293    2.5472    5.5291 N.ar      1 <0>        -0.4771
      8 C7         -1.9122    3.3533    6.2757 C.ar      1 <0>        -0.0029
      9 C8         -2.5381    3.6910    7.4726 C.ar      1 <0>        -0.1118
     10 C9         -3.9087    3.5654    7.5950 C.ar      1 <0>         0.0820
     11 C10        -4.6682    3.1032    6.5277 C.ar      1 <0>         0.0752
     12 C11        -4.0605    2.7691    5.3326 C.ar      1 <0>        -0.1045
     13 C12        -2.6797    2.8858    5.1973 C.ar      1 <0>        -0.0301
     14 C13        -2.0237    2.5239    3.9182 C.ar      1 <0>         0.0030
     15 C14        -2.2967    1.2974    3.3143 C.ar      1 <0>        -0.1248
     16 C15        -1.6827    0.9657    2.1238 C.ar      1 <0>        -0.0186
     17 C16        -0.7978    1.8475    1.5296 C.ar      1 <0>        -0.6526
     18 C17        -0.5190    3.0637    2.1269 C.ar      1 <0>        -0.0182
     19 C18        -1.1310    3.4085    3.3147 C.ar      1 <0>        -0.1164
     20 S1         -0.0172    1.4168    0.0098 S.o2      1 <0>         2.4976
     21 O1          0.0021   -0.0041    0.0020 O.2       1 <0>        -0.9343
     22 O2          1.1953    2.1578    0.0022 O.2       1 <0>        -0.9343
     23 C19        -1.1345    2.0336   -1.2793 C.3       1 <0>        -0.6506
     24 F1         -6.0077    2.9848    6.6571 F         1 <0>        -0.1217
     25 F2         -4.5129    3.8940    8.7578 F         1 <0>        -0.1214
     26 H1          3.9999    4.1060    4.7097 H         1 <0>         0.0832
     27 H2          4.1712    4.4030    6.4564 H         1 <0>         0.0773
     28 H3          4.1887    2.7366    5.8310 H         1 <0>         0.0803
     29 H4          2.1045    5.6491    6.6299 H         1 <0>         0.1405
     30 H5         -0.3628    5.5158    6.8795 H         1 <0>         0.1390
     31 H6         -0.1602    1.5067    5.3647 H         1 <0>         0.1538
     32 H7         -1.9524    4.0516    8.3053 H         1 <0>         0.1533
     33 H8         -4.6561    2.4139    4.5047 H         1 <0>         0.1546
     34 H9         -2.9871    0.6080    3.7774 H         1 <0>         0.1389
     35 H10        -1.8931    0.0157    1.6552 H         1 <0>         0.1477
     36 H11         0.1761    3.7463    1.6608 H         1 <0>         0.1442
     37 H12        -0.9155    4.3599    3.7782 H         1 <0>         0.1321
     38 H13        -2.1080    1.5544   -1.1761 H         1 <0>         0.1321
     39 H14        -1.2479    3.1127   -1.1759 H         1 <0>         0.1316
     40 H15        -0.7188    1.8043   -2.2605 H         1 <0>         0.1343
@<TRIPOS>BOND
     1    1    2 1
     2    1   26 1
     3    1   27 1
     4    1   28 1
     5    2    7 ar
     6    2    3 ar
     7    3    4 ar
     8    3   29 1
     9    4    5 ar
    10    4   30 1
    11    5    6 ar
    12    5    8 1
    13    6    7 ar
    14    6   31 1
    15    8   13 ar
    16    8    9 ar
    17    9   10 ar
    18    9   32 1
    19   10   11 ar
    20   10   25 1
    21   11   12 ar
    22   11   24 1
    23   12   13 ar
    24   12   33 1
    25   13   14 1
    26   14   19 ar
    27   14   15 ar
    28   15   16 ar
    29   15   34 1
    30   16   17 ar
    31   16   35 1
    32   17   18 ar
    33   17   20 1
    34   18   19 ar
    35   18   36 1
    36   19   37 1
    37   20   21 2
    38   20   22 2
    39   20   23 1
    40   23   38 1
    41   23   39 1
    42   23   40 1
@<TRIPOS>MOLECULE
ZINC03814672
   40    42     0     0     0
SMALL
USER_CHARGES

@<TRIPOS>ATOM
      1 C1          1.6097    6.4078    6.7197 C.3       1 <0>        -0.1175
      2 C2          0.9789    5.0963    6.3283 C.ar      1 <0>        -0.1152
      3 C3         -0.3942    4.9611    6.3424 C.ar      1 <0>        -0.0757
      4 C4         -0.9763    3.7457    5.9857 C.ar      1 <0>        -0.0662
      5 C5         -0.1676    2.6753    5.6050 C.ar      1 <0>        -0.0703
      6 C6          1.2038    2.8218    5.5885 C.ar      1 <0>        -0.1458
      7 C7          1.7783    4.0302    5.9494 C.ar      1 <0>         0.1095
      8 F1          3.1220    4.1688    5.9321 F         1 <0>        -0.1327
      9 C8         -2.4506    3.5934    6.0051 C.ar      1 <0>        -0.0056
     10 C9         -3.1780    3.9724    7.1302 C.ar      1 <0>        -0.1118
     11 C10        -4.5522    3.8287    7.1450 C.ar      1 <0>         0.0820
     12 C11        -5.2143    3.3067    6.0411 C.ar      1 <0>         0.0746
     13 C12        -4.5053    2.9314    4.9161 C.ar      1 <0>        -0.1052
     14 C13        -3.1197    3.0658    4.8895 C.ar      1 <0>        -0.0316
     15 C14        -2.3553    2.6595    3.6863 C.ar      1 <0>         0.0082
     16 C15        -2.5607    1.4032    3.1179 C.ar      1 <0>        -0.1267
     17 C16        -1.8458    1.0302    1.9981 C.ar      1 <0>        -0.0143
     18 C17        -0.9267    1.9002    1.4394 C.ar      1 <0>        -0.6750
     19 C18        -0.7149    3.1461    2.0020 C.ar      1 <0>        -0.0196
     20 C19        -1.4277    3.5321    3.1188 C.ar      1 <0>        -0.1136
     21 S1         -0.0172    1.4168    0.0098 S.o2      1 <0>         2.7003
     22 O1          0.0021   -0.0041    0.0020 O.2       1 <0>        -0.9572
     23 O2          1.1718    2.1948    0.0027 O.2       1 <0>        -0.9548
     24 N1         -0.8975    1.8855   -1.3122 N.pl3     1 <0>        -1.2439
     25 F2         -6.5582    3.1706    6.0655 F         1 <0>        -0.1220
     26 F3         -5.2551    4.1979    8.2381 F         1 <0>        -0.1214
     27 H1          1.7165    7.0375    5.8364 H         1 <0>         0.0774
     28 H2          0.9771    6.9114    7.4506 H         1 <0>         0.0746
     29 H3          2.5917    6.2230    7.1551 H         1 <0>         0.0728
     30 H4         -1.0168    5.7941    6.6336 H         1 <0>         0.1373
     31 H5         -0.6144    1.7333    5.3232 H         1 <0>         0.1333
     32 H6          1.8310    1.9932    5.2941 H         1 <0>         0.1409
     33 H7         -2.6683    4.3792    7.9911 H         1 <0>         0.1546
     34 H8         -5.0255    2.5300    4.0589 H         1 <0>         0.1539
     35 H9         -3.2777    0.7230    3.5535 H         1 <0>         0.1382
     36 H10        -2.0043    0.0573    1.5567 H         1 <0>         0.1460
     37 H11         0.0071    3.8194    1.5642 H         1 <0>         0.1446
     38 H12        -1.2643    4.5064    3.5550 H         1 <0>         0.1355
     39 H13        -1.2009    1.2230   -1.9525 H         1 <0>         0.4231
     40 H14        -1.1097    2.8224   -1.4463 H         1 <0>         0.4192
@<TRIPOS>BOND
     1    1    2 1
     2    1   27 1
     3    1   28 1
     4    1   29 1
     5    2    7 ar
     6    2    3 ar
     7    3    4 ar
     8    3   30 1
     9    4    5 ar
    10    4    9 1
    11    5    6 ar
    12    5   31 1
    13    6    7 ar
    14    6   32 1
    15    7    8 1
    16    9   14 ar
    17    9   10 ar
    18   10   11 ar
    19   10   33 1
    20   11   12 ar
    21   11   26 1
    22   12   13 ar
    23   12   25 1
    24   13   14 ar
    25   13   34 1
    26   14   15 1
    27   15   20 ar
    28   15   16 ar
    29   16   17 ar
    30   16   35 1
    31   17   18 ar
    32   17   36 1
    33   18   19 ar
    34   18   21 1
    35   19   20 ar
    36   19   37 1
    37   20   38 1
    38   21   22 2
    39   21   23 2
    40   21   24 1
    41   24   39 1
    42   24   40 1
@<TRIPOS>MOLECULE
ZINC03814673
   41    43     0     0     0
SMALL
USER_CHARGES

@<TRIPOS>ATOM
      1 C1          3.6620    5.4223    6.3305 C.3       1 <0>         0.0237
      2 O1          3.1343    4.1523    5.9423 O.3       1 <0>        -0.3052
      3 C2          1.7820    4.0151    5.9580 C.ar      1 <0>         0.1096
      4 C3          0.9820    5.0829    6.3397 C.ar      1 <0>        -0.1810
      5 C4         -0.3905    4.9475    6.3564 C.ar      1 <0>        -0.0692
      6 C5         -0.9754    3.7360    5.9897 C.ar      1 <0>        -0.0707
      7 C6         -0.1700    2.6622    5.6119 C.ar      1 <0>        -0.0920
      8 C7          1.2032    2.8056    5.5911 C.ar      1 <0>         0.0747
      9 F1          1.9848    1.7682    5.2196 F         1 <0>        -0.1258
     10 C8         -2.4500    3.5880    6.0074 C.ar      1 <0>        -0.0021
     11 C9         -3.1779    3.9711    7.1308 C.ar      1 <0>        -0.1115
     12 C10        -4.5521    3.8269    7.1458 C.ar      1 <0>         0.0825
     13 C11        -5.2141    3.3054    6.0417 C.ar      1 <0>         0.0747
     14 C12        -4.5048    2.9260    4.9183 C.ar      1 <0>        -0.1042
     15 C13        -3.1197    3.0658    4.8895 C.ar      1 <0>        -0.0323
     16 C14        -2.3553    2.6595    3.6863 C.ar      1 <0>         0.0099
     17 C15        -2.5607    1.4032    3.1179 C.ar      1 <0>        -0.1271
     18 C16        -1.8458    1.0302    1.9981 C.ar      1 <0>        -0.0137
     19 C17        -0.9267    1.9002    1.4394 C.ar      1 <0>        -0.6701
     20 C18        -0.7149    3.1461    2.0020 C.ar      1 <0>        -0.0150
     21 C19        -1.4277    3.5321    3.1188 C.ar      1 <0>        -0.1155
     22 S1         -0.0172    1.4168    0.0098 S.o2      1 <0>         2.6985
     23 O2          0.0021   -0.0041    0.0020 O.2       1 <0>        -0.9601
     24 O3          1.1718    2.1948    0.0027 O.2       1 <0>        -0.9596
     25 N1         -0.8975    1.8855   -1.3122 N.pl3     1 <0>        -1.2496
     26 F2         -6.5579    3.1679    6.0665 F         1 <0>        -0.1219
     27 F3         -5.2550    4.1952    8.2391 F         1 <0>        -0.1213
     28 H1          3.2816    6.1939    5.6611 H         1 <0>         0.0606
     29 H2          3.3569    5.6454    7.3528 H         1 <0>         0.0601
     30 H3          4.7503    5.3963    6.2736 H         1 <0>         0.1067
     31 H4          1.4348    6.0213    6.6238 H         1 <0>         0.1447
     32 H5         -1.0118    5.7793    6.6538 H         1 <0>         0.1385
     33 H6         -0.6198    1.7212    5.3315 H         1 <0>         0.1434
     34 H7         -2.6682    4.3775    7.9919 H         1 <0>         0.1551
     35 H8         -5.0246    2.5214    4.0624 H         1 <0>         0.1544
     36 H9         -3.2777    0.7230    3.5535 H         1 <0>         0.1399
     37 H10        -2.0043    0.0573    1.5567 H         1 <0>         0.1484
     38 H11         0.0072    3.8194    1.5642 H         1 <0>         0.1464
     39 H12        -1.2644    4.5066    3.5549 H         1 <0>         0.1371
     40 H13        -1.7474    2.3376   -1.1935 H         1 <0>         0.4168
     41 H14        -0.5632    1.7079   -2.2053 H         1 <0>         0.4221
@<TRIPOS>BOND
     1    1    2 1
     2    1   28 1
     3    1   29 1
     4    1   30 1
     5    2    3 1
     6    3    8 ar
     7    3    4 ar
     8    4    5 ar
     9    4   31 1
    10    5    6 ar
    11    5   32 1
    12    6    7 ar
    13    6   10 1
    14    7    8 ar
    15    7   33 1
    16    8    9 1
    17   10   15 ar
    18   10   11 ar
    19   11   12 ar
    20   11   34 1
    21   12   13 ar
    22   12   27 1
    23   13   14 ar
    24   13   26 1
    25   14   15 ar
    26   14   35 1
    27   15   16 1
    28   16   21 ar
    29   16   17 ar
    30   17   18 ar
    31   17   36 1
    32   18   19 ar
    33   18   37 1
    34   19   20 ar
    35   19   22 1
    36   20   21 ar
    37   20   38 1
    38   21   39 1
    39   22   23 2
    40   22   24 2
    41   22   25 1
    42   25   40 1
    43   25   41 1
@<TRIPOS>MOLECULE
ZINC03814674
   44    46     0     0     0
SMALL
USER_CHARGES

@<TRIPOS>ATOM
      1 C1          1.6041    6.4128    6.7172 C.3       1 <0>        -0.1074
      2 C2          0.9747    5.1002    6.3276 C.ar      1 <0>        -0.1144
      3 C3         -0.3975    4.9630    6.3423 C.ar      1 <0>        -0.0641
      4 C4         -0.9788    3.7469    5.9854 C.ar      1 <0>        -0.0977
      5 C5         -0.1703    2.6759    5.6054 C.ar      1 <0>        -0.0562
      6 C6          1.2006    2.8210    5.5887 C.ar      1 <0>        -0.2023
      7 C7          1.7766    4.0320    5.9493 C.ar      1 <0>         0.1412
      8 O1          3.1280    4.1719    5.9314 O.3       1 <0>        -0.3108
      9 C8          3.8929    3.0329    5.5317 C.3       1 <0>         0.0235
     10 C9         -2.4529    3.5946    6.0040 C.ar      1 <0>         0.0049
     11 C10        -3.1811    3.9741    7.1286 C.ar      1 <0>        -0.1156
     12 C11        -4.5553    3.8303    7.1426 C.ar      1 <0>         0.0832
     13 C12        -5.2167    3.3079    6.0384 C.ar      1 <0>         0.0700
     14 C13        -4.5070    2.9323    4.9139 C.ar      1 <0>        -0.1041
     15 C14        -3.1214    3.0667    4.8881 C.ar      1 <0>        -0.0383
     16 C15        -2.3563    2.6600    3.6855 C.ar      1 <0>         0.0153
     17 C16        -2.5614    1.4035    3.1174 C.ar      1 <0>        -0.1283
     18 C17        -1.8458    1.0302    1.9981 C.ar      1 <0>        -0.0152
     19 C18        -0.9267    1.9002    1.4394 C.ar      1 <0>        -0.6724
     20 C19        -0.7149    3.1461    2.0020 C.ar      1 <0>        -0.0153
     21 C20        -1.4284    3.5324    3.1183 C.ar      1 <0>        -0.1117
     22 S1         -0.0172    1.4168    0.0098 S.o2      1 <0>         2.6992
     23 O2          0.0021   -0.0041    0.0020 O.2       1 <0>        -0.9618
     24 O3          1.1718    2.1948    0.0027 O.2       1 <0>        -0.9615
     25 N1         -0.8975    1.8855   -1.3122 N.pl3     1 <0>        -1.2496
     26 F1         -6.5605    3.1714    6.0622 F         1 <0>        -0.1232
     27 F2         -5.2589    4.1998    8.2351 F         1 <0>        -0.1222
     28 H1          1.7102    7.0415    5.8331 H         1 <0>         0.0704
     29 H2          0.9710    6.9168    7.4475 H         1 <0>         0.0666
     30 H3          2.5864    6.2297    7.1529 H         1 <0>         0.0721
     31 H4         -1.0209    5.7955    6.6331 H         1 <0>         0.1336
     32 H5         -0.6177    1.7340    5.3242 H         1 <0>         0.1252
     33 H6          1.8273    1.9920    5.2946 H         1 <0>         0.1329
     34 H7          4.9543    3.2794    5.5613 H         1 <0>         0.1034
     35 H8          3.6932    2.2045    6.2113 H         1 <0>         0.0571
     36 H9          3.6147    2.7461    4.5176 H         1 <0>         0.0592
     37 H10        -2.6719    4.3811    7.9897 H         1 <0>         0.1538
     38 H11        -5.0267    2.5306    4.0566 H         1 <0>         0.1528
     39 H12        -3.2786    0.7235    3.5527 H         1 <0>         0.1387
     40 H13        -2.0038    0.0571    1.5571 H         1 <0>         0.1472
     41 H14         0.0071    3.8195    1.5641 H         1 <0>         0.1455
     42 H15        -1.2654    4.5071    3.5541 H         1 <0>         0.1372
     43 H16        -1.7474    2.3376   -1.1935 H         1 <0>         0.4172
     44 H17        -0.5632    1.7079   -2.2053 H         1 <0>         0.4221
@<TRIPOS>BOND
     1    1    2 1
     2    1   28 1
     3    1   29 1
     4    1   30 1
     5    2    7 ar
     6    2    3 ar
     7    3    4 ar
     8    3   31 1
     9    4    5 ar
    10    4   10 1
    11    5    6 ar
    12    5   32 1
    13    6    7 ar
    14    6   33 1
    15    7    8 1
    16    8    9 1
    17    9   34 1
    18    9   35 1
    19    9   36 1
    20   10   15 ar
    21   10   11 ar
    22   11   12 ar
    23   11   37 1
    24   12   13 ar
    25   12   27 1
    26   13   14 ar
    27   13   26 1
    28   14   15 ar
    29   14   38 1
    30   15   16 1
    31   16   21 ar
    32   16   17 ar
    33   17   18 ar
    34   17   39 1
    35   18   19 ar
    36   18   40 1
    37   19   20 ar
    38   19   22 1
    39   20   21 ar
    40   20   41 1
    41   21   42 1
    42   22   23 2
    43   22   24 2
    44   22   25 1
    45   25   43 1
    46   25   44 1
@<TRIPOS>MOLECULE
ZINC03814675
   45    47     0     0     0
SMALL
USER_CHARGES

@<TRIPOS>ATOM
      1 C1          3.8948    3.0220    5.5292 C.3       1 <0>         0.0227
      2 O1          3.1330    4.1627    5.9299 O.3       1 <0>        -0.3029
      3 C2          1.7804    4.0262    5.9484 C.ar      1 <0>         0.1154
      4 C3          1.2015    2.8187    5.5880 C.ar      1 <0>        -0.1716
      5 C4         -0.1708    2.6759    5.6055 C.ar      1 <0>        -0.0859
      6 C5         -0.9788    3.7469    5.9854 C.ar      1 <0>        -0.0613
      7 C6         -0.3978    4.9631    6.3424 C.ar      1 <0>        -0.1560
      8 C7          0.9786    5.0994    6.3288 C.ar      1 <0>         0.1019
      9 O2          1.5484    6.2828    6.6814 O.3       1 <0>        -0.3031
     10 C8          0.6655    7.3405    7.0606 C.3       1 <0>         0.0242
     11 C9         -2.4529    3.5946    6.0040 C.ar      1 <0>         0.0015
     12 C10        -3.1811    3.9741    7.1286 C.ar      1 <0>        -0.1147
     13 C11        -4.5553    3.8303    7.1426 C.ar      1 <0>         0.0827
     14 C12        -5.2167    3.3079    6.0384 C.ar      1 <0>         0.0721
     15 C13        -4.5070    2.9323    4.9139 C.ar      1 <0>        -0.1042
     16 C14        -3.1214    3.0667    4.8881 C.ar      1 <0>        -0.0349
     17 C15        -2.3563    2.6600    3.6855 C.ar      1 <0>         0.0142
     18 C16        -2.5614    1.4035    3.1174 C.ar      1 <0>        -0.1274
     19 C17        -1.8458    1.0302    1.9981 C.ar      1 <0>        -0.0149
     20 C18        -0.9267    1.9002    1.4394 C.ar      1 <0>        -0.6717
     21 C19        -0.7149    3.1461    2.0020 C.ar      1 <0>        -0.0150
     22 C20        -1.4284    3.5324    3.1183 C.ar      1 <0>        -0.1114
     23 S1         -0.0172    1.4168    0.0098 S.o2      1 <0>         2.6989
     24 O3          0.0021   -0.0041    0.0020 O.2       1 <0>        -0.9615
     25 O4          1.1718    2.1948    0.0027 O.2       1 <0>        -0.9609
     26 N1         -0.8975    1.8855   -1.3122 N.pl3     1 <0>        -1.2497
     27 F1         -6.5606    3.1718    6.0620 F         1 <0>        -0.1225
     28 F2         -5.2589    4.1998    8.2351 F         1 <0>        -0.1219
     29 H1          3.6933    2.1937    6.2085 H         1 <0>         0.0569
     30 H2          3.6153    2.7365    4.5151 H         1 <0>         0.0589
     31 H3          4.9568    3.2657    5.5584 H         1 <0>         0.1039
     32 H4          1.8260    1.9885    5.2928 H         1 <0>         0.1406
     33 H5         -0.6193    1.7345    5.3244 H         1 <0>         0.1286
     34 H6         -1.0212    5.7960    6.6325 H         1 <0>         0.1398
     35 H7         -0.0013    7.5725    6.2301 H         1 <0>         0.0557
     36 H8          0.0766    7.0304    7.9238 H         1 <0>         0.0557
     37 H9          1.2478    8.2255    7.3170 H         1 <0>         0.1033
     38 H10        -2.6719    4.3811    7.9897 H         1 <0>         0.1532
     39 H11        -5.0267    2.5309    4.0565 H         1 <0>         0.1537
     40 H12        -3.2786    0.7235    3.5527 H         1 <0>         0.1389
     41 H13        -2.0038    0.0571    1.5571 H         1 <0>         0.1474
     42 H14         0.0071    3.8195    1.5641 H         1 <0>         0.1458
     43 H15        -1.2654    4.5071    3.5541 H         1 <0>         0.1363
     44 H16        -1.7474    2.3376   -1.1935 H         1 <0>         0.4171
     45 H17        -0.5632    1.7079   -2.2053 H         1 <0>         0.4221
@<TRIPOS>BOND
     1    1    2 1
     2    1   29 1
     3    1   30 1
     4    1   31 1
     5    2    3 1
     6    3    8 ar
     7    3    4 ar
     8    4    5 ar
     9    4   32 1
    10    5    6 ar
    11    5   33 1
    12    6    7 ar
    13    6   11 1
    14    7    8 ar
    15    7   34 1
    16    8    9 1
    17    9   10 1
    18   10   35 1
    19   10   36 1
    20   10   37 1
    21   11   16 ar
    22   11   12 ar
    23   12   13 ar
    24   12   38 1
    25   13   14 ar
    26   13   28 1
    27   14   15 ar
    28   14   27 1
    29   15   16 ar
    30   15   39 1
    31   16   17 1
    32   17   22 ar
    33   17   18 ar
    34   18   19 ar
    35   18   40 1
    36   19   20 ar
    37   19   41 1
    38   20   21 ar
    39   20   23 1
    40   21   22 ar
    41   21   42 1
    42   22   43 1
    43   23   24 2
    44   23   25 2
    45   23   26 1
    46   26   44 1
    47   26   45 1
@<TRIPOS>MOLECULE
ZINC03814676
   43    46     0     0     0
SMALL
USER_CHARGES

@<TRIPOS>ATOM
      1 C1         -3.2886    0.6148    2.7167 C.ar      1 <0>        -0.1123
      2 C2         -3.0880    1.6213    3.6393 C.ar      1 <0>        -0.0128
      3 C3         -4.0490    2.6000    3.8191 C.ar      1 <0>        -0.6723
      4 C4         -5.2127    2.5800    3.0715 C.ar      1 <0>        -0.0182
      5 C5         -5.4218    1.5818    2.1419 C.ar      1 <0>        -0.1267
      6 C6         -4.4571    0.5925    1.9566 C.ar      1 <0>         0.0123
      7 C7         -4.6757   -0.4824    0.9596 C.ar      1 <0>        -0.0330
      8 C8         -5.8722   -1.1945    0.9498 C.ar      1 <0>        -0.1048
      9 C9         -6.0703   -2.1996    0.0227 C.ar      1 <0>         0.0733
     10 C10        -5.0824   -2.5014   -0.9059 C.ar      1 <0>         0.0824
     11 C11        -3.8922   -1.7995   -0.9107 C.ar      1 <0>        -0.1121
     12 C12        -3.6791   -0.7841    0.0179 C.ar      1 <0>         0.0000
     13 C13        -2.4036   -0.0293    0.0162 C.ar      1 <0>        -0.0580
     14 C14        -2.4164    1.3649    0.0261 C.ar      1 <0>        -0.0870
     15 C15        -1.2283    2.0652    0.0191 C.ar      1 <0>        -0.1102
     16 C16        -0.0168    1.3869    0.0097 C.ar      1 <0>         0.0650
     17 C17         0.0021   -0.0041    0.0020 C.ar      1 <0>         0.0522
     18 C18        -1.1882   -0.7115    0.0043 C.ar      1 <0>        -0.0955
     19 O1          1.1811   -0.6847   -0.0068 O.3       1 <0>        -0.3055
     20 C19         2.3473    0.0535   -0.3871 C.3       1 <0>         0.0200
     21 C20         2.3347    1.3914    0.3649 C.3       1 <0>         0.0190
     22 O2          1.1438    2.0983    0.0024 O.3       1 <0>        -0.3038
     23 F1         -5.2860   -3.4860   -1.8083 F         1 <0>        -0.1218
     24 F2         -7.2302   -2.8924    0.0196 F         1 <0>        -0.1225
     25 S1         -3.7894    3.8774    5.0046 S.o2      1 <0>         2.6993
     26 O3         -2.3840    3.9831    5.1867 O.2       1 <0>        -0.9604
     27 O4         -4.5896    4.9786    4.5969 O.2       1 <0>        -0.9586
     28 N1         -4.4143    3.3451    6.4428 N.pl3     1 <0>        -1.2479
     29 H1         -2.5398   -0.1515    2.5805 H         1 <0>         0.1360
     30 H2         -2.1812    1.6422    4.2255 H         1 <0>         0.1446
     31 H3         -5.9593    3.3469    3.2159 H         1 <0>         0.1471
     32 H4         -6.3311    1.5668    1.5593 H         1 <0>         0.1390
     33 H5         -6.6438   -0.9637    1.6694 H         1 <0>         0.1539
     34 H6         -3.1271   -2.0387   -1.6344 H         1 <0>         0.1545
     35 H7         -3.3566    1.8963    0.0365 H         1 <0>         0.1337
     36 H8         -1.2403    3.1451    0.0270 H         1 <0>         0.1403
     37 H9         -1.1749   -1.7914   -0.0035 H         1 <0>         0.1394
     38 H10         3.2419   -0.5095   -0.1209 H         1 <0>         0.1253
     39 H11         2.3334    0.2350   -1.4618 H         1 <0>         0.0797
     40 H12         2.3412    1.2091    1.4395 H         1 <0>         0.0810
     41 H13         3.2099    1.9782    0.0857 H         1 <0>         0.1255
     42 H14        -4.0282    3.6458    7.2803 H         1 <0>         0.4225
     43 H15        -5.1664    2.7325    6.4477 H         1 <0>         0.4175
@<TRIPOS>BOND
     1    1    6 ar
     2    1    2 ar
     3    1   29 1
     4    2    3 ar
     5    2   30 1
     6    3    4 ar
     7    3   25 1
     8    4    5 ar
     9    4   31 1
    10    5    6 ar
    11    5   32 1
    12    6    7 1
    13    7   12 ar
    14    7    8 ar
    15    8    9 ar
    16    8   33 1
    17    9   10 ar
    18    9   24 1
    19   10   11 ar
    20   10   23 1
    21   11   12 ar
    22   11   34 1
    23   12   13 1
    24   13   18 ar
    25   13   14 ar
    26   14   15 ar
    27   14   35 1
    28   15   16 ar
    29   15   36 1
    30   16   22 1
    31   16   17 ar
    32   17   18 ar
    33   17   19 1
    34   18   37 1
    35   19   20 1
    36   20   21 1
    37   20   38 1
    38   20   39 1
    39   21   22 1
    40   21   40 1
    41   21   41 1
    42   25   26 2
    43   25   27 2
    44   25   28 1
    45   28   42 1
    46   28   43 1
@<TRIPOS>MOLECULE
ZINC03814677
   40    43     0     0     0
SMALL
USER_CHARGES

@<TRIPOS>ATOM
      1 C1         -2.5607    1.4032    3.1179 C.ar      1 <0>        -0.1263
      2 C2         -1.8458    1.0302    1.9981 C.ar      1 <0>        -0.0144
      3 C3         -0.9267    1.9002    1.4394 C.ar      1 <0>        -0.6747
      4 C4         -0.7149    3.1461    2.0020 C.ar      1 <0>        -0.0192
      5 C5         -1.4277    3.5321    3.1188 C.ar      1 <0>        -0.1130
      6 C6         -2.3553    2.6595    3.6863 C.ar      1 <0>         0.0078
      7 C7         -3.1204    3.0662    4.8889 C.ar      1 <0>        -0.0297
      8 C8         -4.5055    2.9268    4.9168 C.ar      1 <0>        -0.1051
      9 C9         -5.2156    3.3065    6.0396 C.ar      1 <0>         0.0755
     10 C10        -4.5541    3.8280    7.1441 C.ar      1 <0>         0.0820
     11 C11        -3.1799    3.9718    7.1301 C.ar      1 <0>        -0.1109
     12 C12        -2.4513    3.5883    6.0072 C.ar      1 <0>        -0.0032
     13 C13        -0.9766    3.7357    5.9906 C.ar      1 <0>        -0.0511
     14 C14        -0.1717    2.6635    5.6079 C.ar      1 <0>        -0.0810
     15 C15         1.2009    2.8020    5.5924 C.ar      1 <0>        -0.0974
     16 C16         1.7846    4.0061    5.9571 C.ar      1 <0>         0.0467
     17 C17         0.9848    5.0813    6.3410 C.ar      1 <0>         0.0347
     18 C18        -0.3919    4.9487    6.3520 C.ar      1 <0>        -0.0843
     19 O1          1.7928    6.1383    6.6474 O.3       1 <0>        -0.3061
     20 C19         3.1040    5.5760    6.8412 C.3       1 <0>         0.2125
     21 O2          3.0928    4.3911    6.0235 O.3       1 <0>        -0.3046
     22 F1         -5.2575    4.1958    8.2373 F         1 <0>        -0.1213
     23 F2         -6.5594    3.1695    6.0635 F         1 <0>        -0.1219
     24 S1         -0.0172    1.4168    0.0098 S.o2      1 <0>         2.7002
     25 O3          0.0021   -0.0041    0.0020 O.2       1 <0>        -0.9574
     26 O4          1.1718    2.1948    0.0027 O.2       1 <0>        -0.9548
     27 N1         -0.8975    1.8855   -1.3122 N.pl3     1 <0>        -1.2441
     28 H1         -3.2777    0.7230    3.5535 H         1 <0>         0.1386
     29 H2         -2.0038    0.0571    1.5571 H         1 <0>         0.1460
     30 H3          0.0072    3.8194    1.5642 H         1 <0>         0.1444
     31 H4         -1.2644    4.5066    3.5549 H         1 <0>         0.1354
     32 H5         -5.0249    2.5223    4.0606 H         1 <0>         0.1544
     33 H6         -2.6706    4.3781    7.9915 H         1 <0>         0.1550
     34 H7         -0.6228    1.7244    5.3233 H         1 <0>         0.1396
     35 H8          1.8226    1.9705    5.2950 H         1 <0>         0.1416
     36 H9         -1.0130    5.7823    6.6445 H         1 <0>         0.1404
     37 H10         3.2586    5.3170    7.8887 H         1 <0>         0.0878
     38 H11         3.8724    6.2697    6.4998 H         1 <0>         0.1355
     39 H12        -1.2009    1.2230   -1.9525 H         1 <0>         0.4230
     40 H13        -1.1097    2.8224   -1.4463 H         1 <0>         0.4192
@<TRIPOS>BOND
     1    1    6 ar
     2    1    2 ar
     3    1   28 1
     4    2    3 ar
     5    2   29 1
     6    3    4 ar
     7    3   24 1
     8    4    5 ar
     9    4   30 1
    10    5    6 ar
    11    5   31 1
    12    6    7 1
    13    7   12 ar
    14    7    8 ar
    15    8    9 ar
    16    8   32 1
    17    9   10 ar
    18    9   23 1
    19   10   11 ar
    20   10   22 1
    21   11   12 ar
    22   11   33 1
    23   12   13 1
    24   13   18 ar
    25   13   14 ar
    26   14   15 ar
    27   14   34 1
    28   15   16 ar
    29   15   35 1
    30   16   21 1
    31   16   17 ar
    32   17   18 ar
    33   17   19 1
    34   18   36 1
    35   19   20 1
    36   20   21 1
    37   20   37 1
    38   20   38 1
    39   24   25 2
    40   24   26 2
    41   24   27 1
    42   27   39 1
    43   27   40 1
@<TRIPOS>MOLECULE
ZINC03814678
   40    42     0     0     0
SMALL
USER_CHARGES

@<TRIPOS>ATOM
      1 C1          3.2787    4.1629    5.9415 C.3       1 <0>        -0.1259
      2 C2          1.7794    4.0122    5.9585 C.ar      1 <0>        -0.0621
      3 C3          0.9839    5.0781    6.3387 C.ar      1 <0>        -0.1067
      4 C4         -0.3895    4.9462    6.3563 C.ar      1 <0>        -0.0936
      5 C5         -0.9761    3.7355    5.9899 C.ar      1 <0>        -0.0542
      6 C6         -0.1704    2.6625    5.6131 C.ar      1 <0>        -0.0808
      7 C7          1.2032    2.8077    5.5932 C.ar      1 <0>        -0.0362
      8 Cl1         2.2088    1.4751    5.1168 Cl        1 <0>        -0.0574
      9 C8         -2.4510    3.5883    6.0069 C.ar      1 <0>        -0.0071
     10 C9         -3.1791    3.9716    7.1301 C.ar      1 <0>        -0.1106
     11 C10        -4.5533    3.8276    7.1447 C.ar      1 <0>         0.0816
     12 C11        -5.2152    3.3061    6.0404 C.ar      1 <0>         0.0754
     13 C12        -4.5054    2.9266    4.9173 C.ar      1 <0>        -0.1054
     14 C13        -3.1204    3.0662    4.8889 C.ar      1 <0>        -0.0304
     15 C14        -2.3556    2.6597    3.6860 C.ar      1 <0>         0.0070
     16 C15        -2.5610    1.4033    3.1177 C.ar      1 <0>        -0.1265
     17 C16        -1.8458    1.0302    1.9981 C.ar      1 <0>        -0.0134
     18 C17        -0.9267    1.9002    1.4394 C.ar      1 <0>        -0.6736
     19 C18        -0.7149    3.1461    2.0020 C.ar      1 <0>        -0.0183
     20 C19        -1.4277    3.5321    3.1188 C.ar      1 <0>        -0.1136
     21 S1         -0.0172    1.4168    0.0098 S.o2      1 <0>         2.6987
     22 O1          0.0021   -0.0041    0.0020 O.2       1 <0>        -0.9567
     23 O2          1.1718    2.1948    0.0027 O.2       1 <0>        -0.9538
     24 N1         -0.8975    1.8855   -1.3122 N.pl3     1 <0>        -1.2442
     25 F1         -6.5590    3.1690    6.0648 F         1 <0>        -0.1218
     26 F2         -5.2564    4.1961    8.2379 F         1 <0>        -0.1213
     27 H1          3.6831    3.8828    6.9142 H         1 <0>         0.0794
     28 H2          3.7003    3.5153    5.1726 H         1 <0>         0.0772
     29 H3          3.5373    5.1995    5.7253 H         1 <0>         0.0745
     30 H4          1.4389    6.0158    6.6221 H         1 <0>         0.1377
     31 H5         -1.0091    5.7793    6.6538 H         1 <0>         0.1340
     32 H6         -0.6192    1.7209    5.3329 H         1 <0>         0.1341
     33 H7         -2.6695    4.3779    7.9912 H         1 <0>         0.1547
     34 H8         -5.0250    2.5221    4.0612 H         1 <0>         0.1541
     35 H9         -3.2783    0.7233    3.5530 H         1 <0>         0.1380
     36 H10        -2.0040    0.0572    1.5569 H         1 <0>         0.1458
     37 H11         0.0069    3.8196    1.5640 H         1 <0>         0.1443
     38 H12        -1.2645    4.5066    3.5548 H         1 <0>         0.1351
     39 H13        -1.2009    1.2230   -1.9525 H         1 <0>         0.4230
     40 H14        -1.1097    2.8224   -1.4463 H         1 <0>         0.4191
@<TRIPOS>BOND
     1    1    2 1
     2    1   27 1
     3    1   28 1
     4    1   29 1
     5    2    7 ar
     6    2    3 ar
     7    3    4 ar
     8    3   30 1
     9    4    5 ar
    10    4   31 1
    11    5    6 ar
    12    5    9 1
    13    6    7 ar
    14    6   32 1
    15    7    8 1
    16    9   14 ar
    17    9   10 ar
    18   10   11 ar
    19   10   33 1
    20   11   12 ar
    21   11   26 1
    22   12   13 ar
    23   12   25 1
    24   13   14 ar
    25   13   34 1
    26   14   15 1
    27   15   20 ar
    28   15   16 ar
    29   16   17 ar
    30   16   35 1
    31   17   18 ar
    32   17   36 1
    33   18   19 ar
    34   18   21 1
    35   19   20 ar
    36   19   37 1
    37   20   38 1
    38   21   22 2
    39   21   23 2
    40   21   24 1
    41   24   39 1
    42   24   40 1
@<TRIPOS>MOLECULE
ZINC03814679
   43    45     0     0     0
SMALL
USER_CHARGES

@<TRIPOS>ATOM
      1 C1          3.2747    4.1893    5.9271 C.3       1 <0>        -0.1235
      2 C2          1.7759    4.0334    5.9478 C.ar      1 <0>        -0.0721
      3 C3          1.2037    2.8263    5.5879 C.ar      1 <0>        -0.1138
      4 C4         -0.1680    2.6778    5.6045 C.ar      1 <0>        -0.0934
      5 C5         -0.9777    3.7473    5.9849 C.ar      1 <0>        -0.0637
      6 C6         -0.3957    4.9627    6.3414 C.ar      1 <0>        -0.0985
      7 C7          0.9778    5.0978    6.3261 C.ar      1 <0>        -0.0848
      8 C8          1.6089    6.4094    6.7167 C.3       1 <0>        -0.1201
      9 C9         -2.4520    3.5943    6.0043 C.ar      1 <0>        -0.0021
     10 C10        -3.1796    3.9730    7.1293 C.ar      1 <0>        -0.1139
     11 C11        -4.5537    3.8286    7.1441 C.ar      1 <0>         0.0817
     12 C12        -5.2155    3.3062    6.0402 C.ar      1 <0>         0.0716
     13 C13        -4.5063    2.9317    4.9150 C.ar      1 <0>        -0.1055
     14 C14        -3.1207    3.0664    4.8887 C.ar      1 <0>        -0.0345
     15 C15        -2.3559    2.6599    3.6857 C.ar      1 <0>         0.0112
     16 C16        -2.5610    1.4033    3.1177 C.ar      1 <0>        -0.1275
     17 C17        -1.8458    1.0302    1.9981 C.ar      1 <0>        -0.0151
     18 C18        -0.9267    1.9002    1.4394 C.ar      1 <0>        -0.6757
     19 C19        -0.7149    3.1461    2.0020 C.ar      1 <0>        -0.0196
     20 C20        -1.4284    3.5324    3.1183 C.ar      1 <0>        -0.1105
     21 S1         -0.0172    1.4168    0.0098 S.o2      1 <0>         2.7008
     22 O1          0.0021   -0.0041    0.0020 O.2       1 <0>        -0.9579
     23 O2          1.1718    2.1948    0.0027 O.2       1 <0>        -0.9556
     24 N1         -0.8975    1.8855   -1.3122 N.pl3     1 <0>        -1.2442
     25 F1         -6.5593    3.1694    6.0644 F         1 <0>        -0.1229
     26 F2         -5.2569    4.1975    8.2371 F         1 <0>        -0.1223
     27 H1          3.5900    4.5403    4.9445 H         1 <0>         0.0750
     28 H2          3.5752    4.9128    6.6850 H         1 <0>         0.0726
     29 H3          3.7429    3.2276    6.1370 H         1 <0>         0.0680
     30 H4          1.8318    1.9987    5.2930 H         1 <0>         0.1262
     31 H5         -0.6136    1.7352    5.3230 H         1 <0>         0.1220
     32 H6         -1.0181    5.7958    6.6330 H         1 <0>         0.1257
     33 H7          1.7153    7.0388    5.8332 H         1 <0>         0.0728
     34 H8          0.9766    6.9133    7.4478 H         1 <0>         0.0667
     35 H9          2.5911    6.2247    7.1517 H         1 <0>         0.0729
     36 H10        -2.6701    4.3801    7.9902 H         1 <0>         0.1533
     37 H11        -5.0262    2.5302    4.0577 H         1 <0>         0.1530
     38 H12        -3.2780    0.7232    3.5532 H         1 <0>         0.1373
     39 H13        -2.0040    0.0572    1.5569 H         1 <0>         0.1453
     40 H14         0.0071    3.8195    1.5642 H         1 <0>         0.1438
     41 H15        -1.2654    4.5070    3.5541 H         1 <0>         0.1350
     42 H16        -1.2009    1.2230   -1.9525 H         1 <0>         0.4230
     43 H17        -1.1097    2.8224   -1.4463 H         1 <0>         0.4191
@<TRIPOS>BOND
     1    1    2 1
     2    1   27 1
     3    1   28 1
     4    1   29 1
     5    2    7 ar
     6    2    3 ar
     7    3    4 ar
     8    3   30 1
     9    4    5 ar
    10    4   31 1
    11    5    6 ar
    12    5    9 1
    13    6    7 ar
    14    6   32 1
    15    7    8 1
    16    8   33 1
    17    8   34 1
    18    8   35 1
    19    9   14 ar
    20    9   10 ar
    21   10   11 ar
    22   10   36 1
    23   11   12 ar
    24   11   26 1
    25   12   13 ar
    26   12   25 1
    27   13   14 ar
    28   13   37 1
    29   14   15 1
    30   15   20 ar
    31   15   16 ar
    32   16   17 ar
    33   16   38 1
    34   17   18 ar
    35   17   39 1
    36   18   19 ar
    37   18   21 1
    38   19   20 ar
    39   19   40 1
    40   20   41 1
    41   21   22 2
    42   21   23 2
    43   21   24 1
    44   24   42 1
    45   24   43 1
@<TRIPOS>MOLECULE
ZINC03814680
   45    47     0     0     0
SMALL
USER_CHARGES

@<TRIPOS>ATOM
      1 C1          3.5804    5.2233    5.0198 C.3       1 <0>         0.0266
      2 N1          3.1698    4.1559    5.9418 N.pl3     1 <0>        -0.5077
      3 C2          3.6899    4.3993    7.2939 C.3       1 <0>         0.0282
      4 C3          1.7805    4.0155    5.9578 C.ar      1 <0>         0.1080
      5 C4          0.9792    5.0852    6.3398 C.ar      1 <0>        -0.1353
      6 C5         -0.3925    4.9493    6.3561 C.ar      1 <0>        -0.0891
      7 C6         -0.9769    3.7372    5.9893 C.ar      1 <0>        -0.0496
      8 C7         -0.1714    2.6630    5.6119 C.ar      1 <0>        -0.0826
      9 C8          1.2005    2.8055    5.5911 C.ar      1 <0>        -0.0111
     10 Cl1         2.2041    1.4715    5.1146 Cl        1 <0>        -0.0417
     11 C9         -2.4513    3.5889    6.0066 C.ar      1 <0>        -0.0075
     12 C10        -3.1797    3.9718    7.1300 C.ar      1 <0>        -0.1103
     13 C11        -4.5538    3.8274    7.1446 C.ar      1 <0>         0.0820
     14 C12        -5.2155    3.3059    6.0402 C.ar      1 <0>         0.0761
     15 C13        -4.5058    2.9264    4.9171 C.ar      1 <0>        -0.1049
     16 C14        -3.1207    3.0664    4.8886 C.ar      1 <0>        -0.0304
     17 C15        -2.3559    2.6599    3.6857 C.ar      1 <0>         0.0097
     18 C16        -2.5610    1.4033    3.1177 C.ar      1 <0>        -0.1263
     19 C17        -1.8458    1.0302    1.9981 C.ar      1 <0>        -0.0130
     20 C18        -0.9267    1.9002    1.4394 C.ar      1 <0>        -0.6689
     21 C19        -0.7149    3.1461    2.0020 C.ar      1 <0>        -0.0127
     22 C20        -1.4284    3.5324    3.1183 C.ar      1 <0>        -0.1146
     23 S1         -0.0172    1.4168    0.0098 S.o2      1 <0>         2.6970
     24 O1          0.0021   -0.0041    0.0020 O.2       1 <0>        -0.9600
     25 O2          1.1718    2.1948    0.0027 O.2       1 <0>        -0.9585
     26 N2         -0.8975    1.8855   -1.3122 N.pl3     1 <0>        -1.2500
     27 F1         -6.5593    3.1687    6.0646 F         1 <0>        -0.1215
     28 F2         -5.2570    4.1954    8.2378 F         1 <0>        -0.1211
     29 H1          3.1373    6.1674    5.3365 H         1 <0>         0.0326
     30 H2          4.6668    5.3114    5.0267 H         1 <0>         0.0784
     31 H3          3.2417    4.9830    4.0120 H         1 <0>         0.0737
     32 H4          3.4309    3.5600    7.9393 H         1 <0>         0.0717
     33 H5          4.7740    4.5048    7.2526 H         1 <0>         0.0783
     34 H6          3.2508    5.3136    7.6930 H         1 <0>         0.0325
     35 H7          1.4318    6.0238    6.6238 H         1 <0>         0.1339
     36 H8         -1.0142    5.7810    6.6530 H         1 <0>         0.1339
     37 H9         -0.6215    1.7221    5.3318 H         1 <0>         0.1373
     38 H10        -2.6702    4.3779    7.9914 H         1 <0>         0.1546
     39 H11        -5.0253    2.5215    4.0613 H         1 <0>         0.1547
     40 H12        -3.2780    0.7231    3.5532 H         1 <0>         0.1395
     41 H13        -2.0040    0.0572    1.5569 H         1 <0>         0.1481
     42 H14         0.0073    3.8193    1.5644 H         1 <0>         0.1458
     43 H15        -1.2651    4.5069    3.5543 H         1 <0>         0.1355
     44 H16        -1.7474    2.3376   -1.1935 H         1 <0>         0.4168
     45 H17        -0.5632    1.7079   -2.2053 H         1 <0>         0.4220
@<TRIPOS>BOND
     1    1    2 1
     2    1   29 1
     3    1   30 1
     4    1   31 1
     5    2    3 1
     6    2    4 1
     7    3   32 1
     8    3   33 1
     9    3   34 1
    10    4    9 ar
    11    4    5 ar
    12    5    6 ar
    13    5   35 1
    14    6    7 ar
    15    6   36 1
    16    7    8 ar
    17    7   11 1
    18    8    9 ar
    19    8   37 1
    20    9   10 1
    21   11   16 ar
    22   11   12 ar
    23   12   13 ar
    24   12   38 1
    25   13   14 ar
    26   13   28 1
    27   14   15 ar
    28   14   27 1
    29   15   16 ar
    30   15   39 1
    31   16   17 1
    32   17   22 ar
    33   17   18 ar
    34   18   19 ar
    35   18   40 1
    36   19   20 ar
    37   19   41 1
    38   20   21 ar
    39   20   23 1
    40   21   22 ar
    41   21   42 1
    42   22   43 1
    43   23   24 2
    44   23   25 2
    45   23   26 1
    46   26   44 1
    47   26   45 1
@<TRIPOS>MOLECULE
ZINC03814681
   39    41     0     0     0
SMALL
USER_CHARGES

@<TRIPOS>ATOM
      1 C1          3.2663    3.5682    6.0832 C.3       1 <0>        -0.1156
      2 C2          1.7594    3.5809    6.0931 C.ar      1 <0>        -0.1252
      3 C3          1.0716    4.6186    6.7070 C.ar      1 <0>        -0.0751
      4 C4         -0.3118    4.5932    6.6937 C.ar      1 <0>        -0.1486
      5 C5         -0.9637    3.5318    6.0673 C.ar      1 <0>         0.1461
      6 N1         -0.2685    2.5563    5.4960 N.ar      1 <0>        -0.4543
      7 C6          1.0492    2.5594    5.4903 C.ar      1 <0>         0.1041
      8 C7         -2.4446    3.4895    6.0446 C.ar      1 <0>        -0.0024
      9 C8         -3.1686    3.7050    7.2146 C.ar      1 <0>        -0.1064
     10 C9         -4.5492    3.6586    7.1909 C.ar      1 <0>         0.0790
     11 C10        -5.2217    3.4037    6.0024 C.ar      1 <0>         0.0806
     12 C11        -4.5160    3.1932    4.8331 C.ar      1 <0>        -0.1098
     13 C12        -3.1246    3.2366    4.8424 C.ar      1 <0>        -0.0142
     14 C13        -2.3642    3.0108    3.5902 C.ar      1 <0>         0.0284
     15 C14        -2.5561    1.8412    2.8562 C.ar      1 <0>        -0.1168
     16 C15        -1.8451    1.6363    1.6914 C.ar      1 <0>        -0.0123
     17 C16        -0.9436    2.5889    1.2516 C.ar      1 <0>        -0.6766
     18 C17        -0.7450    3.7490    1.9785 C.ar      1 <0>        -0.0197
     19 C18        -1.4539    3.9671    3.1422 C.ar      1 <0>        -0.1189
     20 S1         -0.0393    2.3202   -0.2366 S.o2      1 <0>         2.7012
     21 O1          0.0006    0.9143   -0.4395 O.2       1 <0>        -0.9580
     22 O2          1.1382    3.1103   -0.1446 O.2       1 <0>        -0.9575
     23 N2         -0.9374    2.9520   -1.4762 N.pl3     1 <0>        -1.2446
     24 F1         -6.5720    3.3609    5.9897 F         1 <0>        -0.1212
     25 F2         -5.2485    3.8626    8.3287 F         1 <0>        -0.1212
     26 H1          3.6310    3.0425    6.9657 H         1 <0>         0.0768
     27 H2          3.6195    3.0602    5.1859 H         1 <0>         0.0741
     28 H3          3.6383    4.5927    6.0910 H         1 <0>         0.0716
     29 H4          1.6043    5.4279    7.1841 H         1 <0>         0.1394
     30 H5         -0.8785    5.3843    7.1621 H         1 <0>         0.1383
     31 H6          1.5816    1.7506    5.0119 H         1 <0>         0.1591
     32 H7         -2.6508    3.9040    8.1412 H         1 <0>         0.1541
     33 H8         -5.0439    2.9954    3.9119 H         1 <0>         0.1549
     34 H9         -3.2597    1.0968    3.1987 H         1 <0>         0.1359
     35 H10        -1.9929    0.7306    1.1220 H         1 <0>         0.1442
     36 H11        -0.0366    4.4872    1.6325 H         1 <0>         0.1412
     37 H12        -1.3009    4.8748    3.7069 H         1 <0>         0.1277
     38 H13        -1.2366    2.3789   -2.1994 H         1 <0>         0.4228
     39 H14        -1.1644    3.8950   -1.4790 H         1 <0>         0.4188
@<TRIPOS>BOND
     1    1    2 1
     2    1   26 1
     3    1   27 1
     4    1   28 1
     5    2    7 ar
     6    2    3 ar
     7    3    4 ar
     8    3   29 1
     9    4    5 ar
    10    4   30 1
    11    5    6 ar
    12    5    8 1
    13    6    7 ar
    14    7   31 1
    15    8   13 ar
    16    8    9 ar
    17    9   10 ar
    18    9   32 1
    19   10   11 ar
    20   10   25 1
    21   11   12 ar
    22   11   24 1
    23   12   13 ar
    24   12   33 1
    25   13   14 1
    26   14   19 ar
    27   14   15 ar
    28   15   16 ar
    29   15   34 1
    30   16   17 ar
    31   16   35 1
    32   17   18 ar
    33   17   20 1
    34   18   19 ar
    35   18   36 1
    36   19   37 1
    37   20   21 2
    38   20   22 2
    39   20   23 1
    40   23   38 1
    41   23   39 1
@<TRIPOS>MOLECULE
ZINC03814682
   39    41     0     0     0
SMALL
USER_CHARGES

@<TRIPOS>ATOM
      1 C1          3.2430    4.0425    5.8848 C.3       1 <0>        -0.1106
      2 C2          1.7394    3.9482    5.9242 C.ar      1 <0>         0.1399
      3 C3          0.9982    5.0499    6.3118 C.ar      1 <0>        -0.1700
      4 C4         -0.3825    4.9607    6.3415 C.ar      1 <0>        -0.0545
      5 C5         -0.9762    3.7456    5.9856 C.ar      1 <0>        -0.1217
      6 C6         -0.1592    2.6819    5.6066 C.ar      1 <0>         0.1349
      7 N1          1.1511    2.8164    5.5890 N.ar      1 <0>        -0.4775
      8 C7         -2.4506    3.5933    6.0051 C.ar      1 <0>        -0.0020
      9 C8         -3.1780    3.9724    7.1301 C.ar      1 <0>        -0.1118
     10 C9         -4.5522    3.8287    7.1450 C.ar      1 <0>         0.0831
     11 C10        -5.2143    3.3071    6.0410 C.ar      1 <0>         0.0753
     12 C11        -4.5053    2.9314    4.9161 C.ar      1 <0>        -0.1036
     13 C12        -3.1197    3.0658    4.8895 C.ar      1 <0>        -0.0323
     14 C13        -2.3553    2.6595    3.6863 C.ar      1 <0>         0.0092
     15 C14        -2.5607    1.4032    3.1179 C.ar      1 <0>        -0.1260
     16 C15        -1.8458    1.0302    1.9981 C.ar      1 <0>        -0.0126
     17 C16        -0.9267    1.9002    1.4394 C.ar      1 <0>        -0.6690
     18 C17        -0.7149    3.1461    2.0020 C.ar      1 <0>        -0.0123
     19 C18        -1.4278    3.5321    3.1188 C.ar      1 <0>        -0.1176
     20 S1         -0.0172    1.4168    0.0098 S.o2      1 <0>         2.6996
     21 O1          0.0021   -0.0041    0.0020 O.2       1 <0>        -0.9599
     22 O2          1.1718    2.1948    0.0027 O.2       1 <0>        -0.9599
     23 N2         -0.8975    1.8855   -1.3122 N.pl3     1 <0>        -1.2498
     24 F1         -6.5583    3.1714    6.0652 F         1 <0>        -0.1214
     25 F2         -5.2550    4.1975    8.2383 F         1 <0>        -0.1210
     26 H1          3.5602    4.3784    4.8976 H         1 <0>         0.0834
     27 H2          3.5822    4.7546    6.6372 H         1 <0>         0.0775
     28 H3          3.6740    3.0629    6.0912 H         1 <0>         0.0805
     29 H4          1.4916    5.9713    6.5840 H         1 <0>         0.1408
     30 H5         -0.9860    5.8066    6.6359 H         1 <0>         0.1393
     31 H6         -0.6043    1.7390    5.3253 H         1 <0>         0.1539
     32 H7         -2.6682    4.3791    7.9910 H         1 <0>         0.1536
     33 H8         -5.0255    2.5300    4.0589 H         1 <0>         0.1550
     34 H9         -3.2777    0.7230    3.5535 H         1 <0>         0.1406
     35 H10        -2.0038    0.0571    1.5571 H         1 <0>         0.1490
     36 H11         0.0071    3.8194    1.5642 H         1 <0>         0.1454
     37 H12        -1.2643    4.5064    3.5550 H         1 <0>         0.1337
     38 H13        -1.7474    2.3376   -1.1935 H         1 <0>         0.4168
     39 H14        -0.5632    1.7079   -2.2053 H         1 <0>         0.4222
@<TRIPOS>BOND
     1    1    2 1
     2    1   26 1
     3    1   27 1
     4    1   28 1
     5    2    7 ar
     6    2    3 ar
     7    3    4 ar
     8    3   29 1
     9    4    5 ar
    10    4   30 1
    11    5    6 ar
    12    5    8 1
    13    6    7 ar
    14    6   31 1
    15    8   13 ar
    16    8    9 ar
    17    9   10 ar
    18    9   32 1
    19   10   11 ar
    20   10   25 1
    21   11   12 ar
    22   11   24 1
    23   12   13 ar
    24   12   33 1
    25   13   14 1
    26   14   19 ar
    27   14   15 ar
    28   15   16 ar
    29   15   34 1
    30   16   17 ar
    31   16   35 1
    32   17   18 ar
    33   17   20 1
    34   18   19 ar
    35   18   36 1
    36   19   37 1
    37   20   21 2
    38   20   22 2
    39   20   23 1
    40   23   38 1
    41   23   39 1
@<TRIPOS>MOLECULE
ZINC03814683
   41    44     0     0     0
SMALL
USER_CHARGES

@<TRIPOS>ATOM
      1 C1          6.1761   -2.5360   -1.1967 C.3       1 <0>        -0.6506
      2 S1          6.4346   -1.1421   -0.0649 S.o2      1 <0>         2.4977
      3 O1          7.3577   -0.2197   -0.6274 O.2       1 <0>        -0.9354
      4 O2          6.6025   -1.6155    1.2643 O.2       1 <0>        -0.9364
      5 C2          4.8963   -0.2833   -0.0454 C.ar      1 <0>        -0.6571
      6 C3          3.9278   -0.6256    0.8812 C.ar      1 <0>        -0.0204
      7 C4          2.7209    0.0432    0.9010 C.ar      1 <0>        -0.1282
      8 C5          2.4785    1.0657   -0.0154 C.ar      1 <0>         0.0137
      9 C6          3.4564    1.4026   -0.9504 C.ar      1 <0>        -0.1155
     10 C7          4.6615    0.7303   -0.9571 C.ar      1 <0>        -0.0205
     11 C8          1.1841    1.7874    0.0004 C.ar      1 <0>        -0.0403
     12 C9         -0.0126    1.0758    0.0080 C.ar      1 <0>        -0.0805
     13 C10        -1.2205    1.7503    0.0174 C.ar      1 <0>         0.0391
     14 C11        -1.2443    3.1459    0.0304 C.ar      1 <0>         0.0457
     15 C12        -0.0600    3.8613    0.0234 C.ar      1 <0>        -0.0867
     16 C13         1.1602    3.1910    0.0081 C.ar      1 <0>        -0.0153
     17 C14         2.4293    3.9566   -0.0004 C.ar      1 <0>        -0.0630
     18 C15         3.4355    3.6527    0.9158 C.ar      1 <0>        -0.0655
     19 C16         4.6175    4.3639    0.8999 C.ar      1 <0>        -0.1501
     20 C17         4.8007    5.3870   -0.0164 C.ar      1 <0>         0.1091
     21 C18         3.8014    5.6964   -0.9250 C.ar      1 <0>        -0.1519
     22 C19         2.6185    4.9867   -0.9208 C.ar      1 <0>        -0.0748
     23 F1          5.9575    6.0848   -0.0242 F         1 <0>        -0.1356
     24 O3         -2.5458    3.5585    0.0438 O.3       1 <0>        -0.3047
     25 C20        -3.3091    2.4103    0.4578 C.3       1 <0>         0.2126
     26 O4         -2.5073    1.2934    0.0312 O.3       1 <0>        -0.3053
     27 H1          5.9128   -2.1579   -2.1845 H         1 <0>         0.1318
     28 H2          7.0917   -3.1235   -1.2646 H         1 <0>         0.1336
     29 H3          5.3684   -3.1641   -0.8209 H         1 <0>         0.1318
     30 H4          4.1166   -1.4180    1.5903 H         1 <0>         0.1456
     31 H5          1.9654   -0.2251    1.6246 H         1 <0>         0.1368
     32 H6          3.2725    2.1908   -1.6655 H         1 <0>         0.1347
     33 H7          5.4213    0.9932   -1.6783 H         1 <0>         0.1444
     34 H8          0.0021   -0.0041    0.0020 H         1 <0>         0.1429
     35 H9         -0.0821    4.9410    0.0294 H         1 <0>         0.1438
     36 H10         3.2915    2.8589    1.6337 H         1 <0>         0.1330
     37 H11         5.3992    4.1263    1.6062 H         1 <0>         0.1396
     38 H12         3.9487    6.4947   -1.6373 H         1 <0>         0.1402
     39 H13         1.8400    5.2287   -1.6292 H         1 <0>         0.1370
     40 H14        -3.4316    2.4022    1.5409 H         1 <0>         0.0887
     41 H15        -4.2796    2.3966   -0.0383 H         1 <0>         0.1361
@<TRIPOS>BOND
     1    1    2 1
     2    1   27 1
     3    1   28 1
     4    1   29 1
     5    2    3 2
     6    2    4 2
     7    2    5 1
     8    5   10 ar
     9    5    6 ar
    10    6    7 ar
    11    6   30 1
    12    7    8 ar
    13    7   31 1
    14    8    9 ar
    15    8   11 1
    16    9   10 ar
    17    9   32 1
    18   10   33 1
    19   11   16 ar
    20   11   12 ar
    21   12   13 ar
    22   12   34 1
    23   13   26 1
    24   13   14 ar
    25   14   15 ar
    26   14   24 1
    27   15   16 ar
    28   15   35 1
    29   16   17 1
    30   17   22 ar
    31   17   18 ar
    32   18   19 ar
    33   18   36 1
    34   19   20 ar
    35   19   37 1
    36   20   21 ar
    37   20   23 1
    38   21   22 ar
    39   21   38 1
    40   22   39 1
    41   24   25 1
    42   25   26 1
    43   25   40 1
    44   25   41 1
@<TRIPOS>MOLECULE
ZINC03814684
   38    40     0     0     0
SMALL
USER_CHARGES

@<TRIPOS>ATOM
      1 C1         -0.1496    3.5711    5.4104 C.ar      1 <0>        -0.0933
      2 C2          1.1426    4.0264    5.5715 C.ar      1 <0>        -0.1052
      3 C3          1.3993    5.1142    6.3888 C.ar      1 <0>        -0.0207
      4 C4          0.3615    5.7543    7.0449 C.ar      1 <0>        -0.1068
      5 C5         -0.9353    5.3112    6.8871 C.ar      1 <0>        -0.0724
      6 C6         -1.2002    4.2157    6.0645 C.ar      1 <0>        -0.0422
      7 C7         -2.5886    3.7358    5.8912 C.2       1 <0>         0.1335
      8 C8         -3.6140    3.8835    6.7825 C.2       1 <0>        -0.2228
      9 C9         -4.7477    3.2832    6.2338 C.2       1 <0>         0.0812
     10 N1         -4.4360    2.7951    5.0595 N.2       1 <0>        -0.2595
     11 N2         -3.0845    3.0653    4.8097 N.pl3     1 <0>        -0.3293
     12 C10        -2.3687    2.7070    3.6601 C.ar      1 <0>         0.2037
     13 C11        -2.4966    1.4296    3.1308 C.ar      1 <0>        -0.1270
     14 C12        -1.7893    1.0793    1.9975 C.ar      1 <0>         0.0015
     15 C13        -0.9547    1.9992    1.3896 C.ar      1 <0>        -0.6806
     16 C14        -0.8209    3.2703    1.9175 C.ar      1 <0>        -0.0049
     17 C15        -1.5295    3.6284    3.0476 C.ar      1 <0>        -0.1384
     18 S1         -0.0544    1.5485   -0.0564 S.o2      1 <0>         2.7039
     19 O1          0.0707    0.1333   -0.0323 O.2       1 <0>        -0.9544
     20 O2          1.0724    2.4120   -0.1188 O.2       1 <0>        -0.9520
     21 N3         -1.0061    1.9174   -1.3605 N.pl3     1 <0>        -1.2428
     22 C16        -6.1051    3.2092    6.8843 C.3       1 <0>         0.0609
     23 C17        -7.1154    3.7781    5.9774 C.1       1 <0>         0.2048
     24 N4         -7.8951    4.2171    5.2775 N.1       1 <0>        -0.4174
     25 Cl1         3.0288    5.6775    6.5921 Cl        1 <0>        -0.0575
     26 H1         -0.3483    2.7200    4.7759 H         1 <0>         0.1331
     27 H2          1.9560    3.5310    5.0622 H         1 <0>         0.1418
     28 H3          0.5677    6.6019    7.6817 H         1 <0>         0.1433
     29 H4         -1.7440    5.8109    7.3996 H         1 <0>         0.1429
     30 H5         -3.5560    4.3738    7.7430 H         1 <0>         0.1668
     31 H6         -3.1482    0.7107    3.6051 H         1 <0>         0.1458
     32 H7         -1.8883    0.0859    1.5854 H         1 <0>         0.1541
     33 H8         -0.1647    3.9850    1.4432 H         1 <0>         0.1546
     34 H9         -1.4277    4.6226    3.4570 H         1 <0>         0.1422
     35 H10        -1.2781    1.2185   -1.9756 H         1 <0>         0.4241
     36 H11        -1.2916    2.8325   -1.5092 H         1 <0>         0.4199
     37 H12        -6.3508    2.1684    7.0950 H         1 <0>         0.1325
     38 H13        -6.0930    3.7754    7.8157 H         1 <0>         0.1366
@<TRIPOS>BOND
     1    1    6 ar
     2    1    2 ar
     3    1   26 1
     4    2    3 ar
     5    2   27 1
     6    3    4 ar
     7    3   25 1
     8    4    5 ar
     9    4   28 1
    10    5    6 ar
    11    5   29 1
    12    6    7 1
    13    7   11 1
    14    7    8 2
    15    8    9 1
    16    8   30 1
    17    9   10 2
    18    9   22 1
    19   10   11 1
    20   11   12 1
    21   12   17 ar
    22   12   13 ar
    23   13   14 ar
    24   13   31 1
    25   14   15 ar
    26   14   32 1
    27   15   16 ar
    28   15   18 1
    29   16   17 ar
    30   16   33 1
    31   17   34 1
    32   18   19 2
    33   18   20 2
    34   18   21 1
    35   21   35 1
    36   21   36 1
    37   22   23 1
    38   22   37 1
    39   22   38 1
    40   23   24 3
@<TRIPOS>MOLECULE
ZINC03814685
   44    46     0     0     0
SMALL
USER_CHARGES

@<TRIPOS>ATOM
      1 C1          4.7352   -3.9198   -0.6538 C.3       1 <0>        -0.1196
      2 C2          3.2837   -3.5146   -0.6488 C.ar      1 <0>        -0.0624
      3 C3          2.9369   -2.1993   -0.4284 C.ar      1 <0>        -0.0636
      4 C4          1.5922   -1.8246   -0.4243 C.ar      1 <0>        -0.0553
      5 C5          0.6018   -2.7853   -0.6385 C.ar      1 <0>        -0.0876
      6 C6          0.9542   -4.0978   -0.8636 C.ar      1 <0>        -0.1262
      7 C7          2.2953   -4.4686   -0.8671 C.ar      1 <0>        -0.0693
      8 S1          2.7422   -6.1496   -1.1480 S.3       1 <0>        -0.0923
      9 C8          1.1530   -6.9942   -1.3751 C.3       1 <0>        -0.1555
     10 C9          1.2171   -0.4141   -0.1876 C.2       1 <0>         0.1498
     11 C10         1.9876    0.6843   -0.4493 C.2       1 <0>        -0.2027
     12 C11         1.2590    1.8157   -0.0808 C.2       1 <0>        -0.0034
     13 N1          0.0969    1.4319    0.3849 N.2       1 <0>        -0.2170
     14 N2          0.0361    0.0335    0.3324 N.pl3     1 <0>        -0.3177
     15 C12        -1.0422   -0.7627    0.7393 C.ar      1 <0>         0.1987
     16 C13        -2.3377   -0.4165    0.3786 C.ar      1 <0>        -0.1236
     17 C14        -3.3984   -1.2060    0.7776 C.ar      1 <0>         0.0032
     18 C15        -3.1722   -2.3348    1.5437 C.ar      1 <0>        -0.6746
     19 C16        -1.8838   -2.6793    1.9090 C.ar      1 <0>        -0.0046
     20 C17        -0.8184   -1.8966    1.5090 C.ar      1 <0>        -0.1317
     21 S2         -4.5287   -3.3359    2.0560 S.o2      1 <0>         2.7033
     22 O1         -5.5789   -3.1027    1.1276 O.2       1 <0>        -0.9566
     23 O2         -4.0050   -4.6335    2.3037 O.2       1 <0>        -0.9547
     24 N3         -5.0474   -2.7484    3.5148 N.pl3     1 <0>        -1.2462
     25 C18         1.7307    3.2420   -0.1994 C.3       1 <0>         0.5574
     26 F1          0.7811    4.0963    0.3713 F         1 <0>        -0.1635
     27 F2          2.9505    3.3870    0.4701 F         1 <0>        -0.1620
     28 F3          1.8984    3.5669   -1.5498 F         1 <0>        -0.1623
     29 H1          5.0379   -4.1992    0.3553 H         1 <0>         0.0799
     30 H2          4.8730   -4.7692   -1.3228 H         1 <0>         0.0762
     31 H3          5.3446   -3.0839   -0.9976 H         1 <0>         0.0758
     32 H4          3.7048   -1.4589   -0.2593 H         1 <0>         0.1391
     33 H5         -0.4395   -2.4988   -0.6314 H         1 <0>         0.1273
     34 H6          0.1887   -4.8405   -1.0333 H         1 <0>         0.1322
     35 H7          1.3278   -8.0545   -1.5574 H         1 <0>         0.1131
     36 H8          0.5466   -6.8750   -0.4772 H         1 <0>         0.0872
     37 H9          0.6296   -6.5605   -2.2272 H         1 <0>         0.0857
     38 H10         2.9836    0.6776   -0.8668 H         1 <0>         0.1729
     39 H11        -2.5154    0.4672   -0.2163 H         1 <0>         0.1479
     40 H12        -4.4059   -0.9395    0.4940 H         1 <0>         0.1573
     41 H13        -1.7104   -3.5611    2.5079 H         1 <0>         0.1570
     42 H14         0.1876   -2.1660    1.7949 H         1 <0>         0.1457
     43 H15        -5.9804   -2.8308    3.7668 H         1 <0>         0.4242
     44 H16        -4.4181   -2.3219    4.1173 H         1 <0>         0.4184
@<TRIPOS>BOND
     1    1    2 1
     2    1   29 1
     3    1   30 1
     4    1   31 1
     5    2    7 ar
     6    2    3 ar
     7    3    4 ar
     8    3   32 1
     9    4    5 ar
    10    4   10 1
    11    5    6 ar
    12    5   33 1
    13    6    7 ar
    14    6   34 1
    15    7    8 1
    16    8    9 1
    17    9   35 1
    18    9   36 1
    19    9   37 1
    20   10   14 1
    21   10   11 2
    22   11   12 1
    23   11   38 1
    24   12   13 2
    25   12   25 1
    26   13   14 1
    27   14   15 1
    28   15   20 ar
    29   15   16 ar
    30   16   17 ar
    31   16   39 1
    32   17   18 ar
    33   17   40 1
    34   18   19 ar
    35   18   21 1
    36   19   20 ar
    37   19   41 1
    38   20   42 1
    39   21   22 2
    40   21   23 2
    41   21   24 1
    42   24   43 1
    43   24   44 1
    44   25   26 1
    45   25   27 1
    46   25   28 1
@<TRIPOS>MOLECULE
ZINC03814686
   45    47     0     0     0
SMALL
USER_CHARGES

@<TRIPOS>ATOM
      1 C1          3.5700    4.5125    7.1173 C.3       1 <0>         0.0254
      2 N1          2.7169    5.5652    6.5497 N.pl3     1 <0>        -0.5105
      3 C2          3.2649    6.0590    5.2793 C.3       1 <0>         0.0255
      4 C3          1.4049    5.1131    6.3871 C.ar      1 <0>         0.0734
      5 C4          1.1440    4.0217    5.5675 C.ar      1 <0>        -0.1151
      6 C5         -0.1487    3.5694    5.4094 C.ar      1 <0>        -0.1041
      7 C6         -1.1983    4.2150    6.0649 C.ar      1 <0>        -0.0223
      8 C7         -0.9349    5.3112    6.8879 C.ar      1 <0>        -0.1152
      9 C8          0.3615    5.7565    7.0469 C.ar      1 <0>         0.1318
     10 F1          0.6182    6.8170    7.8434 F         1 <0>        -0.1180
     11 C9         -2.5863    3.7346    5.8925 C.2       1 <0>         0.1417
     12 C10        -3.6112    3.8811    6.7850 C.2       1 <0>        -0.1956
     13 C11        -4.7452    3.2813    6.2364 C.2       1 <0>        -0.0043
     14 N2         -4.4344    2.7946    5.0613 N.2       1 <0>        -0.2120
     15 N3         -3.0831    3.0653    4.8106 N.pl3     1 <0>        -0.3143
     16 C12        -2.3683    2.7085    3.6599 C.ar      1 <0>         0.1940
     17 C13        -2.4967    1.4317    3.1292 C.ar      1 <0>        -0.1220
     18 C14        -1.7903    1.0827    1.9949 C.ar      1 <0>         0.0019
     19 C15        -0.9559    2.0033    1.3877 C.ar      1 <0>        -0.6765
     20 C16        -0.8220    3.2739    1.9168 C.ar      1 <0>        -0.0055
     21 C17        -1.5297    3.6306    3.0479 C.ar      1 <0>        -0.1321
     22 S1         -0.0560    1.5540   -0.0590 S.o2      1 <0>         2.7036
     23 O1          0.0691    0.1387   -0.0363 O.2       1 <0>        -0.9530
     24 O2          1.0708    2.4176   -0.1209 O.2       1 <0>        -0.9514
     25 N4         -1.0080    1.9242   -1.3625 N.pl3     1 <0>        -1.2420
     26 C18        -6.1018    3.2055    6.8882 C.3       1 <0>         0.5575
     27 F2         -6.9580    2.4342    6.0950 F         1 <0>        -0.1630
     28 F3         -5.9800    2.6169    8.1515 F         1 <0>        -0.1612
     29 F4         -6.6269    4.4952    7.0233 F         1 <0>        -0.1620
     30 H1          3.5774    3.6513    6.4492 H         1 <0>         0.0354
     31 H2          4.5855    4.8911    7.2334 H         1 <0>         0.0804
     32 H3          3.1800    4.2142    8.0904 H         1 <0>         0.0730
     33 H4          2.6531    6.8848    4.9163 H         1 <0>         0.0729
     34 H5          4.2869    6.4047    5.4344 H         1 <0>         0.0804
     35 H6          3.2612    5.2537    4.5447 H         1 <0>         0.0363
     36 H7          1.9555    3.5245    5.0569 H         1 <0>         0.1393
     37 H8         -0.3495    2.7183    4.7756 H         1 <0>         0.1321
     38 H9         -1.7446    5.8104    7.3993 H         1 <0>         0.1507
     39 H10        -3.5525    4.3703    7.7461 H         1 <0>         0.1748
     40 H11        -3.1479    0.7122    3.6032 H         1 <0>         0.1477
     41 H12        -1.8899    0.0900    1.5814 H         1 <0>         0.1564
     42 H13        -0.1664    3.9893    1.4426 H         1 <0>         0.1563
     43 H14        -1.4278    4.6244    3.4583 H         1 <0>         0.1448
     44 H15        -1.2801    1.2258   -1.9782 H         1 <0>         0.4247
     45 H16        -1.2936    2.8393   -1.5103 H         1 <0>         0.4202
@<TRIPOS>BOND
     1    1    2 1
     2    1   30 1
     3    1   31 1
     4    1   32 1
     5    2    3 1
     6    2    4 1
     7    3   33 1
     8    3   34 1
     9    3   35 1
    10    4    9 ar
    11    4    5 ar
    12    5    6 ar
    13    5   36 1
    14    6    7 ar
    15    6   37 1
    16    7    8 ar
    17    7   11 1
    18    8    9 ar
    19    8   38 1
    20    9   10 1
    21   11   15 1
    22   11   12 2
    23   12   13 1
    24   12   39 1
    25   13   14 2
    26   13   26 1
    27   14   15 1
    28   15   16 1
    29   16   21 ar
    30   16   17 ar
    31   17   18 ar
    32   17   40 1
    33   18   19 ar
    34   18   41 1
    35   19   20 ar
    36   19   22 1
    37   20   21 ar
    38   20   42 1
    39   21   43 1
    40   22   23 2
    41   22   24 2
    42   22   25 1
    43   25   44 1
    44   25   45 1
    45   26   27 1
    46   26   28 1
    47   26   29 1
@<TRIPOS>MOLECULE
ZINC03814687
   42    44     0     0     0
SMALL
USER_CHARGES

@<TRIPOS>ATOM
      1 C1          3.8139    4.8935    5.8543 C.3       1 <0>         0.0840
      2 N1          2.7145    5.5678    6.5492 N.pl3     1 <0>        -0.7372
      3 C2          1.4037    5.1147    6.3871 C.ar      1 <0>         0.2494
      4 C3          1.1435    4.0232    5.5664 C.ar      1 <0>        -0.1836
      5 C4         -0.1486    3.5705    5.4081 C.ar      1 <0>        -0.0439
      6 C5         -1.1983    4.2152    6.0647 C.ar      1 <0>        -0.1066
      7 C6         -0.9349    5.3106    6.8886 C.ar      1 <0>        -0.0199
      8 C7          0.3607    5.7560    7.0475 C.ar      1 <0>        -0.1165
      9 Cl1         0.6901    7.1183    8.0719 Cl        1 <0>        -0.0594
     10 C8         -2.5863    3.7346    5.8925 C.2       1 <0>         0.1618
     11 C9         -3.6107    3.8793    6.7859 C.2       1 <0>        -0.2108
     12 C10        -4.7449    3.2802    6.2370 C.2       1 <0>        -0.0021
     13 N2         -4.4345    2.7950    5.0611 N.2       1 <0>        -0.2207
     14 N3         -3.0833    3.0660    4.8103 N.pl3     1 <0>        -0.3190
     15 C11        -2.3688    2.7100    3.6592 C.ar      1 <0>         0.1981
     16 C12        -2.4971    1.4335    3.1277 C.ar      1 <0>        -0.1240
     17 C13        -1.7909    1.0854    1.9929 C.ar      1 <0>         0.0015
     18 C14        -0.9568    2.0064    1.3861 C.ar      1 <0>        -0.6781
     19 C15        -0.8229    3.2767    1.9160 C.ar      1 <0>        -0.0053
     20 C16        -1.5304    3.6326    3.0475 C.ar      1 <0>        -0.1327
     21 S1         -0.0572    1.5582   -0.0611 S.o2      1 <0>         2.7039
     22 O1          0.0681    0.1429   -0.0393 O.2       1 <0>        -0.9539
     23 O2          1.0695    2.4219   -0.1226 O.2       1 <0>        -0.9522
     24 N4         -1.0096    1.9291   -1.3641 N.pl3     1 <0>        -1.2425
     25 C17        -6.1013    3.2036    6.8892 C.3       1 <0>         0.5570
     26 F1         -6.9577    2.4333    6.0952 F         1 <0>        -0.1641
     27 F2         -5.9791    2.6134    8.1517 F         1 <0>        -0.1622
     28 F3         -6.6263    4.4931    7.0261 F         1 <0>        -0.1631
     29 H1          3.8555    3.8500    6.1668 H         1 <0>         0.0599
     30 H2          3.6490    4.9442    4.7781 H         1 <0>         0.0611
     31 H3          4.7553    5.3844    6.1012 H         1 <0>         0.0808
     32 H4          2.8972    6.3291    7.1218 H         1 <0>         0.4073
     33 H5          1.9553    3.5268    5.0555 H         1 <0>         0.1404
     34 H6         -0.3493    2.7201    4.7733 H         1 <0>         0.1296
     35 H7         -1.7446    5.8090    7.4008 H         1 <0>         0.1432
     36 H8         -3.5516    4.3672    7.7476 H         1 <0>         0.1714
     37 H9         -3.1481    0.7136    3.6013 H         1 <0>         0.1469
     38 H10        -1.8906    0.0929    1.5788 H         1 <0>         0.1553
     39 H11        -0.1675    3.9925    1.4422 H         1 <0>         0.1556
     40 H12        -1.4285    4.6261    3.4585 H         1 <0>         0.1458
     41 H13        -1.2818    1.2310   -1.9802 H         1 <0>         0.4244
     42 H14        -1.2953    2.8443   -1.5112 H         1 <0>         0.4201
@<TRIPOS>BOND
     1    1    2 1
     2    1   29 1
     3    1   30 1
     4    1   31 1
     5    2    3 1
     6    2   32 1
     7    3    8 ar
     8    3    4 ar
     9    4    5 ar
    10    4   33 1
    11    5    6 ar
    12    5   34 1
    13    6    7 ar
    14    6   10 1
    15    7    8 ar
    16    7   35 1
    17    8    9 1
    18   10   14 1
    19   10   11 2
    20   11   12 1
    21   11   36 1
    22   12   13 2
    23   12   25 1
    24   13   14 1
    25   14   15 1
    26   15   20 ar
    27   15   16 ar
    28   16   17 ar
    29   16   37 1
    30   17   18 ar
    31   17   38 1
    32   18   19 ar
    33   18   21 1
    34   19   20 ar
    35   19   39 1
    36   20   40 1
    37   21   22 2
    38   21   23 2
    39   21   24 1
    40   24   41 1
    41   24   42 1
    42   25   26 1
    43   25   27 1
    44   25   28 1
@<TRIPOS>MOLECULE
ZINC03814688
   44    46     0     0     0
SMALL
USER_CHARGES

@<TRIPOS>ATOM
      1 C1          2.2744    3.3566    4.8422 C.3       1 <0>        -0.1193
      2 C2          1.1400    4.0437    5.5578 C.ar      1 <0>        -0.0817
      3 C3         -0.1510    3.5843    5.4025 C.ar      1 <0>        -0.0891
      4 C4         -1.2019    4.2252    6.0596 C.ar      1 <0>        -0.0392
      5 C5         -0.9407    5.3222    6.8822 C.ar      1 <0>        -0.0693
      6 C6          0.3539    5.7720    7.0381 C.ar      1 <0>        -0.0505
      7 C7          1.3969    5.1344    6.3768 C.ar      1 <0>         0.1243
      8 O1          2.6712    5.5803    6.5320 O.3       1 <0>        -0.3244
      9 C8          3.4319    5.0117    7.5998 C.3       1 <0>         0.0342
     10 Cl1         0.6808    7.1362    8.0608 Cl        1 <0>        -0.0403
     11 C9         -2.5886    3.7397    5.8896 C.2       1 <0>         0.1442
     12 C10        -3.6116    3.8796    6.7851 C.2       1 <0>        -0.1970
     13 C11        -4.7462    3.2819    6.2355 C.2       1 <0>        -0.0034
     14 N1         -4.4374    2.8025    5.0568 N.2       1 <0>        -0.2123
     15 N2         -3.0846    3.0682    4.8087 N.pl3     1 <0>        -0.3150
     16 C12        -2.3705    2.7143    3.6567 C.ar      1 <0>         0.1963
     17 C13        -2.4940    1.4367    3.1267 C.ar      1 <0>        -0.1222
     18 C14        -1.7883    1.0907    1.9911 C.ar      1 <0>         0.0021
     19 C15        -0.9598    2.0150    1.3816 C.ar      1 <0>        -0.6723
     20 C16        -0.8307    3.2864    1.9100 C.ar      1 <0>         0.0001
     21 C17        -1.5374    3.6401    3.0427 C.ar      1 <0>        -0.1332
     22 S1         -0.0612    1.5696   -0.0671 S.o2      1 <0>         2.7023
     23 O2          0.0708    0.1549   -0.0443 O.2       1 <0>        -0.9565
     24 O3          1.0613    2.4385   -0.1319 O.2       1 <0>        -0.9557
     25 N3         -1.0181    1.9347   -1.3684 N.pl3     1 <0>        -1.2485
     26 C18        -6.1028    3.2060    6.8872 C.3       1 <0>         0.5581
     27 F1         -6.8557    4.3295    6.5293 F         1 <0>        -0.1632
     28 F2         -6.7613    2.0480    6.4601 F         1 <0>        -0.1634
     29 F3         -5.9509    3.1701    8.2775 F         1 <0>        -0.1603
     30 H1          2.6713    2.5599    5.4713 H         1 <0>         0.0773
     31 H2          1.9100    2.9330    3.9062 H         1 <0>         0.0752
     32 H3          3.0622    4.0798    4.6314 H         1 <0>         0.0839
     33 H4         -0.3491    2.7323    4.7690 H         1 <0>         0.1361
     34 H5         -1.7509    5.8178    7.3963 H         1 <0>         0.1489
     35 H6          4.4281    5.4539    7.6118 H         1 <0>         0.1023
     36 H7          2.9336    5.2129    8.5481 H         1 <0>         0.0514
     37 H8          3.5142    3.9347    7.4539 H         1 <0>         0.0508
     38 H9         -3.5521    4.3661    7.7475 H         1 <0>         0.1751
     39 H10        -3.1409    0.7144    3.6023 H         1 <0>         0.1488
     40 H11        -1.8839    0.0972    1.5784 H         1 <0>         0.1585
     41 H12        -0.1794    4.0047    1.4342 H         1 <0>         0.1590
     42 H13        -1.4391    4.6344    3.4527 H         1 <0>         0.1460
     43 H14        -1.8971    2.3213   -1.2308 H         1 <0>         0.4180
     44 H15        -0.6996    1.7620   -2.2682 H         1 <0>         0.4238
@<TRIPOS>BOND
     1    1    2 1
     2    1   30 1
     3    1   31 1
     4    1   32 1
     5    2    7 ar
     6    2    3 ar
     7    3    4 ar
     8    3   33 1
     9    4    5 ar
    10    4   11 1
    11    5    6 ar
    12    5   34 1
    13    6    7 ar
    14    6   10 1
    15    7    8 1
    16    8    9 1
    17    9   35 1
    18    9   36 1
    19    9   37 1
    20   11   15 1
    21   11   12 2
    22   12   13 1
    23   12   38 1
    24   13   14 2
    25   13   26 1
    26   14   15 1
    27   15   16 1
    28   16   21 ar
    29   16   17 ar
    30   17   18 ar
    31   17   39 1
    32   18   19 ar
    33   18   40 1
    34   19   20 ar
    35   19   22 1
    36   20   21 ar
    37   20   41 1
    38   21   42 1
    39   22   23 2
    40   22   24 2
    41   22   25 1
    42   25   43 1
    43   25   44 1
    44   26   27 1
    45   26   28 1
    46   26   29 1
@<TRIPOS>MOLECULE
ZINC03814689
   37    39     0     0     0
SMALL
USER_CHARGES

@<TRIPOS>ATOM
      1 C1         -3.2007    1.7061   -0.5771 C.ar      1 <0>        -0.1354
      2 C2         -3.4868    0.3549   -0.5809 C.ar      1 <0>         0.0005
      3 C3         -4.6405   -0.1107    0.0227 C.ar      1 <0>        -0.6716
      4 C4         -5.5088    0.7737    0.6361 C.ar      1 <0>         0.0029
      5 C5         -5.2256    2.1254    0.6479 C.ar      1 <0>        -0.1216
      6 C6         -4.0677    2.5961    0.0430 C.ar      1 <0>         0.1946
      7 N1         -3.7776    3.9665    0.0534 N.pl3     1 <0>        -0.3138
      8 C7         -2.5673    4.5318    0.3376 C.2       1 <0>         0.1389
      9 C8         -2.7165    5.8860    0.2302 C.2       1 <0>        -0.1930
     10 C9         -4.0422    6.1441   -0.1198 C.2       1 <0>        -0.0035
     11 N2         -4.6775    5.0038   -0.2228 N.2       1 <0>        -0.2097
     12 C10        -4.6430    7.5082   -0.3420 C.3       1 <0>         0.5580
     13 F1         -4.5044    7.8653   -1.6875 F         1 <0>        -0.1629
     14 F2         -6.0003    7.4806   -0.0042 F         1 <0>        -0.1630
     15 F3         -3.9819    8.4451    0.4596 F         1 <0>        -0.1599
     16 C11        -1.3242    3.8117    0.6899 C.ar      1 <0>        -0.0311
     17 C12        -1.3897    2.5493    1.2812 C.ar      1 <0>        -0.0895
     18 C13        -0.2275    1.8818    1.6074 C.ar      1 <0>        -0.0911
     19 C14         1.0031    2.4615    1.3494 C.ar      1 <0>        -0.0156
     20 C15         1.0750    3.7148    0.7630 C.ar      1 <0>        -0.0295
     21 C16        -0.0821    4.3943    0.4371 C.ar      1 <0>        -0.0641
     22 Cl1         2.6220    4.4350    0.4440 Cl        1 <0>        -0.0310
     23 Cl2         2.4614    1.6153    1.7628 Cl        1 <0>        -0.0320
     24 S1         -5.0053   -1.8345    0.0098 S.o2      1 <0>         2.7027
     25 O1         -3.7659   -2.5108   -0.1508 O.2       1 <0>        -0.9558
     26 O2         -5.8673   -2.0755    1.1135 O.2       1 <0>        -0.9560
     27 N3         -5.8903   -2.1375   -1.3568 N.pl3     1 <0>        -1.2484
     28 H1         -2.3017    2.0696   -1.0525 H         1 <0>         0.1460
     29 H2         -2.8107   -0.3383   -1.0592 H         1 <0>         0.1595
     30 H3         -6.4094    0.4070    1.1060 H         1 <0>         0.1591
     31 H4         -5.9043    2.8157    1.1268 H         1 <0>         0.1494
     32 H5         -1.9451    6.6252    0.3883 H         1 <0>         0.1762
     33 H6         -2.3488    2.0956    1.4827 H         1 <0>         0.1409
     34 H7         -0.2776    0.9049    2.0653 H         1 <0>         0.1538
     35 H8         -0.0255    5.3729   -0.0162 H         1 <0>         0.1541
     36 H9         -6.1063   -1.4135   -1.9651 H         1 <0>         0.4178
     37 H10        -6.1926   -3.0389   -1.5490 H         1 <0>         0.4239
@<TRIPOS>BOND
     1    1    6 ar
     2    1    2 ar
     3    1   28 1
     4    2    3 ar
     5    2   29 1
     6    3    4 ar
     7    3   24 1
     8    4    5 ar
     9    4   30 1
    10    5    6 ar
    11    5   31 1
    12    6    7 1
    13    7   11 1
    14    7    8 1
    15    8    9 2
    16    8   16 1
    17    9   10 1
    18    9   32 1
    19   10   11 2
    20   10   12 1
    21   12   13 1
    22   12   14 1
    23   12   15 1
    24   16   21 ar
    25   16   17 ar
    26   17   18 ar
    27   17   33 1
    28   18   19 ar
    29   18   34 1
    30   19   20 ar
    31   19   23 1
    32   20   21 ar
    33   20   22 1
    34   21   35 1
    35   24   25 2
    36   24   26 2
    37   24   27 1
    38   27   36 1
    39   27   37 1
@<TRIPOS>MOLECULE
ZINC03814690
   37    39     0     0     0
SMALL
USER_CHARGES

@<TRIPOS>ATOM
      1 C1          0.3171    5.8578   -0.8292 C.ar      1 <0>        -0.1357
      2 C2         -0.7157    6.7694   -0.9291 C.ar      1 <0>         0.0045
      3 C3         -0.5661    8.0449   -0.4163 C.ar      1 <0>        -0.6733
      4 C4          0.6152    8.4101    0.2029 C.ar      1 <0>         0.0031
      5 C5          1.6496    7.5014    0.3111 C.ar      1 <0>        -0.1236
      6 C6          1.5024    6.2197   -0.2028 C.ar      1 <0>         0.1996
      7 N1          2.5497    5.2957   -0.0947 N.pl3     1 <0>        -0.3095
      8 C7          2.4293    3.9769    0.2391 C.2       1 <0>         0.1324
      9 C8          3.6852    3.4381    0.2247 C.2       1 <0>        -0.1816
     10 C9          4.5814    4.4509   -0.1186 C.2       1 <0>        -0.0046
     11 N2          3.9091    5.5588   -0.3062 N.2       1 <0>        -0.2100
     12 C10         6.0745    4.2957   -0.2508 C.3       1 <0>         0.5578
     13 F1          6.3920    3.9434   -1.5670 F         1 <0>        -0.1630
     14 F2          6.6995    5.5051    0.0718 F         1 <0>        -0.1631
     15 F3          6.5183    3.2946    0.6199 F         1 <0>        -0.1600
     16 C11         1.1723    3.2627    0.5518 C.ar      1 <0>        -0.0383
     17 C12         0.2737    3.7979    1.4755 C.ar      1 <0>        -0.0686
     18 C13        -0.8967    3.1273    1.7635 C.ar      1 <0>        -0.0997
     19 C14        -1.1842    1.9276    1.1340 C.ar      1 <0>        -0.0074
     20 C15        -0.2946    1.3881    0.2209 C.ar      1 <0>        -0.0988
     21 C16         0.8804    2.0501   -0.0758 C.ar      1 <0>         0.0012
     22 Cl1         1.9923    1.3759   -1.2260 Cl        1 <0>        -0.0336
     23 Cl2        -2.6628    1.0935    1.4968 Cl        1 <0>        -0.0403
     24 S1         -1.8831    9.2074   -0.5528 S.o2      1 <0>         2.7027
     25 O1         -3.0791    8.4520   -0.6886 O.2       1 <0>        -0.9565
     26 O2         -1.6959   10.1572    0.4874 O.2       1 <0>        -0.9566
     27 N3         -1.6724   10.0207   -1.9799 N.pl3     1 <0>        -1.2486
     28 H1          0.2014    4.8633   -1.2341 H         1 <0>         0.1421
     29 H2         -1.6396    6.4870   -1.4119 H         1 <0>         0.1578
     30 H3          0.7291    9.4072    0.6021 H         1 <0>         0.1582
     31 H4          2.5720    7.7873    0.7946 H         1 <0>         0.1490
     32 H5          3.9389    2.4108    0.4405 H         1 <0>         0.1739
     33 H6          0.4944    4.7353    1.9642 H         1 <0>         0.1425
     34 H7         -1.5926    3.5409    2.4783 H         1 <0>         0.1510
     35 H8         -0.5221    0.4501   -0.2636 H         1 <0>         0.1553
     36 H9         -0.9203    9.8064   -2.5538 H         1 <0>         0.4178
     37 H10        -2.3011   10.7113   -2.2419 H         1 <0>         0.4237
@<TRIPOS>BOND
     1    1    6 ar
     2    1    2 ar
     3    1   28 1
     4    2    3 ar
     5    2   29 1
     6    3    4 ar
     7    3   24 1
     8    4    5 ar
     9    4   30 1
    10    5    6 ar
    11    5   31 1
    12    6    7 1
    13    7   11 1
    14    7    8 1
    15    8    9 2
    16    8   16 1
    17    9   10 1
    18    9   32 1
    19   10   11 2
    20   10   12 1
    21   12   13 1
    22   12   14 1
    23   12   15 1
    24   16   21 ar
    25   16   17 ar
    26   17   18 ar
    27   17   33 1
    28   18   19 ar
    29   18   34 1
    30   19   20 ar
    31   19   23 1
    32   20   21 ar
    33   20   35 1
    34   21   22 1
    35   24   25 2
    36   24   26 2
    37   24   27 1
    38   27   36 1
    39   27   37 1
@<TRIPOS>MOLECULE
ZINC03814691
   40    43     0     0     0
SMALL
USER_CHARGES

@<TRIPOS>ATOM
      1 C1         -1.4358    7.6774    7.6289 C.ar      1 <0>        -0.1141
      2 C2         -0.0849    7.9821    7.7246 C.ar      1 <0>        -0.0882
      3 C3          0.8506    7.0671    7.2844 C.ar      1 <0>        -0.0739
      4 C4          0.4293    5.8646    6.7563 C.ar      1 <0>        -0.1145
      5 C5         -0.9359    5.5320    6.6484 C.ar      1 <0>        -0.0747
      6 C6         -1.8618    6.4947    7.1096 C.ar      1 <0>        -0.0756
      7 C7         -1.2008    4.2163    6.0654 C.2       1 <0>        -0.0697
      8 C8         -0.1507    3.4443    5.6929 C.2       1 <0>        -0.1263
      9 S1          1.2665    4.4476    6.0942 S.3       1 <0>         0.0826
     10 C9         -2.5868    3.7357    5.8917 C.2       1 <0>         0.1565
     11 C10        -3.5861    3.7586    6.8400 C.2       1 <0>        -0.1994
     12 C11        -4.7301    3.2059    6.2631 C.2       1 <0>        -0.0030
     13 N1         -4.4560    2.8660    5.0291 N.2       1 <0>        -0.2179
     14 N2         -3.1197    3.1868    4.7597 N.pl3     1 <0>        -0.3113
     15 C12        -2.4481    2.9769    3.5486 C.ar      1 <0>         0.2001
     16 C13        -2.6273    1.7901    2.8502 C.ar      1 <0>        -0.1247
     17 C14        -1.9633    1.5860    1.6565 C.ar      1 <0>         0.0024
     18 C15        -1.1207    2.5619    1.1567 C.ar      1 <0>        -0.6739
     19 C16        -0.9357    3.7425    1.8526 C.ar      1 <0>         0.0039
     20 C17        -1.6012    3.9550    3.0440 C.ar      1 <0>        -0.1344
     21 S2         -0.2754    2.2977   -0.3666 S.o2      1 <0>         2.7032
     22 O1         -0.1900    0.8905   -0.5448 O.2       1 <0>        -0.9570
     23 O2          0.8733    3.1338   -0.3440 O.2       1 <0>        -0.9566
     24 N3         -1.2532    2.8693   -1.5747 N.pl3     1 <0>        -1.2487
     25 C18        -6.0610    3.0292    6.9477 C.3       1 <0>         0.5573
     26 F1         -6.9341    2.3403    6.0990 F         1 <0>        -0.1630
     27 F2         -5.8850    2.2991    8.1280 F         1 <0>        -0.1615
     28 F3         -6.5994    4.2842    7.2515 F         1 <0>        -0.1627
     29 H1         -2.1648    8.3955    7.9743 H         1 <0>         0.1321
     30 H2          0.2318    8.9274    8.1399 H         1 <0>         0.1389
     31 H3          1.9049    7.2912    7.3533 H         1 <0>         0.1365
     32 H4         -2.9203    6.2889    7.0490 H         1 <0>         0.1275
     33 H5         -0.1686    2.4571    5.2553 H         1 <0>         0.1896
     34 H6         -3.4986    4.1331    7.8492 H         1 <0>         0.1723
     35 H7         -3.2850    1.0274    3.2402 H         1 <0>         0.1484
     36 H8         -2.1026    0.6634    1.1127 H         1 <0>         0.1579
     37 H9         -0.2733    4.5008    1.4620 H         1 <0>         0.1578
     38 H10        -1.4598    4.8790    3.5849 H         1 <0>         0.1428
     39 H11        -2.1149    3.2583   -1.3580 H         1 <0>         0.4177
     40 H12        -0.9641    2.8150   -2.4991 H         1 <0>         0.4235
@<TRIPOS>BOND
     1    1    6 ar
     2    1    2 ar
     3    1   29 1
     4    2    3 ar
     5    2   30 1
     6    3    4 ar
     7    3   31 1
     8    4    9 1
     9    4    5 ar
    10    5    6 ar
    11    5    7 1
    12    6   32 1
    13    7    8 2
    14    7   10 1
    15    8    9 1
    16    8   33 1
    17   10   14 1
    18   10   11 2
    19   11   12 1
    20   11   34 1
    21   12   13 2
    22   12   25 1
    23   13   14 1
    24   14   15 1
    25   15   20 ar
    26   15   16 ar
    27   16   17 ar
    28   16   35 1
    29   17   18 ar
    30   17   36 1
    31   18   19 ar
    32   18   21 1
    33   19   20 ar
    34   19   37 1
    35   20   38 1
    36   21   22 2
    37   21   23 2
    38   21   24 1
    39   24   39 1
    40   24   40 1
    41   25   26 1
    42   25   27 1
    43   25   28 1
@<TRIPOS>MOLECULE
ZINC03814692
   40    43     0     0     0
SMALL
USER_CHARGES

@<TRIPOS>ATOM
      1 C1          2.9561    5.8421    7.0732 C.ar      1 <0>        -0.1332
      2 C2          3.1638    5.4910    5.7470 C.ar      1 <0>        -0.0795
      3 C3          2.1470    4.9383    4.9970 C.ar      1 <0>        -0.1101
      4 C4          0.8996    4.7288    5.5710 C.ar      1 <0>         0.0663
      5 C5          0.6947    5.0866    6.9158 C.ar      1 <0>        -0.1369
      6 C6          1.7363    5.6455    7.6584 C.ar      1 <0>        -0.0600
      7 C7         -0.6982    4.7436    7.2088 C.2       1 <0>        -0.1305
      8 C8         -1.2069    4.2252    6.0624 C.2       1 <0>         0.0597
      9 O1         -0.2574    4.2157    5.1054 O.3       1 <0>        -0.1850
     10 C9         -2.5864    3.7404    5.8914 C.2       1 <0>         0.1638
     11 C10        -3.6479    3.9691    6.7428 C.2       1 <0>        -0.1814
     12 C11        -4.7659    3.3323    6.2059 C.2       1 <0>        -0.0036
     13 N1         -4.4209    2.7484    5.0858 N.2       1 <0>        -0.2075
     14 N2         -3.0583    2.9779    4.8583 N.pl3     1 <0>        -0.3083
     15 C12        -2.3138    2.5150    3.7662 C.ar      1 <0>         0.1968
     16 C13        -2.8396    2.5912    2.4831 C.ar      1 <0>        -0.1198
     17 C14        -2.1031    2.1334    1.4083 C.ar      1 <0>        -0.0003
     18 C15        -0.8433    1.5996    1.6086 C.ar      1 <0>        -0.6710
     19 C16        -0.3190    1.5174    2.8856 C.ar      1 <0>         0.0025
     20 C17        -1.0483    1.9783    3.9641 C.ar      1 <0>        -0.1186
     21 S1          0.0929    1.0161    0.2347 S.o2      1 <0>         2.7033
     22 O2         -0.8413    0.6985   -0.7879 O.2       1 <0>        -0.9565
     23 O3          1.0151    0.0638    0.7466 O.2       1 <0>        -0.9569
     24 N3          0.9902    2.2912   -0.3234 N.pl3     1 <0>        -1.2484
     25 C18        -6.1458    3.3229    6.8117 C.3       1 <0>         0.5596
     26 F1         -6.8746    4.4151    6.3287 F         1 <0>        -0.1622
     27 F2         -6.7995    2.1358    6.4643 F         1 <0>        -0.1617
     28 F3         -6.0444    3.4091    8.2043 F         1 <0>        -0.1596
     29 H1          3.7629    6.2742    7.6466 H         1 <0>         0.1348
     30 H2          4.1324    5.6520    5.2973 H         1 <0>         0.1402
     31 H3          2.3201    4.6692    3.9655 H         1 <0>         0.1353
     32 H4          1.5793    5.9210    8.6908 H         1 <0>         0.1334
     33 H5         -1.2161    4.8766    8.1472 H         1 <0>         0.1710
     34 H6         -3.6181    4.5390    7.6597 H         1 <0>         0.1805
     35 H7         -3.8236    3.0078    2.3261 H         1 <0>         0.1479
     36 H8         -2.5113    2.1928    0.4102 H         1 <0>         0.1581
     37 H9          0.6635    1.0962    3.0392 H         1 <0>         0.1569
     38 H10        -0.6368    1.9173    4.9607 H         1 <0>         0.1405
     39 H11         0.9266    3.1560    0.1113 H         1 <0>         0.4173
     40 H12         1.5793    2.1732   -1.0849 H         1 <0>         0.4234
@<TRIPOS>BOND
     1    1    6 ar
     2    1    2 ar
     3    1   29 1
     4    2    3 ar
     5    2   30 1
     6    3    4 ar
     7    3   31 1
     8    4    9 1
     9    4    5 ar
    10    5    6 ar
    11    5    7 1
    12    6   32 1
    13    7    8 2
    14    7   33 1
    15    8    9 1
    16    8   10 1
    17   10   14 1
    18   10   11 2
    19   11   12 1
    20   11   34 1
    21   12   13 2
    22   12   25 1
    23   13   14 1
    24   14   15 1
    25   15   20 ar
    26   15   16 ar
    27   16   17 ar
    28   16   35 1
    29   17   18 ar
    30   17   36 1
    31   18   19 ar
    32   18   21 1
    33   19   20 ar
    34   19   37 1
    35   20   38 1
    36   21   22 2
    37   21   23 2
    38   21   24 1
    39   24   39 1
    40   24   40 1
    41   25   26 1
    42   25   27 1
    43   25   28 1
@<TRIPOS>MOLECULE
ZINC03814693
   41    43     0     0     0
SMALL
USER_CHARGES

@<TRIPOS>ATOM
      1 C1         -2.5930    1.6407    2.9492 C.ar      1 <0>        -0.1263
      2 C2         -1.9110    1.3727    1.7785 C.ar      1 <0>         0.0021
      3 C3         -1.0488    2.3146    1.2478 C.ar      1 <0>        -0.6751
      4 C4         -0.8629    3.5254    1.8894 C.ar      1 <0>         0.0029
      5 C5         -1.5464    3.8017    3.0574 C.ar      1 <0>        -0.1339
      6 C6         -2.4126    2.8577    3.5931 C.ar      1 <0>         0.2041
      7 N1         -3.1024    3.1324    4.7807 N.pl3     1 <0>        -0.3140
      8 C7         -2.5857    3.7398    5.8914 C.2       1 <0>         0.1384
      9 C8         -3.6009    3.8127    6.8220 C.2       1 <0>        -0.2053
     10 C9         -4.7380    3.2392    6.2538 C.2       1 <0>        -0.0035
     11 N2         -4.4469    2.8396    5.0414 N.2       1 <0>        -0.2260
     12 C10        -6.0821    3.1072    6.9225 C.3       1 <0>         0.5575
     13 F1         -6.8520    4.2431    6.6502 F         1 <0>        -0.1644
     14 F2         -6.7368    1.9718    6.4332 F         1 <0>        -0.1644
     15 F3         -5.9051    2.9841    8.3048 F         1 <0>        -0.1612
     16 C11        -1.2059    4.2249    6.0616 C.2       1 <0>        -0.0904
     17 C12        -0.2272    3.3527    5.9681 C.2       1 <0>        -0.0979
     18 C13         1.2232    3.7047    6.1276 C.3       1 <0>        -0.0942
     19 C14         1.4176    5.2154    5.9830 C.3       1 <0>        -0.1243
     20 C15         0.4054    5.9255    6.8905 C.3       1 <0>        -0.1193
     21 C16        -0.9985    5.6878    6.3258 C.3       1 <0>        -0.0734
     22 S1         -0.1796    1.9684   -0.2453 S.o2      1 <0>         2.7036
     23 O1         -0.1067    0.5535   -0.3541 O.2       1 <0>        -0.9576
     24 O2          0.9778    2.7928   -0.2420 O.2       1 <0>        -0.9577
     25 N3         -1.1293    2.4911   -1.4972 N.pl3     1 <0>        -1.2488
     26 H1         -3.2657    0.9043    3.3635 H         1 <0>         0.1470
     27 H2         -2.0508    0.4264    1.2772 H         1 <0>         0.1569
     28 H3         -0.1855    4.2572    1.4748 H         1 <0>         0.1570
     29 H4         -1.4037    4.7490    3.5560 H         1 <0>         0.1443
     30 H5         -3.5283    4.2369    7.8125 H         1 <0>         0.1722
     31 H6         -0.4813    2.3230    5.7643 H         1 <0>         0.1047
     32 H7          1.5653    3.3890    7.1132 H         1 <0>         0.0855
     33 H8          1.8056    3.1925    5.3617 H         1 <0>         0.0818
     34 H9          2.4303    5.4847    6.2829 H         1 <0>         0.0721
     35 H10         1.2526    5.5083    4.9461 H         1 <0>         0.0670
     36 H11         0.4717    5.5203    7.9002 H         1 <0>         0.0698
     37 H12         0.6181    6.9944    6.9101 H         1 <0>         0.0732
     38 H13        -1.1162    6.2432    5.3953 H         1 <0>         0.0766
     39 H14        -1.7393    6.0334    7.0467 H         1 <0>         0.0802
     40 H15        -1.9904    2.8990   -1.3152 H         1 <0>         0.4177
     41 H16        -0.8246    2.3893   -2.4124 H         1 <0>         0.4234
@<TRIPOS>BOND
     1    1    6 ar
     2    1    2 ar
     3    1   26 1
     4    2    3 ar
     5    2   27 1
     6    3    4 ar
     7    3   22 1
     8    4    5 ar
     9    4   28 1
    10    5    6 ar
    11    5   29 1
    12    6    7 1
    13    7   11 1
    14    7    8 1
    15    8    9 2
    16    8   16 1
    17    9   10 1
    18    9   30 1
    19   10   11 2
    20   10   12 1
    21   12   13 1
    22   12   14 1
    23   12   15 1
    24   16   21 1
    25   16   17 2
    26   17   18 1
    27   17   31 1
    28   18   19 1
    29   18   32 1
    30   18   33 1
    31   19   20 1
    32   19   34 1
    33   19   35 1
    34   20   21 1
    35   20   36 1
    36   20   37 1
    37   21   38 1
    38   21   39 1
    39   22   23 2
    40   22   24 2
    41   22   25 1
    42   25   40 1
    43   25   41 1
@<TRIPOS>MOLECULE
ZINC03814694
   44    47     0     0     0
SMALL
USER_CHARGES

@<TRIPOS>ATOM
      1 C1         -2.4959    1.4300    3.1308 C.ar      1 <0>        -0.1236
      2 C2         -1.7896    1.0806    1.9965 C.ar      1 <0>         0.0011
      3 C3         -0.9553    2.0008    1.3889 C.ar      1 <0>        -0.6771
      4 C4         -0.8214    3.2717    1.9173 C.ar      1 <0>        -0.0056
      5 C5         -1.5294    3.6291    3.0481 C.ar      1 <0>        -0.1295
      6 C6         -2.3677    2.7071    3.6608 C.ar      1 <0>         0.1965
      7 N1         -3.0823    3.0644    4.8114 N.pl3     1 <0>        -0.3169
      8 C7         -2.5854    3.7342    5.8929 C.2       1 <0>         0.1505
      9 C8         -3.6096    3.8800    6.7859 C.2       1 <0>        -0.2041
     10 C9         -4.7438    3.2803    6.2379 C.2       1 <0>        -0.0041
     11 N2         -4.4335    2.7938    5.0625 N.2       1 <0>        -0.2180
     12 C10        -6.1002    3.2046    6.8902 C.3       1 <0>         0.5576
     13 F1         -6.9567    2.4334    6.0973 F         1 <0>        -0.1635
     14 F2         -5.9779    2.6159    8.1534 F         1 <0>        -0.1620
     15 F3         -6.6251    4.4943    7.0257 F         1 <0>        -0.1628
     16 C11        -1.1971    4.2152    6.0646 C.ar      1 <0>        -0.0540
     17 C12        -0.9307    5.3101    6.8876 C.ar      1 <0>        -0.0806
     18 C13         0.3658    5.7512    7.0422 C.ar      1 <0>        -0.1044
     19 C14         1.4070    5.1135    6.3850 C.ar      1 <0>        -0.0741
     20 C15         1.1492    4.0273    5.5676 C.ar      1 <0>        -0.0913
     21 C16        -0.1472    3.5735    5.4098 C.ar      1 <0>        -0.0896
     22 C17         2.4441    3.5160    4.9728 C.3       1 <0>        -0.0874
     23 C18         3.4571    4.6648    5.1624 C.3       1 <0>        -0.1208
     24 C19         2.8930    5.4045    6.3939 C.3       1 <0>        -0.0876
     25 S1         -0.0551    1.5508   -0.0574 S.o2      1 <0>         2.7035
     26 O1          0.0701    0.1355   -0.0339 O.2       1 <0>        -0.9535
     27 O2          1.0717    2.4144   -0.1196 O.2       1 <0>        -0.9512
     28 N3         -1.0069    1.9201   -1.3613 N.pl3     1 <0>        -1.2423
     29 H1         -3.1468    0.7106    3.6053 H         1 <0>         0.1467
     30 H2         -1.8889    0.0875    1.5838 H         1 <0>         0.1557
     31 H3         -0.1656    3.9868    1.4430 H         1 <0>         0.1556
     32 H4         -1.4273    4.6230    3.4581 H         1 <0>         0.1442
     33 H5         -3.5503    4.3687    7.7472 H         1 <0>         0.1725
     34 H6         -1.7379    5.8102    7.4021 H         1 <0>         0.1352
     35 H7          0.5721    6.5988    7.6788 H         1 <0>         0.1313
     36 H8         -0.3471    2.7229    4.7752 H         1 <0>         0.1225
     37 H9          2.3133    3.2982    3.9128 H         1 <0>         0.0799
     38 H10         2.7787    2.6252    5.5043 H         1 <0>         0.0841
     39 H11         3.4695    5.3183    4.2901 H         1 <0>         0.0760
     40 H12         4.4531    4.2730    5.3685 H         1 <0>         0.0809
     41 H13         3.0690    6.4765    6.3045 H         1 <0>         0.0803
     42 H14         3.3481    5.0205    7.3069 H         1 <0>         0.0856
     43 H15        -1.2789    1.2213   -1.9766 H         1 <0>         0.4244
     44 H16        -1.2925    2.8352   -1.5096 H         1 <0>         0.4201
@<TRIPOS>BOND
     1    1    6 ar
     2    1    2 ar
     3    1   29 1
     4    2    3 ar
     5    2   30 1
     6    3    4 ar
     7    3   25 1
     8    4    5 ar
     9    4   31 1
    10    5    6 ar
    11    5   32 1
    12    6    7 1
    13    7   11 1
    14    7    8 1
    15    8    9 2
    16    8   16 1
    17    9   10 1
    18    9   33 1
    19   10   11 2
    20   10   12 1
    21   12   13 1
    22   12   14 1
    23   12   15 1
    24   16   21 ar
    25   16   17 ar
    26   17   18 ar
    27   17   34 1
    28   18   19 ar
    29   18   35 1
    30   19   24 1
    31   19   20 ar
    32   20   21 ar
    33   20   22 1
    34   21   36 1
    35   22   23 1
    36   22   37 1
    37   22   38 1
    38   23   24 1
    39   23   39 1
    40   23   40 1
    41   24   41 1
    42   24   42 1
    43   25   26 2
    44   25   27 2
    45   25   28 1
    46   28   43 1
    47   28   44 1
@<TRIPOS>MOLECULE
ZINC03814695
   45    48     0     0     0
SMALL
USER_CHARGES

@<TRIPOS>ATOM
      1 C1          0.7692    4.1410    0.6277 C.ar      1 <0>        -0.1318
      2 C2          1.7763    5.0862    0.6221 C.ar      1 <0>         0.0015
      3 C3          1.5669    6.3183    0.0302 C.ar      1 <0>        -0.6738
      4 C4          0.3510    6.6064   -0.5621 C.ar      1 <0>        -0.0019
      5 C5         -0.6582    5.6636   -0.5645 C.ar      1 <0>        -0.1230
      6 C6         -0.4510    4.4252    0.0287 C.ar      1 <0>         0.1972
      7 N1         -1.4725    3.4668    0.0279 N.pl3     1 <0>        -0.3166
      8 C7         -1.3332    2.1408   -0.2683 C.2       1 <0>         0.1498
      9 C8         -2.5691    1.5676   -0.1557 C.2       1 <0>        -0.2035
     10 C9         -3.4696    2.5635    0.2236 C.2       1 <0>        -0.0037
     11 N2         -2.8209    3.6958    0.3306 N.2       1 <0>        -0.2165
     12 C10        -4.9447    2.3696    0.4637 C.3       1 <0>         0.5574
     13 F1         -5.5440    3.6095    0.7102 F         1 <0>        -0.1633
     14 F2         -5.5282    1.7860   -0.6660 F         1 <0>        -0.1618
     15 F3         -5.1312    1.5334    1.5696 F         1 <0>        -0.1629
     16 C11        -0.0795    1.4540   -0.6466 C.ar      1 <0>        -0.0532
     17 C12         0.9574    2.1697   -1.2489 C.ar      1 <0>        -0.0900
     18 C13         2.1114    1.5134   -1.6050 C.ar      1 <0>        -0.0932
     19 C14         2.2546    0.1430   -1.3734 C.ar      1 <0>        -0.0564
     20 C15         1.2360   -0.5729   -0.7684 C.ar      1 <0>        -0.0805
     21 C16         0.0691    0.0917   -0.4093 C.ar      1 <0>        -0.0674
     22 C17         1.2966   -2.0375   -0.4482 C.3       1 <0>        -0.0897
     23 C18         2.2787   -2.8117   -1.3094 C.3       1 <0>        -0.1241
     24 C19         3.6919   -2.2548   -1.0829 C.3       1 <0>        -0.1084
     25 S1          3.7600   -0.6253   -1.8844 S.3       1 <0>        -0.1086
     26 S2          2.8519    7.5238    0.0312 S.o2      1 <0>         2.7030
     27 O1          4.0751    6.8135    0.1675 O.2       1 <0>        -0.9560
     28 O2          2.5939    8.3934   -1.0627 O.2       1 <0>        -0.9539
     29 N3          2.6739    8.4282    1.4069 N.pl3     1 <0>        -1.2465
     30 H1          0.9318    3.1806    1.0941 H         1 <0>         0.1454
     31 H2          2.7267    4.8644    1.0845 H         1 <0>         0.1575
     32 H3          0.1903    7.5698   -1.0230 H         1 <0>         0.1575
     33 H4         -1.6077    5.8893   -1.0270 H         1 <0>         0.1478
     34 H5         -2.8060    0.5281   -0.3280 H         1 <0>         0.1721
     35 H6          0.8535    3.2287   -1.4334 H         1 <0>         0.1308
     36 H7          2.9168    2.0634   -2.0688 H         1 <0>         0.1371
     37 H8         -0.7332   -0.4575    0.0611 H         1 <0>         0.1348
     38 H9          1.5832   -2.1537    0.5970 H         1 <0>         0.0831
     39 H10         0.3030   -2.4648   -0.5833 H         1 <0>         0.0882
     40 H11         2.2537   -3.8658   -1.0331 H         1 <0>         0.0890
     41 H12         2.0077   -2.7023   -2.3595 H         1 <0>         0.0813
     42 H13         3.8838   -2.1517   -0.0149 H         1 <0>         0.0946
     43 H14         4.4297   -2.9210   -1.5300 H         1 <0>         0.1163
     44 H15         3.4511    8.8247    1.8307 H         1 <0>         0.4240
     45 H16         1.7923    8.5614    1.7891 H         1 <0>         0.4183
@<TRIPOS>BOND
     1    1    6 ar
     2    1    2 ar
     3    1   30 1
     4    2    3 ar
     5    2   31 1
     6    3    4 ar
     7    3   26 1
     8    4    5 ar
     9    4   32 1
    10    5    6 ar
    11    5   33 1
    12    6    7 1
    13    7   11 1
    14    7    8 1
    15    8    9 2
    16    8   16 1
    17    9   10 1
    18    9   34 1
    19   10   11 2
    20   10   12 1
    21   12   13 1
    22   12   14 1
    23   12   15 1
    24   16   21 ar
    25   16   17 ar
    26   17   18 ar
    27   17   35 1
    28   18   19 ar
    29   18   36 1
    30   19   25 1
    31   19   20 ar
    32   20   21 ar
    33   20   22 1
    34   21   37 1
    35   22   23 1
    36   22   38 1
    37   22   39 1
    38   23   24 1
    39   23   40 1
    40   23   41 1
    41   24   25 1
    42   24   42 1
    43   24   43 1
    44   26   27 2
    45   26   28 2
    46   26   29 1
    47   29   44 1
    48   29   45 1
@<TRIPOS>MOLECULE
ZINC03814696
   42    45     0     0     0
SMALL
USER_CHARGES

@<TRIPOS>ATOM
      1 C1         -2.4955    1.4276    3.1327 C.ar      1 <0>        -0.1237
      2 C2         -1.7887    1.0769    1.9992 C.ar      1 <0>         0.0019
      3 C3         -0.9540    1.9965    1.3910 C.ar      1 <0>        -0.6730
      4 C4         -0.8203    3.2679    1.9181 C.ar      1 <0>         0.0001
      5 C5         -1.5291    3.6267    3.0479 C.ar      1 <0>        -0.1333
      6 C6         -2.3678    2.7054    3.6613 C.ar      1 <0>         0.1990
      7 N1         -3.0830    3.0640    4.8111 N.pl3     1 <0>        -0.3182
      8 C7         -2.5867    3.7352    5.8920 C.2       1 <0>         0.1564
      9 C8         -3.6119    3.8830    6.7838 C.2       1 <0>        -0.2063
     10 C9         -4.7457    3.2821    6.2359 C.2       1 <0>        -0.0027
     11 N2         -4.4344    2.7936    5.0616 N.2       1 <0>        -0.2177
     12 C10        -6.1025    3.2073    6.8873 C.3       1 <0>         0.5573
     13 F1         -6.9583    2.4346    6.0950 F         1 <0>        -0.1634
     14 F2         -5.9811    2.6208    8.1517 F         1 <0>        -0.1619
     15 F3         -6.6278    4.4971    7.0201 F         1 <0>        -0.1630
     16 C11        -1.1987    4.2160    6.0641 C.ar      1 <0>        -0.0841
     17 C12        -0.1457    3.5739    5.4105 C.ar      1 <0>        -0.0645
     18 C13         1.1452    4.0237    5.5697 C.ar      1 <0>        -0.1335
     19 C14         1.4160    5.1157    6.3937 C.ar      1 <0>         0.1321
     20 C15         0.3628    5.7515    7.0416 C.ar      1 <0>        -0.1732
     21 C16        -0.9306    5.3125    6.8861 C.ar      1 <0>        -0.0294
     22 C17         0.9583    6.8958    7.8394 C.3       1 <0>        -0.1109
     23 C18         2.3675    7.0221    7.2139 C.3       1 <0>         0.0496
     24 O1          2.6067    5.7017    6.6982 O.3       1 <0>        -0.2985
     25 S1         -0.0535    1.5450   -0.0547 S.o2      1 <0>         2.7031
     26 O2          0.0716    0.1297   -0.0297 O.2       1 <0>        -0.9569
     27 O3          1.0734    2.4084   -0.1173 O.2       1 <0>        -0.9567
     28 N3         -1.0049    1.9132   -1.3591 N.pl3     1 <0>        -1.2487
     29 H1         -3.1467    0.7088    3.6077 H         1 <0>         0.1483
     30 H2         -1.8876    0.0833    1.5876 H         1 <0>         0.1580
     31 H3         -0.1640    3.9824    1.4436 H         1 <0>         0.1582
     32 H4         -1.4274    4.6211    3.4568 H         1 <0>         0.1461
     33 H5         -3.5534    4.3733    7.7443 H         1 <0>         0.1719
     34 H6         -0.3451    2.7239    4.7747 H         1 <0>         0.1332
     35 H7          1.9543    3.5251    5.0567 H         1 <0>         0.1392
     36 H8         -1.7378    5.8149    7.3983 H         1 <0>         0.1366
     37 H9          0.3846    7.8113    7.6951 H         1 <0>         0.0970
     38 H10         1.0230    6.6410    8.8972 H         1 <0>         0.0962
     39 H11         2.3682    7.7569    6.4089 H         1 <0>         0.0823
     40 H12         3.1055    7.2794    7.9736 H         1 <0>         0.1120
     41 H13        -1.8823    2.3041   -1.2245 H         1 <0>         0.4178
     42 H14        -0.6847    1.7378   -2.2578 H         1 <0>         0.4235
@<TRIPOS>BOND
     1    1    6 ar
     2    1    2 ar
     3    1   29 1
     4    2    3 ar
     5    2   30 1
     6    3    4 ar
     7    3   25 1
     8    4    5 ar
     9    4   31 1
    10    5    6 ar
    11    5   32 1
    12    6    7 1
    13    7   11 1
    14    7    8 1
    15    8    9 2
    16    8   16 1
    17    9   10 1
    18    9   33 1
    19   10   11 2
    20   10   12 1
    21   12   13 1
    22   12   14 1
    23   12   15 1
    24   16   21 ar
    25   16   17 ar
    26   17   18 ar
    27   17   34 1
    28   18   19 ar
    29   18   35 1
    30   19   24 1
    31   19   20 ar
    32   20   21 ar
    33   20   22 1
    34   21   36 1
    35   22   23 1
    36   22   37 1
    37   22   38 1
    38   23   24 1
    39   23   39 1
    40   23   40 1
    41   25   26 2
    42   25   27 2
    43   25   28 1
    44   28   41 1
    45   28   42 1
@<TRIPOS>MOLECULE
ZINC03814697
   37    39     0     0     0
SMALL
USER_CHARGES

@<TRIPOS>ATOM
      1 C1         -0.9073    3.1386    1.7442 C.ar      1 <0>        -0.1241
      2 C2         -1.1804    1.9234    1.1411 C.ar      1 <0>        -0.0680
      3 C3         -0.2871    1.3759    0.2386 C.ar      1 <0>        -0.1502
      4 C4          0.8906    2.0357   -0.0586 C.ar      1 <0>         0.1328
      5 C5          1.1736    3.2603    0.5515 C.ar      1 <0>        -0.0880
      6 C6          0.2642    3.8080    1.4568 C.ar      1 <0>        -0.0653
      7 C7          2.4313    3.9731    0.2387 C.2       1 <0>         0.1389
      8 C8          3.6867    3.4331    0.2247 C.2       1 <0>        -0.1897
      9 C9          4.5839    4.4448   -0.1193 C.2       1 <0>        -0.0036
     10 N1          3.9127    5.5532   -0.3077 N.2       1 <0>        -0.2141
     11 N2          2.5530    5.2917   -0.0956 N.pl3     1 <0>        -0.3124
     12 C10         1.5067    6.2168   -0.2040 C.ar      1 <0>         0.2013
     13 C11         0.3210    5.8559   -0.8302 C.ar      1 <0>        -0.1344
     14 C12        -0.7103    6.7690   -0.9317 C.ar      1 <0>         0.0042
     15 C13        -0.5594    8.0445   -0.4193 C.ar      1 <0>        -0.6741
     16 C14         0.6219    8.4084    0.2006 C.ar      1 <0>         0.0027
     17 C15         1.6552    7.4984    0.3095 C.ar      1 <0>        -0.1245
     18 S1         -1.8748    9.2087   -0.5572 S.o2      1 <0>         2.7037
     19 O1         -3.0716    8.4549   -0.6935 O.2       1 <0>        -0.9573
     20 O2         -1.6870   10.1586    0.4828 O.2       1 <0>        -0.9570
     21 N3         -1.6620   10.0211   -1.9845 N.pl3     1 <0>        -1.2487
     22 C16         6.0769    4.2881   -0.2511 C.3       1 <0>         0.5585
     23 F1          6.3943    3.9345   -1.5669 F         1 <0>        -0.1630
     24 F2          6.7029    5.4972    0.0707 F         1 <0>        -0.1635
     25 F3          6.5195    3.2874    0.6205 F         1 <0>        -0.1602
     26 F4          1.7657    1.4977   -0.9361 F         1 <0>        -0.1256
     27 H1         -1.6114    3.5621    2.4452 H         1 <0>         0.1402
     28 H2         -2.0974    1.4022    1.3733 H         1 <0>         0.1423
     29 H3         -0.5080    0.4289   -0.2314 H         1 <0>         0.1466
     30 H4          0.4772    4.7541    1.9321 H         1 <0>         0.1319
     31 H5          3.9394    2.4057    0.4414 H         1 <0>         0.1734
     32 H6          0.2041    4.8613   -1.2345 H         1 <0>         0.1421
     33 H7         -1.6341    6.4877   -1.4153 H         1 <0>         0.1576
     34 H8          0.7368    9.4053    0.5998 H         1 <0>         0.1579
     35 H9          2.5778    7.7834    0.7932 H         1 <0>         0.1485
     36 H10        -0.9098    9.8056   -2.5577 H         1 <0>         0.4178
     37 H11        -2.2895   10.7125   -2.2472 H         1 <0>         0.4235
@<TRIPOS>BOND
     1    1    6 ar
     2    1    2 ar
     3    1   27 1
     4    2    3 ar
     5    2   28 1
     6    3    4 ar
     7    3   29 1
     8    4    5 ar
     9    4   26 1
    10    5    6 ar
    11    5    7 1
    12    6   30 1
    13    7   11 1
    14    7    8 2
    15    8    9 1
    16    8   31 1
    17    9   10 2
    18    9   22 1
    19   10   11 1
    20   11   12 1
    21   12   17 ar
    22   12   13 ar
    23   13   14 ar
    24   13   32 1
    25   14   15 ar
    26   14   33 1
    27   15   16 ar
    28   15   18 1
    29   16   17 ar
    30   16   34 1
    31   17   35 1
    32   18   19 2
    33   18   20 2
    34   18   21 1
    35   21   36 1
    36   21   37 1
    37   22   23 1
    38   22   24 1
    39   22   25 1
@<TRIPOS>MOLECULE
ZINC03814698
   37    39     0     0     0
SMALL
USER_CHARGES

@<TRIPOS>ATOM
      1 C1          2.5022    3.1587   -2.2460 C.ar      1 <0>        -0.0745
      2 C2          2.6253    4.2450   -3.0871 C.ar      1 <0>        -0.1495
      3 C3          3.8741    4.7884   -3.3427 C.ar      1 <0>         0.1218
      4 C4          5.0047    4.2473   -2.7517 C.ar      1 <0>        -0.1490
      5 C5          4.8921    3.1643   -1.9050 C.ar      1 <0>        -0.0514
      6 C6          3.6368    2.6136   -1.6439 C.ar      1 <0>        -0.0614
      7 C7          3.5101    1.4522   -0.7366 C.2       1 <0>         0.1438
      8 C8          4.4714    0.5150   -0.4811 C.2       1 <0>        -0.1991
      9 C9          3.9414   -0.4062    0.4229 C.2       1 <0>        -0.0038
     10 N1          2.7156   -0.0494    0.7138 N.2       1 <0>        -0.2127
     11 N2          2.4119    1.1194    0.0039 N.pl3     1 <0>        -0.3164
     12 C10         1.1982    1.8177    0.0421 C.ar      1 <0>         0.1968
     13 C11        -0.0043    1.1277   -0.0361 C.ar      1 <0>        -0.1228
     14 C12        -1.1992    1.8196   -0.0039 C.ar      1 <0>         0.0022
     15 C13        -1.1990    3.1972    0.1166 C.ar      1 <0>        -0.6720
     16 C14        -0.0032    3.8872    0.1947 C.ar      1 <0>         0.0001
     17 C15         1.1951    3.2015    0.1577 C.ar      1 <0>        -0.1343
     18 S1         -2.7257    4.0757    0.1641 S.o2      1 <0>         2.7027
     19 O1         -3.7084    3.1578    0.6234 O.2       1 <0>        -0.9559
     20 O2         -2.4655    5.3068    0.8243 O.2       1 <0>        -0.9560
     21 N3         -3.1231    4.4516   -1.3990 N.pl3     1 <0>        -1.2484
     22 C16         4.6599   -1.6115    0.9725 C.3       1 <0>         0.5573
     23 F1          3.7786   -2.3614    1.7587 F         1 <0>        -0.1627
     24 F2          5.1262   -2.3990   -0.0857 F         1 <0>        -0.1616
     25 F3          5.7418   -1.1931    1.7545 F         1 <0>        -0.1622
     26 F4          3.9899    5.8492   -4.1713 F         1 <0>        -0.1305
     27 H1          1.5290    2.7331   -2.0509 H         1 <0>         0.1347
     28 H2          1.7473    4.6702   -3.5504 H         1 <0>         0.1450
     29 H3          5.9758    4.6740   -2.9548 H         1 <0>         0.1476
     30 H4          5.7738    2.7430   -1.4452 H         1 <0>         0.1452
     31 H5          5.4636    0.4894   -0.9069 H         1 <0>         0.1741
     32 H6         -0.0051    0.0515   -0.1265 H         1 <0>         0.1487
     33 H7         -2.1347    1.2839   -0.0688 H         1 <0>         0.1586
     34 H8         -0.0063    4.9635    0.2842 H         1 <0>         0.1587
     35 H9          2.1287    3.7410    0.2184 H         1 <0>         0.1462
     36 H10        -2.5399    4.1823   -2.1259 H         1 <0>         0.4169
     37 H11        -3.9390    4.9411   -1.5877 H         1 <0>         0.4239
@<TRIPOS>BOND
     1    1    6 ar
     2    1    2 ar
     3    1   27 1
     4    2    3 ar
     5    2   28 1
     6    3    4 ar
     7    3   26 1
     8    4    5 ar
     9    4   29 1
    10    5    6 ar
    11    5   30 1
    12    6    7 1
    13    7   11 1
    14    7    8 2
    15    8    9 1
    16    8   31 1
    17    9   10 2
    18    9   22 1
    19   10   11 1
    20   11   12 1
    21   12   17 ar
    22   12   13 ar
    23   13   14 ar
    24   13   32 1
    25   14   15 ar
    26   14   33 1
    27   15   16 ar
    28   15   18 1
    29   16   17 ar
    30   16   34 1
    31   17   35 1
    32   18   19 2
    33   18   20 2
    34   18   21 1
    35   21   36 1
    36   21   37 1
    37   22   23 1
    38   22   24 1
    39   22   25 1
@<TRIPOS>MOLECULE
ZINC03814699
   40    42     0     0     0
SMALL
USER_CHARGES

@<TRIPOS>ATOM
      1 C1          0.1857    4.6289    1.0558 C.3       1 <0>        -0.1241
      2 C2          0.1181    3.4832    0.0791 C.ar      1 <0>        -0.0480
      3 C3         -1.0080    2.6875    0.0236 C.ar      1 <0>        -0.1183
      4 C4         -1.0735    1.6384   -0.8757 C.ar      1 <0>        -0.0930
      5 C5         -0.0078    1.3734   -1.7174 C.ar      1 <0>        -0.1211
      6 C6          1.1236    2.1614   -1.6718 C.ar      1 <0>        -0.0874
      7 C7          1.1938    3.2245   -0.7706 C.ar      1 <0>        -0.0590
      8 C8          2.4042    4.0732   -0.7161 C.2       1 <0>         0.1494
      9 C9          2.4375    5.4392   -0.7401 C.2       1 <0>        -0.2013
     10 C10         3.7733    5.8360   -0.6692 C.2       1 <0>        -0.0047
     11 N1          4.5250    4.7658   -0.6046 N.2       1 <0>        -0.2193
     12 N2          3.6953    3.6373   -0.6264 N.pl3     1 <0>        -0.3139
     13 C11         4.1147    2.3020   -0.5689 C.ar      1 <0>         0.2015
     14 C12         3.4336    1.3926    0.2295 C.ar      1 <0>        -0.1319
     15 C13         3.8472    0.0759    0.2810 C.ar      1 <0>         0.0050
     16 C14         4.9439   -0.3352   -0.4541 C.ar      1 <0>        -0.6756
     17 C15         5.6272    0.5691   -1.2464 C.ar      1 <0>        -0.0018
     18 C16         5.2159    1.8862   -1.3056 C.ar      1 <0>        -0.1254
     19 S1          5.4721   -2.0146   -0.3809 S.o2      1 <0>         2.7036
     20 O1          4.3390   -2.7802    0.0055 O.2       1 <0>        -0.9572
     21 O2          6.1891   -2.2675   -1.5813 O.2       1 <0>        -0.9546
     22 N3          6.5659   -2.1302    0.8571 N.pl3     1 <0>        -1.2466
     23 C17         4.2684    7.2593   -0.6672 C.3       1 <0>         0.5578
     24 F1          4.3443    7.7248    0.6499 F         1 <0>        -0.1641
     25 F2          5.5371    7.3125   -1.2544 F         1 <0>        -0.1640
     26 F3          3.3836    8.0619   -1.3953 F         1 <0>        -0.1609
     27 H1         -0.1197    5.5492    0.5579 H         1 <0>         0.0798
     28 H2         -0.4814    4.4310    1.8947 H         1 <0>         0.0736
     29 H3          1.2072    4.7351    1.4210 H         1 <0>         0.0690
     30 H4         -1.8415    2.8867    0.6809 H         1 <0>         0.1324
     31 H5         -1.9587    1.0211   -0.9181 H         1 <0>         0.1305
     32 H6         -0.0636    0.5505   -2.4147 H         1 <0>         0.1310
     33 H7          1.9529    1.9563   -2.3325 H         1 <0>         0.1211
     34 H8          1.5818    6.0951   -0.8026 H         1 <0>         0.1725
     35 H9          2.5795    1.7140    0.8071 H         1 <0>         0.1431
     36 H10         3.3155   -0.6327    0.8988 H         1 <0>         0.1561
     37 H11         6.4836    0.2451   -1.8191 H         1 <0>         0.1566
     38 H12         5.7504    2.5921   -1.9239 H         1 <0>         0.1472
     39 H13         6.6539   -2.9606    1.3506 H         1 <0>         0.4239
     40 H14         7.1187   -1.3675    1.0887 H         1 <0>         0.4183
@<TRIPOS>BOND
     1    1    2 1
     2    1   27 1
     3    1   28 1
     4    1   29 1
     5    2    7 ar
     6    2    3 ar
     7    3    4 ar
     8    3   30 1
     9    4    5 ar
    10    4   31 1
    11    5    6 ar
    12    5   32 1
    13    6    7 ar
    14    6   33 1
    15    7    8 1
    16    8   12 1
    17    8    9 2
    18    9   10 1
    19    9   34 1
    20   10   11 2
    21   10   23 1
    22   11   12 1
    23   12   13 1
    24   13   18 ar
    25   13   14 ar
    26   14   15 ar
    27   14   35 1
    28   15   16 ar
    29   15   36 1
    30   16   17 ar
    31   16   19 1
    32   17   18 ar
    33   17   37 1
    34   18   38 1
    35   19   20 2
    36   19   21 2
    37   19   22 1
    38   22   39 1
    39   22   40 1
    40   23   24 1
    41   23   25 1
    42   23   26 1
@<TRIPOS>MOLECULE
ZINC03814700
   43    45     0     0     0
SMALL
USER_CHARGES

@<TRIPOS>ATOM
      1 C1          4.2044    5.4803   -5.6995 C.3       1 <0>        -0.1484
      2 C2          4.0035    5.9730   -4.2650 C.3       1 <0>        -0.0911
      3 C3          3.8742    4.7896   -3.3409 C.ar      1 <0>        -0.0585
      4 C4          5.0033    4.2489   -2.7521 C.ar      1 <0>        -0.1145
      5 C5          4.8918    3.1652   -1.9055 C.ar      1 <0>        -0.0766
      6 C6          3.6367    2.6147   -1.6436 C.ar      1 <0>        -0.0575
      7 C7          2.5025    3.1613   -2.2447 C.ar      1 <0>        -0.0986
      8 C8          2.6269    4.2483   -3.0853 C.ar      1 <0>        -0.1146
      9 C9          3.5099    1.4524   -0.7373 C.2       1 <0>         0.1475
     10 C10         4.4707    0.5143   -0.4837 C.2       1 <0>        -0.2035
     11 C11         3.9412   -0.4069    0.4206 C.2       1 <0>        -0.0039
     12 N1          2.7159   -0.0496    0.7129 N.2       1 <0>        -0.2163
     13 N2          2.4121    1.1195    0.0036 N.pl3     1 <0>        -0.3175
     14 C12         1.1985    1.8181    0.0427 C.ar      1 <0>         0.1993
     15 C13        -0.0042    1.1284   -0.0352 C.ar      1 <0>        -0.1240
     16 C14        -1.1989    1.8206   -0.0027 C.ar      1 <0>         0.0013
     17 C15        -1.1984    3.1981    0.1185 C.ar      1 <0>        -0.6726
     18 C16        -0.0024    3.8878    0.1968 C.ar      1 <0>        -0.0004
     19 C17         1.1957    3.2019    0.1590 C.ar      1 <0>        -0.1310
     20 S1         -2.7249    4.0770    0.1659 S.o2      1 <0>         2.7029
     21 O1         -3.7078    3.1592    0.6250 O.2       1 <0>        -0.9564
     22 O2         -2.4644    5.3079    0.8264 O.2       1 <0>        -0.9566
     23 N3         -3.1220    4.4532   -1.3971 N.pl3     1 <0>        -1.2485
     24 C18         4.6599   -1.6123    0.9697 C.3       1 <0>         0.5573
     25 F1          3.7793   -2.3616    1.7572 F         1 <0>        -0.1631
     26 F2          5.1247   -2.4003   -0.0888 F         1 <0>        -0.1621
     27 F3          5.7430   -1.1941    1.7502 F         1 <0>        -0.1626
     28 H1          5.1106    4.8770   -5.7529 H         1 <0>         0.0573
     29 H2          3.3479    4.8768   -5.9997 H         1 <0>         0.0564
     30 H3          4.2979    6.3363   -6.3679 H         1 <0>         0.0617
     31 H4          3.0973    6.5764   -4.2117 H         1 <0>         0.0759
     32 H5          4.8600    6.5766   -3.9648 H         1 <0>         0.0765
     33 H6          5.9742    4.6758   -2.9559 H         1 <0>         0.1325
     34 H7          5.7740    2.7437   -1.4468 H         1 <0>         0.1335
     35 H8          1.5287    2.7369   -2.0495 H         1 <0>         0.1241
     36 H9          1.7492    4.6750   -3.5480 H         1 <0>         0.1299
     37 H10         5.4622    0.4880   -0.9109 H         1 <0>         0.1723
     38 H11        -0.0052    0.0522   -0.1257 H         1 <0>         0.1479
     39 H12        -2.1345    1.2851   -0.0681 H         1 <0>         0.1578
     40 H13        -0.0053    4.9640    0.2873 H         1 <0>         0.1579
     41 H14         2.1295    3.7412    0.2195 H         1 <0>         0.1458
     42 H15        -2.5388    4.1839   -2.1239 H         1 <0>         0.4169
     43 H16        -3.9377    4.9430   -1.5858 H         1 <0>         0.4236
@<TRIPOS>BOND
     1    1    2 1
     2    1   28 1
     3    1   29 1
     4    1   30 1
     5    2    3 1
     6    2   31 1
     7    2   32 1
     8    3    8 ar
     9    3    4 ar
    10    4    5 ar
    11    4   33 1
    12    5    6 ar
    13    5   34 1
    14    6    7 ar
    15    6    9 1
    16    7    8 ar
    17    7   35 1
    18    8   36 1
    19    9   13 1
    20    9   10 2
    21   10   11 1
    22   10   37 1
    23   11   12 2
    24   11   24 1
    25   12   13 1
    26   13   14 1
    27   14   19 ar
    28   14   15 ar
    29   15   16 ar
    30   15   38 1
    31   16   17 ar
    32   16   39 1
    33   17   18 ar
    34   17   20 1
    35   18   19 ar
    36   18   40 1
    37   19   41 1
    38   20   21 2
    39   20   22 2
    40   20   23 1
    41   23   42 1
    42   23   43 1
    43   24   25 1
    44   24   26 1
    45   24   27 1
@<TRIPOS>MOLECULE
ZINC03814701
   41    43     0     0     0
SMALL
USER_CHARGES

@<TRIPOS>ATOM
      1 C1         -1.2967    4.7876    1.5634 C.3       1 <0>         0.0233
      2 O1         -0.0282    4.5097    0.9670 O.3       1 <0>        -0.3069
      3 C2          0.0263    3.4768    0.0864 C.ar      1 <0>         0.1626
      4 C3         -1.1150    2.7450   -0.1985 C.ar      1 <0>        -0.2070
      5 C4         -1.0596    1.6973   -1.0983 C.ar      1 <0>        -0.0561
      6 C5          0.1358    1.3652   -1.7119 C.ar      1 <0>        -0.1519
      7 C6          1.2809    2.0845   -1.4385 C.ar      1 <0>        -0.0542
      8 C7          1.2359    3.1473   -0.5362 C.ar      1 <0>        -0.0897
      9 C8          2.4599    3.9217   -0.2386 C.2       1 <0>         0.1550
     10 C9          2.5758    5.2837   -0.2328 C.2       1 <0>        -0.1883
     11 C10         3.8942    5.5995    0.0968 C.2       1 <0>        -0.0052
     12 N1          4.5570    4.4860    0.2846 N.2       1 <0>        -0.2212
     13 N2          3.6831    3.4092    0.0874 N.pl3     1 <0>        -0.3164
     14 C11         4.0064    2.0509    0.2012 C.ar      1 <0>         0.2053
     15 C12         3.1348    1.1794    0.8407 C.ar      1 <0>        -0.1334
     16 C13         3.4546   -0.1599    0.9478 C.ar      1 <0>         0.0034
     17 C14         4.6456   -0.6316    0.4270 C.ar      1 <0>        -0.6755
     18 C15         5.5179    0.2346   -0.2062 C.ar      1 <0>         0.0020
     19 C16         5.2018    1.5742   -0.3204 C.ar      1 <0>        -0.1265
     20 S1          5.0528   -2.3398    0.5711 S.o2      1 <0>         2.7036
     21 O2          3.8249   -3.0386    0.7230 O.2       1 <0>        -0.9581
     22 O3          5.9692   -2.6286   -0.4758 O.2       1 <0>        -0.9578
     23 N3          5.8829   -2.5272    1.9917 N.pl3     1 <0>        -1.2490
     24 C17         4.4611    6.9907    0.2166 C.3       1 <0>         0.5581
     25 F1          4.3117    7.4435    1.5319 F         1 <0>        -0.1644
     26 F2          5.8193    6.9713   -0.1184 F         1 <0>        -0.1647
     27 F3          3.7787    7.8488   -0.6524 F         1 <0>        -0.1614
     28 H1         -1.6375    3.9126    2.1169 H         1 <0>         0.0589
     29 H2         -1.2007    5.6334    2.2441 H         1 <0>         0.1055
     30 H3         -2.0196    5.0287    0.7840 H         1 <0>         0.0607
     31 H4         -2.0502    2.9962    0.2799 H         1 <0>         0.1381
     32 H5         -1.9527    1.1324   -1.3208 H         1 <0>         0.1337
     33 H6          0.1713    0.5427   -2.4109 H         1 <0>         0.1341
     34 H7          2.2108    1.8253   -1.9226 H         1 <0>         0.1282
     35 H8          1.7868    5.9899   -0.4454 H         1 <0>         0.1708
     36 H9          2.2063    1.5480    1.2513 H         1 <0>         0.1424
     37 H10         2.7756   -0.8388    1.4421 H         1 <0>         0.1562
     38 H11         6.4475   -0.1367   -0.6117 H         1 <0>         0.1569
     39 H12         5.8838    2.2504   -0.8144 H         1 <0>         0.1478
     40 H13         6.0531   -1.7589    2.5589 H         1 <0>         0.4177
     41 H14         6.1989   -3.4051    2.2567 H         1 <0>         0.4232
@<TRIPOS>BOND
     1    1    2 1
     2    1   28 1
     3    1   29 1
     4    1   30 1
     5    2    3 1
     6    3    8 ar
     7    3    4 ar
     8    4    5 ar
     9    4   31 1
    10    5    6 ar
    11    5   32 1
    12    6    7 ar
    13    6   33 1
    14    7    8 ar
    15    7   34 1
    16    8    9 1
    17    9   13 1
    18    9   10 2
    19   10   11 1
    20   10   35 1
    21   11   12 2
    22   11   24 1
    23   12   13 1
    24   13   14 1
    25   14   19 ar
    26   14   15 ar
    27   15   16 ar
    28   15   36 1
    29   16   17 ar
    30   16   37 1
    31   17   18 ar
    32   17   20 1
    33   18   19 ar
    34   18   38 1
    35   19   39 1
    36   20   21 2
    37   20   22 2
    38   20   23 1
    39   23   40 1
    40   23   41 1
    41   24   25 1
    42   24   26 1
    43   24   27 1
@<TRIPOS>MOLECULE
ZINC03814702
   41    43     0     0     0
SMALL
USER_CHARGES

@<TRIPOS>ATOM
      1 C1          2.7860    6.3646   -4.7514 C.3       1 <0>         0.0232
      2 O1          3.9912    5.8556   -4.1767 O.3       1 <0>        -0.3111
      3 C2          3.8746    4.7891   -3.3429 C.ar      1 <0>         0.1514
      4 C3          5.0071    4.2457   -2.7511 C.ar      1 <0>        -0.1485
      5 C4          4.8929    3.1631   -1.9052 C.ar      1 <0>        -0.0390
      6 C5          3.6369    2.6136   -1.6436 C.ar      1 <0>        -0.0928
      7 C6          2.5016    3.1592   -2.2445 C.ar      1 <0>        -0.0596
      8 C7          2.6233    4.2452   -3.0851 C.ar      1 <0>        -0.2063
      9 C8          3.5101    1.4522   -0.7367 C.2       1 <0>         0.1540
     10 C9          4.4706    0.5135   -0.4830 C.2       1 <0>        -0.2067
     11 C10         3.9408   -0.4071    0.4218 C.2       1 <0>        -0.0026
     12 N1          2.7158   -0.0490    0.7143 N.2       1 <0>        -0.2179
     13 N2          2.4124    1.1200    0.0048 N.pl3     1 <0>        -0.3193
     14 C11         1.1992    1.8192    0.0442 C.ar      1 <0>         0.2005
     15 C12        -0.0039    1.1300   -0.0330 C.ar      1 <0>        -0.1242
     16 C13        -1.1983    1.8228    0.0003 C.ar      1 <0>         0.0016
     17 C14        -1.1971    3.2003    0.1209 C.ar      1 <0>        -0.6734
     18 C15        -0.0007    3.8896    0.1980 C.ar      1 <0>        -0.0008
     19 C16         1.1971    3.2030    0.1599 C.ar      1 <0>        -0.1330
     20 S1         -2.7231    4.0799    0.1692 S.o2      1 <0>         2.7027
     21 O2         -3.7061    3.1628    0.6295 O.2       1 <0>        -0.9561
     22 O3         -2.4615    5.3110    0.8289 O.2       1 <0>        -0.9565
     23 N3         -3.1213    4.4557   -1.3936 N.pl3     1 <0>        -1.2488
     24 C17         4.6591   -1.6127    0.9710 C.3       1 <0>         0.5572
     25 F1          3.7783   -2.3613    1.7591 F         1 <0>        -0.1634
     26 F2          5.1230   -2.4013   -0.0873 F         1 <0>        -0.1621
     27 F3          5.7426   -1.1948    1.7511 F         1 <0>        -0.1626
     28 H1          2.3061    5.5832   -5.3406 H         1 <0>         0.0589
     29 H2          2.1123    6.6862   -3.9571 H         1 <0>         0.0594
     30 H3          3.0201    7.2128   -5.3947 H         1 <0>         0.1053
     31 H4          5.9787    4.6715   -2.9539 H         1 <0>         0.1425
     32 H5          5.7742    2.7405   -1.4458 H         1 <0>         0.1416
     33 H6          1.5286    2.7337   -2.0483 H         1 <0>         0.1271
     34 H7          1.7447    4.6705   -3.5473 H         1 <0>         0.1368
     35 H8          5.4621    0.4868   -0.9102 H         1 <0>         0.1726
     36 H9         -0.0055    0.0538   -0.1235 H         1 <0>         0.1482
     37 H10        -2.1342    1.2877   -0.0641 H         1 <0>         0.1578
     38 H11        -0.0030    4.9658    0.2876 H         1 <0>         0.1575
     39 H12         2.1311    3.7419    0.2198 H         1 <0>         0.1464
     40 H13        -2.5389    4.1858   -2.1208 H         1 <0>         0.4166
     41 H14        -3.9370    4.9458   -1.5819 H         1 <0>         0.4236
@<TRIPOS>BOND
     1    1    2 1
     2    1   28 1
     3    1   29 1
     4    1   30 1
     5    2    3 1
     6    3    8 ar
     7    3    4 ar
     8    4    5 ar
     9    4   31 1
    10    5    6 ar
    11    5   32 1
    12    6    7 ar
    13    6    9 1
    14    7    8 ar
    15    7   33 1
    16    8   34 1
    17    9   13 1
    18    9   10 2
    19   10   11 1
    20   10   35 1
    21   11   12 2
    22   11   24 1
    23   12   13 1
    24   13   14 1
    25   14   19 ar
    26   14   15 ar
    27   15   16 ar
    28   15   36 1
    29   16   17 ar
    30   16   37 1
    31   17   18 ar
    32   17   20 1
    33   18   19 ar
    34   18   38 1
    35   19   39 1
    36   20   21 2
    37   20   22 2
    38   20   23 1
    39   23   40 1
    40   23   41 1
    41   24   25 1
    42   24   26 1
    43   24   27 1
@<TRIPOS>MOLECULE
ZINC03814703
   44    46     0     0     0
SMALL
USER_CHARGES

@<TRIPOS>ATOM
      1 C1          3.1147    7.5551   -5.6544 C.3       1 <0>        -0.1545
      2 C2          2.7860    6.3646   -4.7514 C.3       1 <0>         0.0518
      3 O1          3.9912    5.8556   -4.1767 O.3       1 <0>        -0.3102
      4 C3          3.8746    4.7891   -3.3429 C.ar      1 <0>         0.1551
      5 C4          5.0071    4.2457   -2.7511 C.ar      1 <0>        -0.1493
      6 C5          4.8929    3.1631   -1.9052 C.ar      1 <0>        -0.0386
      7 C6          3.6369    2.6136   -1.6436 C.ar      1 <0>        -0.0936
      8 C7          2.5016    3.1592   -2.2445 C.ar      1 <0>        -0.0591
      9 C8          2.6233    4.2452   -3.0851 C.ar      1 <0>        -0.2071
     10 C9          3.5101    1.4522   -0.7367 C.2       1 <0>         0.1544
     11 C10         4.4706    0.5135   -0.4830 C.2       1 <0>        -0.2070
     12 C11         3.9408   -0.4071    0.4218 C.2       1 <0>        -0.0026
     13 N1          2.7158   -0.0490    0.7143 N.2       1 <0>        -0.2181
     14 N2          2.4124    1.1200    0.0048 N.pl3     1 <0>        -0.3193
     15 C12         1.1992    1.8192    0.0442 C.ar      1 <0>         0.2006
     16 C13        -0.0039    1.1300   -0.0330 C.ar      1 <0>        -0.1242
     17 C14        -1.1983    1.8228    0.0003 C.ar      1 <0>         0.0015
     18 C15        -1.1971    3.2003    0.1209 C.ar      1 <0>        -0.6734
     19 C16        -0.0007    3.8896    0.1980 C.ar      1 <0>        -0.0008
     20 C17         1.1971    3.2030    0.1599 C.ar      1 <0>        -0.1330
     21 S1         -2.7231    4.0799    0.1692 S.o2      1 <0>         2.7027
     22 O2         -3.7061    3.1628    0.6295 O.2       1 <0>        -0.9561
     23 O3         -2.4615    5.3110    0.8289 O.2       1 <0>        -0.9565
     24 N3         -3.1213    4.4557   -1.3936 N.pl3     1 <0>        -1.2488
     25 C18         4.6591   -1.6127    0.9710 C.3       1 <0>         0.5571
     26 F1          3.7783   -2.3613    1.7591 F         1 <0>        -0.1634
     27 F2          5.1230   -2.4013   -0.0873 F         1 <0>        -0.1621
     28 F3          5.7426   -1.1948    1.7511 F         1 <0>        -0.1626
     29 H1          3.5945    8.3365   -5.0652 H         1 <0>         0.0684
     30 H2          3.7883    7.2336   -6.4487 H         1 <0>         0.0681
     31 H3          2.1953    7.9434   -6.0928 H         1 <0>         0.0813
     32 H4          2.3061    5.5832   -5.3406 H         1 <0>         0.0649
     33 H5          2.1123    6.6862   -3.9571 H         1 <0>         0.0655
     34 H6          5.9787    4.6715   -2.9539 H         1 <0>         0.1422
     35 H7          5.7742    2.7405   -1.4458 H         1 <0>         0.1414
     36 H8          1.5286    2.7337   -2.0483 H         1 <0>         0.1270
     37 H9          1.7447    4.6705   -3.5473 H         1 <0>         0.1360
     38 H10         5.4621    0.4868   -0.9102 H         1 <0>         0.1725
     39 H11        -0.0055    0.0538   -0.1235 H         1 <0>         0.1482
     40 H12        -2.1342    1.2877   -0.0641 H         1 <0>         0.1578
     41 H13        -0.0030    4.9658    0.2876 H         1 <0>         0.1575
     42 H14         2.1311    3.7419    0.2198 H         1 <0>         0.1464
     43 H15        -2.5389    4.1858   -2.1208 H         1 <0>         0.4166
     44 H16        -3.9370    4.9458   -1.5819 H         1 <0>         0.4236
@<TRIPOS>BOND
     1    1    2 1
     2    1   29 1
     3    1   30 1
     4    1   31 1
     5    2    3 1
     6    2   32 1
     7    2   33 1
     8    3    4 1
     9    4    9 ar
    10    4    5 ar
    11    5    6 ar
    12    5   34 1
    13    6    7 ar
    14    6   35 1
    15    7    8 ar
    16    7   10 1
    17    8    9 ar
    18    8   36 1
    19    9   37 1
    20   10   14 1
    21   10   11 2
    22   11   12 1
    23   11   38 1
    24   12   13 2
    25   12   25 1
    26   13   14 1
    27   14   15 1
    28   15   20 ar
    29   15   16 ar
    30   16   17 ar
    31   16   39 1
    32   17   18 ar
    33   17   40 1
    34   18   19 ar
    35   18   21 1
    36   19   20 ar
    37   19   41 1
    38   20   42 1
    39   21   22 2
    40   21   23 2
    41   21   24 1
    42   24   43 1
    43   24   44 1
    44   25   26 1
    45   25   27 1
    46   25   28 1
@<TRIPOS>MOLECULE
ZINC03814704
   41    43     0     0     0
SMALL
USER_CHARGES

@<TRIPOS>ATOM
      1 C1          2.3206    6.5145   -4.9404 C.3       1 <0>        -0.1494
      2 S1          4.0258    6.1715   -4.4256 S.3       1 <0>        -0.1000
      3 C2          3.8746    4.7888   -3.3439 C.ar      1 <0>        -0.0648
      4 C3          5.0088    4.2449   -2.7497 C.ar      1 <0>        -0.0970
      5 C4          4.8935    3.1632   -1.9042 C.ar      1 <0>        -0.0594
      6 C5          3.6370    2.6132   -1.6437 C.ar      1 <0>        -0.0584
      7 C6          2.5010    3.1577   -2.2456 C.ar      1 <0>        -0.0803
      8 C7          2.6214    4.2428   -3.0861 C.ar      1 <0>        -0.1324
      9 C8          3.5102    1.4523   -0.7367 C.2       1 <0>         0.1471
     10 C9          4.4713    0.5143   -0.4817 C.2       1 <0>        -0.2016
     11 C10         3.9412   -0.4065    0.4226 C.2       1 <0>        -0.0033
     12 N1          2.7158   -0.0491    0.7141 N.2       1 <0>        -0.2153
     13 N2          2.4122    1.1199    0.0045 N.pl3     1 <0>        -0.3177
     14 C11         1.1989    1.8188    0.0435 C.ar      1 <0>         0.1994
     15 C12        -0.0040    1.1293   -0.0339 C.ar      1 <0>        -0.1236
     16 C13        -1.1985    1.8218   -0.0009 C.ar      1 <0>         0.0016
     17 C14        -1.1977    3.1994    0.1196 C.ar      1 <0>        -0.6730
     18 C15        -0.0015    3.8889    0.1969 C.ar      1 <0>        -0.0008
     19 C16         1.1965    3.2026    0.1592 C.ar      1 <0>        -0.1325
     20 S2         -2.7239    4.0787    0.1675 S.o2      1 <0>         2.7025
     21 O1         -3.7068    3.1614    0.6276 O.2       1 <0>        -0.9558
     22 O2         -2.4627    5.3099    0.8271 O.2       1 <0>        -0.9562
     23 N3         -3.1218    4.4543   -1.3955 N.pl3     1 <0>        -1.2487
     24 C17         4.6593   -1.6122    0.9720 C.3       1 <0>         0.5573
     25 F1          3.7781   -2.3614    1.7590 F         1 <0>        -0.1631
     26 F2          5.1246   -2.4002   -0.0862 F         1 <0>        -0.1618
     27 F3          5.7419   -1.1942    1.7533 F         1 <0>        -0.1624
     28 H1          1.9109    5.6402   -5.4462 H         1 <0>         0.0863
     29 H2          1.7154    6.7435   -4.0632 H         1 <0>         0.0869
     30 H3          2.3108    7.3659   -5.6209 H         1 <0>         0.1137
     31 H4          5.9805    4.6707   -2.9515 H         1 <0>         0.1396
     32 H5          5.7744    2.7408   -1.4437 H         1 <0>         0.1402
     33 H6          1.5284    2.7311   -2.0496 H         1 <0>         0.1276
     34 H7          1.7425    4.6672   -3.5485 H         1 <0>         0.1314
     35 H8          5.4631    0.4877   -0.9084 H         1 <0>         0.1734
     36 H9         -0.0054    0.0531   -0.1242 H         1 <0>         0.1484
     37 H10        -2.1343    1.2866   -0.0655 H         1 <0>         0.1581
     38 H11        -0.0040    4.9652    0.2864 H         1 <0>         0.1577
     39 H12         2.1304    3.7417    0.2192 H         1 <0>         0.1461
     40 H13        -2.5391    4.1844   -2.1226 H         1 <0>         0.4165
     41 H14        -3.9375    4.9441   -1.5840 H         1 <0>         0.4237
@<TRIPOS>BOND
     1    1    2 1
     2    1   28 1
     3    1   29 1
     4    1   30 1
     5    2    3 1
     6    3    8 ar
     7    3    4 ar
     8    4    5 ar
     9    4   31 1
    10    5    6 ar
    11    5   32 1
    12    6    7 ar
    13    6    9 1
    14    7    8 ar
    15    7   33 1
    16    8   34 1
    17    9   13 1
    18    9   10 2
    19   10   11 1
    20   10   35 1
    21   11   12 2
    22   11   24 1
    23   12   13 1
    24   13   14 1
    25   14   19 ar
    26   14   15 ar
    27   15   16 ar
    28   15   36 1
    29   16   17 ar
    30   16   37 1
    31   17   18 ar
    32   17   20 1
    33   18   19 ar
    34   18   38 1
    35   19   39 1
    36   20   21 2
    37   20   22 2
    38   20   23 1
    39   23   40 1
    40   23   41 1
    41   24   25 1
    42   24   26 1
    43   24   27 1
@<TRIPOS>MOLECULE
ZINC03814705
   39    41     0     0     0
SMALL
USER_CHARGES

@<TRIPOS>ATOM
      1 C1          2.5011    3.1586   -2.2445 C.ar      1 <0>        -0.0490
      2 C2          2.6218    4.2434   -3.0860 C.ar      1 <0>        -0.1969
      3 C3          3.8746    4.7885   -3.3443 C.ar      1 <0>         0.2401
      4 C4          5.0083    4.2441   -2.7515 C.ar      1 <0>        -0.1976
      5 C5          4.8933    3.1624   -1.9054 C.ar      1 <0>        -0.0270
      6 C6          3.6369    2.6133   -1.6438 C.ar      1 <0>        -0.1186
      7 C7          3.5101    1.4522   -0.7367 C.2       1 <0>         0.1635
      8 C8          4.4705    0.5132   -0.4833 C.2       1 <0>        -0.2147
      9 C9          3.9407   -0.4072    0.4217 C.2       1 <0>        -0.0020
     10 N1          2.7159   -0.0489    0.7145 N.2       1 <0>        -0.2229
     11 N2          2.4125    1.1203    0.0051 N.pl3     1 <0>        -0.3215
     12 C10         1.1995    1.8197    0.0448 C.ar      1 <0>         0.2029
     13 C11        -0.0038    1.1308   -0.0320 C.ar      1 <0>        -0.1255
     14 C12        -1.1980    1.8238    0.0017 C.ar      1 <0>         0.0010
     15 C13        -1.1965    3.2014    0.1223 C.ar      1 <0>        -0.6742
     16 C14         0.0001    3.8903    0.1990 C.ar      1 <0>        -0.0007
     17 C15         1.1977    3.2035    0.1606 C.ar      1 <0>        -0.1316
     18 S1         -2.7222    4.0813    0.1710 S.o2      1 <0>         2.7030
     19 O1         -3.7053    3.1644    0.6316 O.2       1 <0>        -0.9570
     20 O2         -2.4602    5.3123    0.8307 O.2       1 <0>        -0.9574
     21 N3         -3.1208    4.4572   -1.3917 N.pl3     1 <0>        -1.2488
     22 C16         4.6586   -1.6133    0.9703 C.3       1 <0>         0.5569
     23 F1          3.7777   -2.3618    1.7583 F         1 <0>        -0.1640
     24 F2          5.1221   -2.4017   -0.0883 F         1 <0>        -0.1627
     25 F3          5.7424   -1.1961    1.7504 F         1 <0>        -0.1634
     26 N4          3.9942    5.8840   -4.2007 N.pl3     1 <0>        -0.8695
     27 H1          1.5282    2.7331   -2.0475 H         1 <0>         0.1230
     28 H2          1.7429    4.6681   -3.5481 H         1 <0>         0.1280
     29 H3          5.9802    4.6692   -2.9545 H         1 <0>         0.1304
     30 H4          5.7743    2.7398   -1.4455 H         1 <0>         0.1328
     31 H5          5.4618    0.4860   -0.9110 H         1 <0>         0.1704
     32 H6         -0.0057    0.0546   -0.1224 H         1 <0>         0.1475
     33 H7         -2.1340    1.2889   -0.0621 H         1 <0>         0.1570
     34 H8         -0.0019    4.9666    0.2886 H         1 <0>         0.1569
     35 H9          2.1319    3.7422    0.2201 H         1 <0>         0.1470
     36 H10        -2.5387    4.1871   -2.1191 H         1 <0>         0.4168
     37 H11        -3.9365    4.9474   -1.5797 H         1 <0>         0.4232
     38 H12         4.8678    6.2648   -4.3819 H         1 <0>         0.4026
     39 H13         3.2039    6.2645   -4.6148 H         1 <0>         0.4020
@<TRIPOS>BOND
     1    1    6 ar
     2    1    2 ar
     3    1   27 1
     4    2    3 ar
     5    2   28 1
     6    3    4 ar
     7    3   26 1
     8    4    5 ar
     9    4   29 1
    10    5    6 ar
    11    5   30 1
    12    6    7 1
    13    7   11 1
    14    7    8 2
    15    8    9 1
    16    8   31 1
    17    9   10 2
    18    9   22 1
    19   10   11 1
    20   11   12 1
    21   12   17 ar
    22   12   13 ar
    23   13   14 ar
    24   13   32 1
    25   14   15 ar
    26   14   33 1
    27   15   16 ar
    28   15   18 1
    29   16   17 ar
    30   16   34 1
    31   17   35 1
    32   18   19 2
    33   18   20 2
    34   18   21 1
    35   21   36 1
    36   21   37 1
    37   22   23 1
    38   22   24 1
    39   22   25 1
    40   26   38 1
    41   26   39 1
@<TRIPOS>MOLECULE
ZINC03814706
   42    44     0     0     0
SMALL
USER_CHARGES

@<TRIPOS>ATOM
      1 C1          2.8006    6.4587   -4.8261 C.3       1 <0>         0.0868
      2 N1          3.9942    5.8840   -4.2007 N.pl3     1 <0>        -0.7451
      3 C2          3.8746    4.7885   -3.3443 C.ar      1 <0>         0.2366
      4 C3          5.0083    4.2441   -2.7515 C.ar      1 <0>        -0.1946
      5 C4          4.8933    3.1624   -1.9054 C.ar      1 <0>        -0.0280
      6 C5          3.6369    2.6133   -1.6438 C.ar      1 <0>        -0.1183
      7 C6          2.5011    3.1586   -2.2445 C.ar      1 <0>        -0.0495
      8 C7          2.6218    4.2434   -3.0860 C.ar      1 <0>        -0.1956
      9 C8          3.5101    1.4522   -0.7367 C.2       1 <0>         0.1640
     10 C9          4.4705    0.5132   -0.4833 C.2       1 <0>        -0.2149
     11 C10         3.9407   -0.4072    0.4217 C.2       1 <0>        -0.0020
     12 N2          2.7159   -0.0489    0.7145 N.2       1 <0>        -0.2231
     13 N3          2.4125    1.1203    0.0051 N.pl3     1 <0>        -0.3216
     14 C11         1.1995    1.8197    0.0448 C.ar      1 <0>         0.2033
     15 C12        -0.0038    1.1308   -0.0320 C.ar      1 <0>        -0.1256
     16 C13        -1.1980    1.8238    0.0017 C.ar      1 <0>         0.0009
     17 C14        -1.1965    3.2014    0.1223 C.ar      1 <0>        -0.6743
     18 C15         0.0001    3.8903    0.1990 C.ar      1 <0>        -0.0007
     19 C16         1.1977    3.2035    0.1606 C.ar      1 <0>        -0.1314
     20 S1         -2.7222    4.0813    0.1710 S.o2      1 <0>         2.7028
     21 O1         -3.7053    3.1644    0.6316 O.2       1 <0>        -0.9571
     22 O2         -2.4602    5.3123    0.8307 O.2       1 <0>        -0.9574
     23 N4         -3.1208    4.4572   -1.3917 N.pl3     1 <0>        -1.2488
     24 C17         4.6586   -1.6133    0.9703 C.3       1 <0>         0.5569
     25 F1          3.7777   -2.3618    1.7583 F         1 <0>        -0.1641
     26 F2          5.1221   -2.4017   -0.0883 F         1 <0>        -0.1627
     27 F3          5.7424   -1.1961    1.7504 F         1 <0>        -0.1634
     28 H1          2.3089    5.7005   -5.4356 H         1 <0>         0.0559
     29 H2          2.1150    6.8033   -4.0520 H         1 <0>         0.0565
     30 H3          3.0897    7.2999   -5.4561 H         1 <0>         0.0774
     31 H4          4.8678    6.2648   -4.3819 H         1 <0>         0.4046
     32 H5          5.9802    4.6692   -2.9545 H         1 <0>         0.1302
     33 H6          5.7743    2.7398   -1.4455 H         1 <0>         0.1327
     34 H7          1.5282    2.7331   -2.0475 H         1 <0>         0.1225
     35 H8          1.7429    4.6681   -3.5481 H         1 <0>         0.1287
     36 H9          5.4618    0.4860   -0.9110 H         1 <0>         0.1703
     37 H10        -0.0057    0.0546   -0.1224 H         1 <0>         0.1474
     38 H11        -2.1340    1.2889   -0.0621 H         1 <0>         0.1569
     39 H12        -0.0019    4.9666    0.2886 H         1 <0>         0.1567
     40 H13         2.1319    3.7422    0.2201 H         1 <0>         0.1469
     41 H14        -2.5387    4.1871   -2.1191 H         1 <0>         0.4168
     42 H15        -3.9365    4.9474   -1.5797 H         1 <0>         0.4232
@<TRIPOS>BOND
     1    1    2 1
     2    1   28 1
     3    1   29 1
     4    1   30 1
     5    2    3 1
     6    2   31 1
     7    3    8 ar
     8    3    4 ar
     9    4    5 ar
    10    4   32 1
    11    5    6 ar
    12    5   33 1
    13    6    7 ar
    14    6    9 1
    15    7    8 ar
    16    7   34 1
    17    8   35 1
    18    9   13 1
    19    9   10 2
    20   10   11 1
    21   10   36 1
    22   11   12 2
    23   11   24 1
    24   12   13 1
    25   13   14 1
    26   14   19 ar
    27   14   15 ar
    28   15   16 ar
    29   15   37 1
    30   16   17 ar
    31   16   38 1
    32   17   18 ar
    33   17   20 1
    34   18   19 ar
    35   18   39 1
    36   19   40 1
    37   20   21 2
    38   20   22 2
    39   20   23 1
    40   23   41 1
    41   23   42 1
    42   24   25 1
    43   24   26 1
    44   24   27 1
@<TRIPOS>MOLECULE
ZINC03814707
   45    47     0     0     0
SMALL
USER_CHARGES

@<TRIPOS>ATOM
      1 C1          5.3135    6.4592   -4.4743 C.3       1 <0>         0.0869
      2 N1          3.9942    5.8840   -4.2007 N.pl3     1 <0>        -0.6305
      3 C2          2.8006    6.4587   -4.8261 C.3       1 <0>         0.0900
      4 C3          3.8746    4.7885   -3.3443 C.ar      1 <0>         0.2371
      5 C4          5.0083    4.2441   -2.7515 C.ar      1 <0>        -0.1973
      6 C5          4.8933    3.1624   -1.9054 C.ar      1 <0>        -0.0276
      7 C6          3.6369    2.6133   -1.6438 C.ar      1 <0>        -0.1189
      8 C7          2.5011    3.1586   -2.2445 C.ar      1 <0>        -0.0493
      9 C8          2.6218    4.2434   -3.0860 C.ar      1 <0>        -0.1940
     10 C9          3.5101    1.4522   -0.7367 C.2       1 <0>         0.1646
     11 C10         4.4705    0.5132   -0.4833 C.2       1 <0>        -0.2153
     12 C11         3.9407   -0.4072    0.4217 C.2       1 <0>        -0.0019
     13 N2          2.7159   -0.0489    0.7145 N.2       1 <0>        -0.2233
     14 N3          2.4125    1.1203    0.0051 N.pl3     1 <0>        -0.3217
     15 C12         1.1995    1.8197    0.0448 C.ar      1 <0>         0.2034
     16 C13        -0.0038    1.1308   -0.0320 C.ar      1 <0>        -0.1256
     17 C14        -1.1980    1.8238    0.0017 C.ar      1 <0>         0.0009
     18 C15        -1.1965    3.2014    0.1223 C.ar      1 <0>        -0.6743
     19 C16         0.0001    3.8903    0.1990 C.ar      1 <0>        -0.0006
     20 C17         1.1977    3.2035    0.1606 C.ar      1 <0>        -0.1312
     21 S1         -2.7222    4.0813    0.1710 S.o2      1 <0>         2.7028
     22 O1         -3.7053    3.1644    0.6316 O.2       1 <0>        -0.9571
     23 O2         -2.4602    5.3123    0.8307 O.2       1 <0>        -0.9575
     24 N4         -3.1208    4.4572   -1.3917 N.pl3     1 <0>        -1.2488
     25 C18         4.6586   -1.6133    0.9703 C.3       1 <0>         0.5569
     26 F1          3.7777   -2.3618    1.7583 F         1 <0>        -0.1641
     27 F2          5.1221   -2.4017   -0.0883 F         1 <0>        -0.1628
     28 F3          5.7424   -1.1961    1.7504 F         1 <0>        -0.1635
     29 H1          5.7527    5.9651   -5.3410 H         1 <0>         0.0534
     30 H2          5.2101    7.5251   -4.6774 H         1 <0>         0.0710
     31 H3          5.9593    6.3153   -3.6081 H         1 <0>         0.0719
     32 H4          2.1150    6.8033   -4.0520 H         1 <0>         0.0581
     33 H5          3.0897    7.2999   -5.4561 H         1 <0>         0.0771
     34 H6          2.3089    5.7005   -5.4356 H         1 <0>         0.0576
     35 H7          5.9802    4.6692   -2.9545 H         1 <0>         0.1323
     36 H8          5.7743    2.7398   -1.4455 H         1 <0>         0.1324
     37 H9          1.5282    2.7331   -2.0475 H         1 <0>         0.1225
     38 H10         1.7429    4.6681   -3.5481 H         1 <0>         0.1287
     39 H11         5.4618    0.4860   -0.9110 H         1 <0>         0.1701
     40 H12        -0.0057    0.0546   -0.1224 H         1 <0>         0.1474
     41 H13        -2.1340    1.2889   -0.0621 H         1 <0>         0.1568
     42 H14        -0.0019    4.9666    0.2886 H         1 <0>         0.1566
     43 H15         2.1319    3.7422    0.2201 H         1 <0>         0.1468
     44 H16        -2.5387    4.1871   -2.1191 H         1 <0>         0.4168
     45 H17        -3.9365    4.9474   -1.5797 H         1 <0>         0.4232
@<TRIPOS>BOND
     1    1    2 1
     2    1   29 1
     3    1   30 1
     4    1   31 1
     5    2    3 1
     6    2    4 1
     7    3   32 1
     8    3   33 1
     9    3   34 1
    10    4    9 ar
    11    4    5 ar
    12    5    6 ar
    13    5   35 1
    14    6    7 ar
    15    6   36 1
    16    7    8 ar
    17    7   10 1
    18    8    9 ar
    19    8   37 1
    20    9   38 1
    21   10   14 1
    22   10   11 2
    23   11   12 1
    24   11   39 1
    25   12   13 2
    26   12   25 1
    27   13   14 1
    28   14   15 1
    29   15   20 ar
    30   15   16 ar
    31   16   17 ar
    32   16   40 1
    33   17   18 ar
    34   17   41 1
    35   18   19 ar
    36   18   21 1
    37   19   20 ar
    38   19   42 1
    39   20   43 1
    40   21   22 2
    41   21   23 2
    42   21   24 1
    43   24   44 1
    44   24   45 1
    45   25   26 1
    46   25   27 1
    47   25   28 1
@<TRIPOS>MOLECULE
ZINC03814708
   44    46     0     0     0
SMALL
USER_CHARGES

@<TRIPOS>ATOM
      1 C1          4.7330   -3.9232   -0.6527 C.3       1 <0>        -0.1079
      2 C2          3.2817   -3.5170   -0.6475 C.ar      1 <0>        -0.1128
      3 C3          2.9360   -2.2005   -0.4276 C.ar      1 <0>        -0.0438
      4 C4          1.5920   -1.8252   -0.4235 C.ar      1 <0>        -0.0893
      5 C5          0.6022   -2.7860   -0.6368 C.ar      1 <0>        -0.0659
      6 C6          0.9559   -4.0994   -0.8607 C.ar      1 <0>        -0.2007
      7 C7          2.2946   -4.4688   -0.8646 C.ar      1 <0>         0.1502
      8 O1          2.6391   -5.7653   -1.0809 O.3       1 <0>        -0.3081
      9 C8          1.5734   -6.6923   -1.2972 C.3       1 <0>         0.0223
     10 C9          1.2169   -0.4142   -0.1875 C.2       1 <0>         0.1566
     11 C10         1.9877    0.6837   -0.4492 C.2       1 <0>        -0.2078
     12 C11         1.2595    1.8155   -0.0808 C.2       1 <0>        -0.0025
     13 N1          0.0973    1.4321    0.3847 N.2       1 <0>        -0.2195
     14 N2          0.0361    0.0337    0.3323 N.pl3     1 <0>        -0.3193
     15 C12        -1.0422   -0.7622    0.7397 C.ar      1 <0>         0.1997
     16 C13        -2.3378   -0.4162    0.3789 C.ar      1 <0>        -0.1241
     17 C14        -3.3983   -1.2062    0.7773 C.ar      1 <0>         0.0032
     18 C15        -3.1722   -2.3343    1.5443 C.ar      1 <0>        -0.6751
     19 C16        -1.8837   -2.6784    1.9101 C.ar      1 <0>        -0.0046
     20 C17        -0.8184   -1.8957    1.5100 C.ar      1 <0>        -0.1324
     21 S1         -4.5286   -3.3352    2.0572 S.o2      1 <0>         2.7036
     22 O2         -5.5787   -3.1028    1.1285 O.2       1 <0>        -0.9569
     23 O3         -4.0049   -4.6325    2.3060 O.2       1 <0>        -0.9550
     24 N3         -5.0476   -2.7465    3.5154 N.pl3     1 <0>        -1.2463
     25 C18         1.7317    3.2416   -0.1998 C.3       1 <0>         0.5573
     26 F1          0.7822    4.0963    0.3704 F         1 <0>        -0.1638
     27 F2          2.9514    3.3865    0.4699 F         1 <0>        -0.1623
     28 F3          1.8998    3.5661   -1.5503 F         1 <0>        -0.1626
     29 H1          5.0358   -4.2023    0.3565 H         1 <0>         0.0725
     30 H2          4.8700   -4.7732   -1.3212 H         1 <0>         0.0739
     31 H3          5.3428   -3.0880   -0.9972 H         1 <0>         0.0696
     32 H4          3.7045   -1.4605   -0.2592 H         1 <0>         0.1405
     33 H5         -0.4392   -2.5002   -0.6299 H         1 <0>         0.1270
     34 H6          0.1908   -4.8427   -1.0292 H         1 <0>         0.1378
     35 H7          1.0021   -6.3907   -2.1751 H         1 <0>         0.0588
     36 H8          1.9854   -7.6888   -1.4566 H         1 <0>         0.1052
     37 H9          0.9199   -6.7046   -0.4250 H         1 <0>         0.0600
     38 H10         2.9839    0.6766   -0.8664 H         1 <0>         0.1722
     39 H11        -2.5154    0.4672   -0.2165 H         1 <0>         0.1478
     40 H12        -4.4057   -0.9402    0.4929 H         1 <0>         0.1570
     41 H13        -1.7103   -3.5599    2.5095 H         1 <0>         0.1569
     42 H14         0.1876   -2.1648    1.7963 H         1 <0>         0.1460
     43 H15        -5.9807   -2.8288    3.7673 H         1 <0>         0.4241
     44 H16        -4.4185   -2.3195    4.1177 H         1 <0>         0.4184
@<TRIPOS>BOND
     1    1    2 1
     2    1   29 1
     3    1   30 1
     4    1   31 1
     5    2    7 ar
     6    2    3 ar
     7    3    4 ar
     8    3   32 1
     9    4    5 ar
    10    4   10 1
    11    5    6 ar
    12    5   33 1
    13    6    7 ar
    14    6   34 1
    15    7    8 1
    16    8    9 1
    17    9   35 1
    18    9   36 1
    19    9   37 1
    20   10   14 1
    21   10   11 2
    22   11   12 1
    23   11   38 1
    24   12   13 2
    25   12   25 1
    26   13   14 1
    27   14   15 1
    28   15   20 ar
    29   15   16 ar
    30   16   17 ar
    31   16   39 1
    32   17   18 ar
    33   17   40 1
    34   18   19 ar
    35   18   21 1
    36   19   20 ar
    37   19   41 1
    38   20   42 1
    39   21   22 2
    40   21   23 2
    41   21   24 1
    42   24   43 1
    43   24   44 1
    44   25   26 1
    45   25   27 1
    46   25   28 1
@<TRIPOS>MOLECULE
ZINC03814709
   47    49     0     0     0
SMALL
USER_CHARGES

@<TRIPOS>ATOM
      1 C1          0.6973    8.2135    7.0874 C.3       1 <0>        -0.1461
      2 C2          0.6436    6.9405    7.9344 C.3       1 <0>        -0.0770
      3 C3          0.3581    5.7575    7.0457 C.ar      1 <0>        -0.1097
      4 C4         -0.9373    5.3124    6.8868 C.ar      1 <0>        -0.0413
      5 C5         -1.2006    4.2166    6.0640 C.ar      1 <0>        -0.0901
      6 C6         -0.1501    3.5718    5.4090 C.ar      1 <0>        -0.0638
      7 C7          1.1416    4.0255    5.5690 C.ar      1 <0>        -0.2022
      8 C8          1.3997    5.1167    6.3884 C.ar      1 <0>         0.1536
      9 O1          2.6748    5.5581    6.5474 O.3       1 <0>        -0.3067
     10 C9          3.6982    4.8530    5.8421 C.3       1 <0>         0.0221
     11 C10        -2.5886    3.7358    5.8912 C.2       1 <0>         0.1567
     12 C11        -3.6137    3.8819    6.7834 C.2       1 <0>        -0.2082
     13 C12        -4.7475    3.2821    6.2343 C.2       1 <0>        -0.0029
     14 N1         -4.4362    2.7956    5.0592 N.2       1 <0>        -0.2199
     15 N2         -3.0847    3.0663    4.8092 N.pl3     1 <0>        -0.3186
     16 C13        -2.3694    2.7091    3.6590 C.ar      1 <0>         0.1977
     17 C14        -2.4973    1.4322    3.1286 C.ar      1 <0>        -0.1240
     18 C15        -1.7903    1.0830    1.9947 C.ar      1 <0>         0.0015
     19 C16        -0.9560    2.0035    1.3875 C.ar      1 <0>        -0.6779
     20 C17        -0.8221    3.2741    1.9165 C.ar      1 <0>        -0.0059
     21 C18        -1.5304    3.6311    3.0472 C.ar      1 <0>        -0.1318
     22 S1         -0.0562    1.5543   -0.0593 S.o2      1 <0>         2.7041
     23 O2          0.0690    0.1390   -0.0366 O.2       1 <0>        -0.9537
     24 O3          1.0706    2.4178   -0.1212 O.2       1 <0>        -0.9522
     25 N3         -1.0083    1.9243   -1.3627 N.pl3     1 <0>        -1.2422
     26 C19        -6.1043    3.2062    6.8856 C.3       1 <0>         0.5572
     27 F1         -6.9601    2.4348    6.0920 F         1 <0>        -0.1639
     28 F2         -5.9829    2.6175    8.1489 F         1 <0>        -0.1621
     29 F3         -6.6297    4.4958    7.0206 F         1 <0>        -0.1630
     30 H1          0.9038    9.0692    7.7302 H         1 <0>         0.0599
     31 H2          1.4865    8.1206    6.3414 H         1 <0>         0.0569
     32 H3         -0.2604    8.3577    6.5871 H         1 <0>         0.0538
     33 H4         -0.1456    7.0334    8.6804 H         1 <0>         0.0740
     34 H5          1.6013    6.7964    8.4347 H         1 <0>         0.0789
     35 H6         -1.7470    5.8116    7.3982 H         1 <0>         0.1398
     36 H7         -0.3496    2.7208    4.7746 H         1 <0>         0.1265
     37 H8          1.9545    3.5294    5.0596 H         1 <0>         0.1376
     38 H9          3.7071    3.8107    6.1610 H         1 <0>         0.0586
     39 H10         3.5022    4.9036    4.7711 H         1 <0>         0.0597
     40 H11         4.6658    5.3068    6.0563 H         1 <0>         0.1050
     41 H12        -3.5553    4.3709    7.7445 H         1 <0>         0.1719
     42 H13        -3.1488    0.7128    3.6024 H         1 <0>         0.1469
     43 H14        -1.8894    0.0900    1.5817 H         1 <0>         0.1556
     44 H15        -0.1664    3.9895    1.4425 H         1 <0>         0.1555
     45 H16        -1.4288    4.6250    3.4574 H         1 <0>         0.1451
     46 H17        -1.2804    1.2260   -1.9784 H         1 <0>         0.4245
     47 H18        -1.2939    2.8395   -1.5105 H         1 <0>         0.4201
@<TRIPOS>BOND
     1    1    2 1
     2    1   30 1
     3    1   31 1
     4    1   32 1
     5    2    3 1
     6    2   33 1
     7    2   34 1
     8    3    8 ar
     9    3    4 ar
    10    4    5 ar
    11    4   35 1
    12    5    6 ar
    13    5   11 1
    14    6    7 ar
    15    6   36 1
    16    7    8 ar
    17    7   37 1
    18    8    9 1
    19    9   10 1
    20   10   38 1
    21   10   39 1
    22   10   40 1
    23   11   15 1
    24   11   12 2
    25   12   13 1
    26   12   41 1
    27   13   14 2
    28   13   26 1
    29   14   15 1
    30   15   16 1
    31   16   21 ar
    32   16   17 ar
    33   17   18 ar
    34   17   42 1
    35   18   19 ar
    36   18   43 1
    37   19   20 ar
    38   19   22 1
    39   20   21 ar
    40   20   44 1
    41   21   45 1
    42   22   23 2
    43   22   24 2
    44   22   25 1
    45   25   46 1
    46   25   47 1
    47   26   27 1
    48   26   28 1
    49   26   29 1
@<TRIPOS>MOLECULE
ZINC03814710
   45    47     0     0     0
SMALL
USER_CHARGES

@<TRIPOS>ATOM
      1 C1          1.5634   -6.6954   -1.3000 C.3       1 <0>         0.0215
      2 O1          2.6315   -5.7710   -1.0835 O.3       1 <0>        -0.3001
      3 C2          2.2900   -4.4730   -0.8667 C.ar      1 <0>         0.1249
      4 C3          0.9541   -4.1002   -0.8625 C.ar      1 <0>        -0.1702
      5 C4          0.6025   -2.7854   -0.6368 C.ar      1 <0>        -0.0954
      6 C5          1.5922   -1.8251   -0.4235 C.ar      1 <0>        -0.0526
      7 C6          2.9364   -2.1998   -0.4276 C.ar      1 <0>        -0.1372
      8 C7          3.2824   -3.5204   -0.6487 C.ar      1 <0>         0.1047
      9 O2          4.5915   -3.8887   -0.6538 O.3       1 <0>        -0.3007
     10 C8          5.5559   -2.8596   -0.4239 C.3       1 <0>         0.0221
     11 C9          1.2170   -0.4141   -0.1875 C.2       1 <0>         0.1541
     12 C10         1.9874    0.6839   -0.4498 C.2       1 <0>        -0.2055
     13 C11         1.2592    1.8156   -0.0812 C.2       1 <0>        -0.0028
     14 N1          0.0974    1.4321    0.3852 N.2       1 <0>        -0.2166
     15 N2          0.0364    0.0336    0.3330 N.pl3     1 <0>        -0.3174
     16 C12        -1.0417   -0.7624    0.7408 C.ar      1 <0>         0.1992
     17 C13        -2.3374   -0.4164    0.3807 C.ar      1 <0>        -0.1233
     18 C14        -3.3979   -1.2057    0.7808 C.ar      1 <0>         0.0014
     19 C15        -3.1712   -2.3342    1.5472 C.ar      1 <0>        -0.6731
     20 C16        -1.8825   -2.6785    1.9118 C.ar      1 <0>        -0.0011
     21 C17        -0.8174   -1.8960    1.5109 C.ar      1 <0>        -0.1314
     22 S1         -4.5273   -3.3351    2.0607 S.o2      1 <0>         2.7033
     23 O3         -5.5781   -3.1023    1.1329 O.2       1 <0>        -0.9570
     24 O4         -4.0035   -4.6325    2.3087 O.2       1 <0>        -0.9574
     25 N3         -5.0451   -2.7470    3.5196 N.pl3     1 <0>        -1.2486
     26 C18         1.7313    3.2418   -0.2001 C.3       1 <0>         0.5574
     27 F1          0.7823    4.0963    0.3713 F         1 <0>        -0.1632
     28 F2          2.9516    3.3863    0.4687 F         1 <0>        -0.1624
     29 F3          1.8983    3.5667   -1.5505 F         1 <0>        -0.1623
     30 H1          0.9099   -6.7063   -0.4277 H         1 <0>         0.0598
     31 H2          0.9927   -6.3921   -2.1777 H         1 <0>         0.0586
     32 H3          1.9729   -7.6928   -1.4597 H         1 <0>         0.1057
     33 H4          0.1873   -4.8417   -1.0315 H         1 <0>         0.1455
     34 H5         -0.4387   -2.4986   -0.6293 H         1 <0>         0.1301
     35 H6          3.7049   -1.4601   -0.2588 H         1 <0>         0.1460
     36 H7          5.4635   -2.0960   -1.1962 H         1 <0>         0.0581
     37 H8          5.3818   -2.4104    0.5538 H         1 <0>         0.0575
     38 H9          6.5580   -3.2874   -0.4540 H         1 <0>         0.1053
     39 H10         2.9831    0.6769   -0.8682 H         1 <0>         0.1713
     40 H11        -2.5154    0.4669   -0.2147 H         1 <0>         0.1482
     41 H12        -4.4055   -0.9394    0.4976 H         1 <0>         0.1579
     42 H13        -1.7088   -3.5600    2.5111 H         1 <0>         0.1579
     43 H14         0.1888   -2.1652    1.7963 H         1 <0>         0.1465
     44 H15        -4.6013   -1.9829    3.9196 H         1 <0>         0.4179
     45 H16        -5.7923   -3.1666    3.9741 H         1 <0>         0.4235
@<TRIPOS>BOND
     1    1    2 1
     2    1   30 1
     3    1   31 1
     4    1   32 1
     5    2    3 1
     6    3    8 ar
     7    3    4 ar
     8    4    5 ar
     9    4   33 1
    10    5    6 ar
    11    5   34 1
    12    6    7 ar
    13    6   11 1
    14    7    8 ar
    15    7   35 1
    16    8    9 1
    17    9   10 1
    18   10   36 1
    19   10   37 1
    20   10   38 1
    21   11   15 1
    22   11   12 2
    23   12   13 1
    24   12   39 1
    25   13   14 2
    26   13   26 1
    27   14   15 1
    28   15   16 1
    29   16   21 ar
    30   16   17 ar
    31   17   18 ar
    32   17   40 1
    33   18   19 ar
    34   18   41 1
    35   19   20 ar
    36   19   22 1
    37   20   21 ar
    38   20   42 1
    39   21   43 1
    40   22   23 2
    41   22   24 2
    42   22   25 1
    43   25   44 1
    44   25   45 1
    45   26   27 1
    46   26   28 1
    47   26   29 1
@<TRIPOS>MOLECULE
ZINC03814711
   37    39     0     0     0
SMALL
USER_CHARGES

@<TRIPOS>ATOM
      1 C1         -6.0730    3.1182    6.9359 C.3       1 <0>        -0.0805
      2 C2         -4.7328    3.2417    6.2578 C.2       1 <0>         0.1086
      3 C3         -3.6356    3.9530    6.7467 C.2       1 <0>        -0.1606
      4 C4         -2.6139    3.8165    5.8485 C.2       1 <0>         0.1517
      5 N1         -3.0774    3.0434    4.8213 N.pl3     1 <0>        -0.3272
      6 N2         -4.4037    2.6994    5.1123 N.2       1 <0>        -0.2658
      7 C5         -2.3543    2.6590    3.6848 C.ar      1 <0>         0.2166
      8 C6         -2.5599    1.4073    3.1197 C.ar      1 <0>        -0.1320
      9 C7         -1.8457    1.0315    1.9989 C.ar      1 <0>         0.0038
     10 C8         -0.9267    1.9002    1.4394 C.ar      1 <0>        -0.6812
     11 C9         -0.7159    3.1453    2.0029 C.ar      1 <0>         0.0057
     12 C10        -1.4308    3.5291    3.1206 C.ar      1 <0>        -0.1450
     13 S1         -0.0172    1.4168    0.0098 S.o2      1 <0>         2.7039
     14 O1          0.0021   -0.0041    0.0020 O.2       1 <0>        -0.9590
     15 O2          1.1718    2.1948    0.0027 O.2       1 <0>        -0.9589
     16 N3         -0.8975    1.8855   -1.3122 N.pl3     1 <0>        -1.2492
     17 C11        -1.2600    4.4002    5.9650 C.ar      1 <0>        -0.0563
     18 C12        -0.1354    3.6228    5.6857 C.ar      1 <0>        -0.0919
     19 C13         1.1247    4.1747    5.7917 C.ar      1 <0>        -0.1163
     20 C14         1.2750    5.4928    6.1841 C.ar      1 <0>        -0.0973
     21 C15         0.1643    6.2675    6.4674 C.ar      1 <0>        -0.1168
     22 C16        -1.1015    5.7291    6.3602 C.ar      1 <0>        -0.0795
     23 Cl1        -3.5766    4.8459    8.2343 Cl        1 <0>        -0.0195
     24 H1         -6.0698    2.2471    7.5910 H         1 <0>         0.0883
     25 H2         -6.2664    4.0149    7.5246 H         1 <0>         0.0869
     26 H3         -6.8522    3.0033    6.1824 H         1 <0>         0.0833
     27 H4         -3.2773    0.7283    3.5564 H         1 <0>         0.1474
     28 H5         -2.0054    0.0583    1.5587 H         1 <0>         0.1556
     29 H6          0.0055    3.8200    1.5660 H         1 <0>         0.1554
     30 H7         -1.2686    4.5033    3.5578 H         1 <0>         0.1441
     31 H8         -1.7474    2.3376   -1.1935 H         1 <0>         0.4175
     32 H9         -0.5632    1.7079   -2.2053 H         1 <0>         0.4228
     33 H10        -0.2512    2.5924    5.3837 H         1 <0>         0.1208
     34 H11         1.9957    3.5752    5.5719 H         1 <0>         0.1315
     35 H12         2.2637    5.9191    6.2691 H         1 <0>         0.1302
     36 H13         0.2883    7.2959    6.7729 H         1 <0>         0.1324
     37 H14        -1.9678    6.3349    6.5814 H         1 <0>         0.1304
@<TRIPOS>BOND
     1    1    2 1
     2    1   24 1
     3    1   25 1
     4    1   26 1
     5    2    6 2
     6    2    3 1
     7    3    4 2
     8    3   23 1
     9    4    5 1
    10    4   17 1
    11    5    6 1
    12    5    7 1
    13    7   12 ar
    14    7    8 ar
    15    8    9 ar
    16    8   27 1
    17    9   10 ar
    18    9   28 1
    19   10   11 ar
    20   10   13 1
    21   11   12 ar
    22   11   29 1
    23   12   30 1
    24   13   14 2
    25   13   15 2
    26   13   16 1
    27   16   31 1
    28   16   32 1
    29   17   22 ar
    30   17   18 ar
    31   18   19 ar
    32   18   33 1
    33   19   20 ar
    34   19   34 1
    35   20   21 ar
    36   20   35 1
    37   21   22 ar
    38   21   36 1
    39   22   37 1
@<TRIPOS>MOLECULE
ZINC03814712
   38    40     0     0     0
SMALL
USER_CHARGES

@<TRIPOS>ATOM
      1 C1         -0.1356    3.6382    5.6778 C.ar      1 <0>        -0.0794
      2 C2          1.1221    4.1957    5.7793 C.ar      1 <0>        -0.1066
      3 C3          1.2675    5.5164    6.1691 C.ar      1 <0>        -0.0161
      4 C4          0.1525    6.2869    6.4532 C.ar      1 <0>        -0.1064
      5 C5         -1.1104    5.7417    6.3500 C.ar      1 <0>        -0.0666
      6 C6         -1.2631    4.4111    5.9581 C.ar      1 <0>        -0.0503
      7 C7         -2.6145    3.8207    5.8462 C.2       1 <0>         0.1448
      8 C8         -3.6338    3.9520    6.7479 C.2       1 <0>        -0.1424
      9 C9         -4.7314    3.2409    6.2594 C.2       1 <0>         0.1043
     10 N1         -4.4048    2.7040    5.1106 N.2       1 <0>        -0.2406
     11 N2         -3.0767    3.0430    4.8218 N.pl3     1 <0>        -0.3208
     12 C10        -2.3543    2.6590    3.6848 C.ar      1 <0>         0.2124
     13 C11        -2.5599    1.4073    3.1197 C.ar      1 <0>        -0.1297
     14 C12        -1.8457    1.0315    1.9989 C.ar      1 <0>         0.0045
     15 C13        -0.9267    1.9002    1.4394 C.ar      1 <0>        -0.6794
     16 C14        -0.7159    3.1453    2.0029 C.ar      1 <0>         0.0064
     17 C15        -1.4308    3.5291    3.1206 C.ar      1 <0>        -0.1452
     18 S1         -0.0172    1.4168    0.0098 S.o2      1 <0>         2.7033
     19 O1          0.0021   -0.0041    0.0020 O.2       1 <0>        -0.9583
     20 O2          1.1718    2.1948    0.0027 O.2       1 <0>        -0.9578
     21 N3         -0.8975    1.8855   -1.3122 N.pl3     1 <0>        -1.2490
     22 C16        -6.0715    3.1182    6.9376 C.3       1 <0>         0.1545
     23 O3         -6.9225    4.1823    6.5069 O.3       1 <0>        -0.5617
     24 Cl1        -3.5737    4.8439    8.2360 Cl        1 <0>        -0.0137
     25 Cl2         2.8537    6.2092    6.3016 Cl        1 <0>        -0.0554
     26 H1         -0.2476    2.6066    5.3784 H         1 <0>         0.1321
     27 H2          1.9952    3.5997    5.5587 H         1 <0>         0.1437
     28 H3          0.2720    7.3165    6.7564 H         1 <0>         0.1446
     29 H4         -1.9793    6.3433    6.5725 H         1 <0>         0.1412
     30 H5         -3.2773    0.7283    3.5564 H         1 <0>         0.1484
     31 H6         -2.0054    0.0583    1.5587 H         1 <0>         0.1566
     32 H7          0.0055    3.8200    1.5660 H         1 <0>         0.1566
     33 H8         -1.2686    4.5033    3.5578 H         1 <0>         0.1442
     34 H9         -1.7474    2.3376   -1.1935 H         1 <0>         0.4176
     35 H10        -0.5632    1.7079   -2.2053 H         1 <0>         0.4231
     36 H11        -6.5248    2.1620    6.6762 H         1 <0>         0.0724
     37 H12        -5.9385    3.1740    8.0180 H         1 <0>         0.0777
     38 H13        -7.8040    4.1663    6.9041 H         1 <0>         0.3910
@<TRIPOS>BOND
     1    1    6 ar
     2    1    2 ar
     3    1   26 1
     4    2    3 ar
     5    2   27 1
     6    3    4 ar
     7    3   25 1
     8    4    5 ar
     9    4   28 1
    10    5    6 ar
    11    5   29 1
    12    6    7 1
    13    7   11 1
    14    7    8 2
    15    8    9 1
    16    8   24 1
    17    9   10 2
    18    9   22 1
    19   10   11 1
    20   11   12 1
    21   12   17 ar
    22   12   13 ar
    23   13   14 ar
    24   13   30 1
    25   14   15 ar
    26   14   31 1
    27   15   16 ar
    28   15   18 1
    29   16   17 ar
    30   16   32 1
    31   17   33 1
    32   18   19 2
    33   18   20 2
    34   18   21 1
    35   21   34 1
    36   21   35 1
    37   22   23 1
    38   22   36 1
    39   22   37 1
    40   23   38 1
@<TRIPOS>MOLECULE
ZINC03814713
   35    37     0     0     0
SMALL
USER_CHARGES

@<TRIPOS>ATOM
      1 C1         -0.1353    3.6315    5.6691 C.ar      1 <0>        -0.0757
      2 C2          1.1247    4.1850    5.7653 C.ar      1 <0>        -0.1065
      3 C3          1.2757    5.5061    6.1515 C.ar      1 <0>        -0.0129
      4 C4          0.1643    6.2809    6.4372 C.ar      1 <0>        -0.1064
      5 C5         -1.1008    5.7397    6.3389 C.ar      1 <0>        -0.0639
      6 C6         -1.2592    4.4089    5.9507 C.ar      1 <0>        -0.0571
      7 C7         -2.6131    3.8227    5.8439 C.2       1 <0>         0.1600
      8 C8         -3.6245    3.9608    6.7485 C.2       1 <0>        -0.1269
      9 C9         -4.7370    3.2459    6.2621 C.2       1 <0>         0.1785
     10 N1         -4.4064    2.7033    5.1045 N.2       1 <0>        -0.2085
     11 N2         -3.0781    3.0437    4.8199 N.pl3     1 <0>        -0.3038
     12 C10        -2.3550    2.6594    3.6843 C.ar      1 <0>         0.1980
     13 C11        -2.5603    1.4073    3.1194 C.ar      1 <0>        -0.1236
     14 C12        -1.8458    1.0315    1.9989 C.ar      1 <0>         0.0041
     15 C13        -0.9267    1.9002    1.4394 C.ar      1 <0>        -0.6780
     16 C14        -0.7159    3.1454    2.0028 C.ar      1 <0>         0.0007
     17 C15        -1.4313    3.5296    3.1200 C.ar      1 <0>        -0.1380
     18 S1         -0.0172    1.4168    0.0098 S.o2      1 <0>         2.7031
     19 O1          0.0021   -0.0041    0.0020 O.2       1 <0>        -0.9532
     20 O2          1.1718    2.1948    0.0027 O.2       1 <0>        -0.9506
     21 N3         -0.8975    1.8855   -1.3122 N.pl3     1 <0>        -1.2424
     22 C16        -6.0097    3.1328    6.9087 C.1       1 <0>         0.2821
     23 N4         -7.0193    3.0432    7.4217 N.1       1 <0>        -0.3495
     24 Cl1        -3.5535    4.8564    8.2339 Cl        1 <0>         0.0017
     25 Cl2         2.8647    6.1939    6.2773 Cl        1 <0>        -0.0533
     26 H1         -0.2517    2.5997    5.3721 H         1 <0>         0.1344
     27 H2          1.9951    3.5856    5.5429 H         1 <0>         0.1451
     28 H3          0.2881    7.3107    6.7380 H         1 <0>         0.1458
     29 H4         -1.9670    6.3448    6.5624 H         1 <0>         0.1429
     30 H5         -3.2776    0.7283    3.5560 H         1 <0>         0.1499
     31 H6         -2.0052    0.0581    1.5589 H         1 <0>         0.1565
     32 H7          0.0057    3.8199    1.5661 H         1 <0>         0.1568
     33 H8         -1.2694    4.5039    3.5569 H         1 <0>         0.1463
     34 H9         -1.2009    1.2230   -1.9525 H         1 <0>         0.4245
     35 H10        -1.1097    2.8224   -1.4463 H         1 <0>         0.4200
@<TRIPOS>BOND
     1    1    6 ar
     2    1    2 ar
     3    1   26 1
     4    2    3 ar
     5    2   27 1
     6    3    4 ar
     7    3   25 1
     8    4    5 ar
     9    4   28 1
    10    5    6 ar
    11    5   29 1
    12    6    7 1
    13    7   11 1
    14    7    8 2
    15    8    9 1
    16    8   24 1
    17    9   10 2
    18    9   22 1
    19   10   11 1
    20   11   12 1
    21   12   17 ar
    22   12   13 ar
    23   13   14 ar
    24   13   30 1
    25   14   15 ar
    26   14   31 1
    27   15   16 ar
    28   15   18 1
    29   16   17 ar
    30   16   32 1
    31   17   33 1
    32   18   19 2
    33   18   20 2
    34   18   21 1
    35   21   34 1
    36   21   35 1
    37   22   23 3
@<TRIPOS>MOLECULE
ZINC03814714
   40    42     0     0     0
SMALL
USER_CHARGES

@<TRIPOS>ATOM
      1 C1         -8.2566    2.2378    6.8742 C.3       1 <0>         0.0358
      2 O1         -6.9702    2.3478    6.2097 O.3       1 <0>        -0.3419
      3 C2         -6.0221    3.0776    6.8293 C.2       1 <0>         0.5518
      4 O2         -6.2635    3.6076    7.8957 O.2       1 <0>        -0.4741
      5 C3         -4.6909    3.2332    6.2130 C.2       1 <0>         0.0280
      6 C4         -3.6035    3.9643    6.7426 C.2       1 <0>        -0.0765
      7 C5         -2.5924    3.8239    5.8323 C.2       1 <0>         0.0780
      8 N1         -3.0781    3.0437    4.8200 N.pl3     1 <0>        -0.2260
      9 N2         -4.2972    2.7198    5.0625 N.2       1 <0>        -0.2035
     10 C6         -2.3553    2.6596    3.6840 C.ar      1 <0>         0.1783
     11 C7         -2.5606    1.4075    3.1191 C.ar      1 <0>        -0.1161
     12 C8         -1.8458    1.0315    1.9989 C.ar      1 <0>         0.0021
     13 C9         -0.9267    1.9002    1.4394 C.ar      1 <0>        -0.6734
     14 C10        -0.7159    3.1454    2.0028 C.ar      1 <0>        -0.0018
     15 C11        -1.4313    3.5295    3.1200 C.ar      1 <0>        -0.1300
     16 S1         -0.0172    1.4168    0.0098 S.o2      1 <0>         2.7032
     17 O3          0.0021   -0.0041    0.0020 O.2       1 <0>        -0.9523
     18 O4          1.1718    2.1948    0.0027 O.2       1 <0>        -0.9496
     19 N3         -0.8975    1.8855   -1.3122 N.pl3     1 <0>        -1.2419
     20 C12        -1.2350    4.4047    5.9248 C.ar      1 <0>        -0.0428
     21 C13        -0.1170    3.6218    5.6352 C.ar      1 <0>        -0.0815
     22 C14         1.1461    4.1701    5.7186 C.ar      1 <0>        -0.1052
     23 C15         1.3062    5.4917    6.0995 C.ar      1 <0>        -0.0168
     24 C16         0.2007    6.2721    6.3928 C.ar      1 <0>        -0.1046
     25 C17        -1.0675    5.7360    6.3077 C.ar      1 <0>        -0.0693
     26 Cl1         2.8992    6.1729    6.2093 Cl        1 <0>        -0.0549
     27 Cl2        -3.5602    4.8524    8.2336 Cl        1 <0>         0.0183
     28 H1         -8.9262    1.6252    6.2705 H         1 <0>         0.1074
     29 H2         -8.1222    1.7742    7.8516 H         1 <0>         0.0680
     30 H3         -8.6870    3.2313    6.9995 H         1 <0>         0.0679
     31 H4         -3.2782    0.7286    3.5556 H         1 <0>         0.1520
     32 H5         -2.0049    0.0580    1.5591 H         1 <0>         0.1582
     33 H6          0.0060    3.8198    1.5663 H         1 <0>         0.1580
     34 H7         -1.2691    4.5037    3.5572 H         1 <0>         0.1477
     35 H8         -1.2009    1.2230   -1.9525 H         1 <0>         0.4247
     36 H9         -1.1097    2.8224   -1.4463 H         1 <0>         0.4202
     37 H10        -0.2405    2.5895    5.3427 H         1 <0>         0.1326
     38 H11         2.0119    3.5662    5.4907 H         1 <0>         0.1442
     39 H12         0.3315    7.3024    6.6890 H         1 <0>         0.1450
     40 H13        -1.9291    6.3454    6.5373 H         1 <0>         0.1411
@<TRIPOS>BOND
     1    1    2 1
     2    1   28 1
     3    1   29 1
     4    1   30 1
     5    2    3 1
     6    3    4 2
     7    3    5 1
     8    5    9 2
     9    5    6 1
    10    6    7 2
    11    6   27 1
    12    7    8 1
    13    7   20 1
    14    8    9 1
    15    8   10 1
    16   10   15 ar
    17   10   11 ar
    18   11   12 ar
    19   11   31 1
    20   12   13 ar
    21   12   32 1
    22   13   14 ar
    23   13   16 1
    24   14   15 ar
    25   14   33 1
    26   15   34 1
    27   16   17 2
    28   16   18 2
    29   16   19 1
    30   19   35 1
    31   19   36 1
    32   20   25 ar
    33   20   21 ar
    34   21   22 ar
    35   21   37 1
    36   22   23 ar
    37   22   38 1
    38   23   24 ar
    39   23   26 1
    40   24   25 ar
    41   24   39 1
    42   25   40 1
@<TRIPOS>MOLECULE
ZINC03814715
   34    36     0     0     0
SMALL
USER_CHARGES

@<TRIPOS>ATOM
      1 C1         -0.1369    3.6243    5.6845 C.ar      1 <0>        -0.0774
      2 C2          1.1230    4.1762    5.7896 C.ar      1 <0>        -0.1073
      3 C3          1.2732    5.4955    6.1821 C.ar      1 <0>        -0.0147
      4 C4          0.1610    6.2701    6.4657 C.ar      1 <0>        -0.1066
      5 C5         -1.1040    5.7305    6.3589 C.ar      1 <0>        -0.0657
      6 C6         -1.2616    4.4015    5.9638 C.ar      1 <0>        -0.0554
      7 C7         -2.6153    3.8172    5.8474 C.2       1 <0>         0.1696
      8 C8         -3.6369    3.9531    6.7457 C.2       1 <0>        -0.2173
      9 C9         -4.7340    3.2420    6.2568 C.2       1 <0>         0.0954
     10 N1         -4.4047    2.6998    5.1113 N.2       1 <0>        -0.2638
     11 N2         -3.0784    3.0439    4.8205 N.pl3     1 <0>        -0.3234
     12 C10        -2.3550    2.6594    3.6842 C.ar      1 <0>         0.2067
     13 C11        -2.5602    1.4075    3.1194 C.ar      1 <0>        -0.1289
     14 C12        -1.8457    1.0315    1.9989 C.ar      1 <0>         0.0040
     15 C13        -0.9267    1.9002    1.4394 C.ar      1 <0>        -0.6832
     16 C14        -0.7160    3.1454    2.0028 C.ar      1 <0>         0.0008
     17 C15        -1.4314    3.5294    3.1200 C.ar      1 <0>        -0.1450
     18 S1         -0.0172    1.4168    0.0098 S.o2      1 <0>         2.7040
     19 O1          0.0021   -0.0041    0.0020 O.2       1 <0>        -0.9546
     20 O2          1.1718    2.1948    0.0027 O.2       1 <0>        -0.9521
     21 N3         -0.8975    1.8855   -1.3122 N.pl3     1 <0>        -1.2428
     22 Br1        -3.5727    4.9256    8.3662 Br        1 <0>         0.0038
     23 Cl1         2.8622    6.1811    6.3198 Cl        1 <0>        -0.0552
     24 H1         -0.2527    2.5937    5.3829 H         1 <0>         0.1317
     25 H2          1.9941    3.5768    5.5697 H         1 <0>         0.1437
     26 H3          0.2842    7.2986    6.7714 H         1 <0>         0.1448
     27 H4         -1.9708    6.3354    6.5810 H         1 <0>         0.1423
     28 H5         -5.6947    3.1539    6.7423 H         1 <0>         0.2043
     29 H6         -3.2776    0.7285    3.5561 H         1 <0>         0.1473
     30 H7         -2.0052    0.0582    1.5589 H         1 <0>         0.1544
     31 H8          0.0059    3.8197    1.5664 H         1 <0>         0.1544
     32 H9         -1.2693    4.5036    3.5572 H         1 <0>         0.1425
     33 H10        -1.2009    1.2230   -1.9525 H         1 <0>         0.4240
     34 H11        -1.1097    2.8224   -1.4463 H         1 <0>         0.4198
@<TRIPOS>BOND
     1    1    6 ar
     2    1    2 ar
     3    1   24 1
     4    2    3 ar
     5    2   25 1
     6    3    4 ar
     7    3   23 1
     8    4    5 ar
     9    4   26 1
    10    5    6 ar
    11    5   27 1
    12    6    7 1
    13    7   11 1
    14    7    8 2
    15    8    9 1
    16    8   22 1
    17    9   10 2
    18    9   28 1
    19   10   11 1
    20   11   12 1
    21   12   17 ar
    22   12   13 ar
    23   13   14 ar
    24   13   29 1
    25   14   15 ar
    26   14   30 1
    27   15   16 ar
    28   15   18 1
    29   16   17 ar
    30   16   31 1
    31   17   32 1
    32   18   19 2
    33   18   20 2
    34   18   21 1
    35   21   33 1
    36   21   34 1
@<TRIPOS>MOLECULE
ZINC03814716
   38    40     0     0     0
SMALL
USER_CHARGES

@<TRIPOS>ATOM
      1 C1          2.6583    6.0826    6.2863 C.3       1 <0>        -0.1232
      2 C2          1.2783    5.4885    6.1692 C.ar      1 <0>        -0.0563
      3 C3          0.1683    6.2639    6.4544 C.ar      1 <0>        -0.1180
      4 C4         -1.0978    5.7263    6.3502 C.ar      1 <0>        -0.0732
      5 C5         -1.2577    4.3963    5.9553 C.ar      1 <0>        -0.0764
      6 C6         -0.1328    3.6180    5.6741 C.ar      1 <0>        -0.0819
      7 C7          1.1271    4.1701    5.7774 C.ar      1 <0>        -0.1177
      8 C8         -2.6098    3.8139    5.8414 C.2       1 <0>         0.2024
      9 C9         -3.6526    3.9508    6.7570 C.2       1 <0>        -0.1605
     10 C10        -4.7507    3.2271    6.2464 C.2       1 <0>         0.1152
     11 N1         -4.4024    2.6963    5.1061 N.2       1 <0>        -0.2706
     12 N2         -3.0772    3.0432    4.8210 N.pl3     1 <0>        -0.3186
     13 C11        -2.3543    2.6590    3.6848 C.ar      1 <0>         0.2065
     14 C12        -2.5599    1.4072    3.1196 C.ar      1 <0>        -0.1264
     15 C13        -1.8457    1.0315    1.9989 C.ar      1 <0>         0.0026
     16 C14        -0.9267    1.9002    1.4394 C.ar      1 <0>        -0.6777
     17 C15        -0.7159    3.1454    2.0029 C.ar      1 <0>         0.0047
     18 C16        -1.4307    3.5292    3.1205 C.ar      1 <0>        -0.1420
     19 S1         -0.0172    1.4168    0.0098 S.o2      1 <0>         2.7031
     20 O1          0.0021   -0.0041    0.0020 O.2       1 <0>        -0.9582
     21 O2          1.1718    2.1948    0.0027 O.2       1 <0>        -0.9583
     22 N3         -0.8975    1.8855   -1.3122 N.pl3     1 <0>        -1.2490
     23 C17        -3.6143    4.6837    7.9867 C.1       1 <0>         0.2847
     24 N4         -3.5840    5.2650    8.9622 N.1       1 <0>        -0.4109
     25 H1          3.0356    5.9284    7.2972 H         1 <0>         0.0775
     26 H2          3.3241    5.5983    5.5721 H         1 <0>         0.0728
     27 H3          2.6131    7.1509    6.0744 H         1 <0>         0.0719
     28 H4          0.2934    7.2922    6.7597 H         1 <0>         0.1333
     29 H5         -1.9633    6.3323    6.5737 H         1 <0>         0.1285
     30 H6         -0.2491    2.5874    5.3729 H         1 <0>         0.1250
     31 H7          1.9978    3.5706    5.5560 H         1 <0>         0.1337
     32 H8         -5.7168    3.1295    6.7190 H         1 <0>         0.2084
     33 H9         -3.2773    0.7282    3.5563 H         1 <0>         0.1499
     34 H10        -2.0054    0.0583    1.5587 H         1 <0>         0.1565
     35 H11         0.0055    3.8200    1.5660 H         1 <0>         0.1560
     36 H12        -1.2686    4.5033    3.5577 H         1 <0>         0.1457
     37 H13        -1.7474    2.3376   -1.1935 H         1 <0>         0.4176
     38 H14        -0.5632    1.7079   -2.2053 H         1 <0>         0.4231
@<TRIPOS>BOND
     1    1    2 1
     2    1   25 1
     3    1   26 1
     4    1   27 1
     5    2    7 ar
     6    2    3 ar
     7    3    4 ar
     8    3   28 1
     9    4    5 ar
    10    4   29 1
    11    5    6 ar
    12    5    8 1
    13    6    7 ar
    14    6   30 1
    15    7   31 1
    16    8   12 1
    17    8    9 2
    18    9   10 1
    19    9   23 1
    20   10   11 2
    21   10   32 1
    22   11   12 1
    23   12   13 1
    24   13   18 ar
    25   13   14 ar
    26   14   15 ar
    27   14   33 1
    28   15   16 ar
    29   15   34 1
    30   16   17 ar
    31   16   19 1
    32   17   18 ar
    33   17   35 1
    34   18   36 1
    35   19   20 2
    36   19   21 2
    37   19   22 1
    38   22   37 1
    39   22   38 1
    40   23   24 3
@<TRIPOS>MOLECULE
ZINC03814717
   36    38     0     0     0
SMALL
USER_CHARGES

@<TRIPOS>ATOM
      1 C1          1.2729    5.4948    6.1815 C.ar      1 <0>        -0.0809
      2 C2          0.1619    6.2689    6.4653 C.ar      1 <0>        -0.1187
      3 C3         -1.1037    5.7299    6.3583 C.ar      1 <0>        -0.0385
      4 C4         -1.2616    4.4011    5.9633 C.ar      1 <0>        -0.0937
      5 C5         -0.1369    3.6241    5.6841 C.ar      1 <0>        -0.0805
      6 C6          1.1230    4.1766    5.7889 C.ar      1 <0>        -0.1232
      7 C7         -2.6156    3.8168    5.8469 C.2       1 <0>         0.2414
      8 C8         -3.6366    3.9529    6.7450 C.2       1 <0>        -0.1799
      9 C9         -4.7336    3.2422    6.2569 C.2       1 <0>         0.1284
     10 N1         -4.4048    2.6998    5.1113 N.2       1 <0>        -0.2545
     11 N2         -3.0784    3.0439    4.8205 N.pl3     1 <0>        -0.3121
     12 C10        -2.3550    2.6594    3.6842 C.ar      1 <0>         0.1926
     13 C11        -2.5602    1.4075    3.1194 C.ar      1 <0>        -0.1212
     14 C12        -1.8457    1.0315    1.9989 C.ar      1 <0>         0.0031
     15 C13        -0.9267    1.9002    1.4394 C.ar      1 <0>        -0.6766
     16 C14        -0.7160    3.1454    2.0028 C.ar      1 <0>         0.0004
     17 C15        -1.4314    3.5294    3.1200 C.ar      1 <0>        -0.1360
     18 S1         -0.0172    1.4168    0.0098 S.o2      1 <0>         2.7042
     19 O1          0.0021   -0.0041    0.0020 O.2       1 <0>        -0.9526
     20 O2          1.1718    2.1948    0.0027 O.2       1 <0>        -0.9501
     21 N3         -0.8975    1.8855   -1.3122 N.pl3     1 <0>        -1.2420
     22 N4         -3.5859    4.7143    8.0135 N.pl3     1 <0>         0.0676
     23 O3         -4.5645    4.7576    8.7373 O.2       1 <0>        -0.1539
     24 O4         -2.5655    5.2974    8.3333 O.3       1 <0>        -0.1582
     25 H1          2.2614    5.9214    6.2665 H         1 <0>         0.1337
     26 H2          0.2856    7.2973    6.7709 H         1 <0>         0.1372
     27 H3         -1.9702    6.3355    6.5794 H         1 <0>         0.1313
     28 H4         -0.2525    2.5936    5.3822 H         1 <0>         0.1217
     29 H5          1.9942    3.5776    5.5685 H         1 <0>         0.1345
     30 H6         -5.6942    3.1546    6.7426 H         1 <0>         0.2206
     31 H7         -3.2776    0.7285    3.5561 H         1 <0>         0.1496
     32 H8         -2.0052    0.0582    1.5589 H         1 <0>         0.1575
     33 H9          0.0057    3.8199    1.5662 H         1 <0>         0.1578
     34 H10        -1.2695    4.5037    3.5570 H         1 <0>         0.1460
     35 H11        -1.2009    1.2230   -1.9525 H         1 <0>         0.4247
     36 H12        -1.1097    2.8224   -1.4463 H         1 <0>         0.4201
@<TRIPOS>BOND
     1    1    6 ar
     2    1    2 ar
     3    1   25 1
     4    2    3 ar
     5    2   26 1
     6    3    4 ar
     7    3   27 1
     8    4    5 ar
     9    4    7 1
    10    5    6 ar
    11    5   28 1
    12    6   29 1
    13    7   11 1
    14    7    8 2
    15    8    9 1
    16    8   22 1
    17    9   10 2
    18    9   30 1
    19   10   11 1
    20   11   12 1
    21   12   17 ar
    22   12   13 ar
    23   13   14 ar
    24   13   31 1
    25   14   15 ar
    26   14   32 1
    27   15   16 ar
    28   15   18 1
    29   16   17 ar
    30   16   33 1
    31   17   34 1
    32   18   19 2
    33   18   20 2
    34   18   21 1
    35   21   35 1
    36   21   36 1
    37   22   23 2
    38   22   24 1
@<TRIPOS>MOLECULE
ZINC03814718
   37    39     0     0     0
SMALL
USER_CHARGES

@<TRIPOS>ATOM
      1 C1          1.2724    5.4967    6.1886 C.ar      1 <0>        -0.0931
      2 C2          0.1609    6.2707    6.4708 C.ar      1 <0>        -0.1147
      3 C3         -1.1045    5.7318    6.3618 C.ar      1 <0>        -0.0788
      4 C4         -1.2618    4.4027    5.9663 C.ar      1 <0>        -0.0602
      5 C5         -0.1363    3.6258    5.6886 C.ar      1 <0>        -0.0890
      6 C6          1.1232    4.1785    5.7956 C.ar      1 <0>        -0.1150
      7 C7         -2.6150    3.8185    5.8478 C.2       1 <0>         0.1231
      8 C8         -3.6472    3.9542    6.7501 C.2       1 <0>         0.0133
      9 C9         -4.7405    3.2403    6.2541 C.2       1 <0>        -0.0208
     10 N1         -4.4052    2.7001    5.1096 N.2       1 <0>        -0.1957
     11 N2         -3.0790    3.0442    4.8199 N.pl3     1 <0>        -0.2977
     12 C10        -2.3553    2.6595    3.6840 C.ar      1 <0>         0.1978
     13 C11        -2.5606    1.4077    3.1192 C.ar      1 <0>        -0.1237
     14 C12        -1.8457    1.0315    1.9989 C.ar      1 <0>         0.0038
     15 C13        -0.9267    1.9002    1.4394 C.ar      1 <0>        -0.6777
     16 C14        -0.7160    3.1454    2.0028 C.ar      1 <0>         0.0001
     17 C15        -1.4314    3.5294    3.1200 C.ar      1 <0>        -0.1345
     18 S1         -0.0172    1.4168    0.0098 S.o2      1 <0>         2.7042
     19 O1          0.0021   -0.0041    0.0020 O.2       1 <0>        -0.9530
     20 O2          1.1718    2.1948    0.0027 O.2       1 <0>        -0.9510
     21 N3         -0.8975    1.8855   -1.3122 N.pl3     1 <0>        -1.2422
     22 C16        -6.0837    3.1129    6.9253 C.3       1 <0>         0.5594
     23 F1         -6.8889    2.2331    6.1940 F         1 <0>        -0.1579
     24 F2         -5.9117    2.6186    8.2227 F         1 <0>        -0.1573
     25 F3         -6.6975    4.3688    6.9823 F         1 <0>        -0.1584
     26 F4         -3.6073    4.6480    7.9087 F         1 <0>        -0.0935
     27 H1          2.2607    5.9234    6.2751 H         1 <0>         0.1325
     28 H2          0.2840    7.2991    6.7768 H         1 <0>         0.1350
     29 H3         -1.9714    6.3372    6.5817 H         1 <0>         0.1319
     30 H4         -0.2513    2.5954    5.3861 H         1 <0>         0.1236
     31 H5          1.9949    3.5796    5.5767 H         1 <0>         0.1341
     32 H6         -3.2782    0.7288    3.5557 H         1 <0>         0.1497
     33 H7         -2.0049    0.0580    1.5591 H         1 <0>         0.1572
     34 H8          0.0059    3.8197    1.5664 H         1 <0>         0.1571
     35 H9         -1.2693    4.5036    3.5572 H         1 <0>         0.1466
     36 H10        -1.2009    1.2230   -1.9525 H         1 <0>         0.4246
     37 H11        -1.1097    2.8224   -1.4463 H         1 <0>         0.4201
@<TRIPOS>BOND
     1    1    6 ar
     2    1    2 ar
     3    1   27 1
     4    2    3 ar
     5    2   28 1
     6    3    4 ar
     7    3   29 1
     8    4    5 ar
     9    4    7 1
    10    5    6 ar
    11    5   30 1
    12    6   31 1
    13    7   11 1
    14    7    8 2
    15    8    9 1
    16    8   26 1
    17    9   10 2
    18    9   22 1
    19   10   11 1
    20   11   12 1
    21   12   17 ar
    22   12   13 ar
    23   13   14 ar
    24   13   32 1
    25   14   15 ar
    26   14   33 1
    27   15   16 ar
    28   15   18 1
    29   16   17 ar
    30   16   34 1
    31   17   35 1
    32   18   19 2
    33   18   20 2
    34   18   21 1
    35   21   36 1
    36   21   37 1
    37   22   23 1
    38   22   24 1
    39   22   25 1
@<TRIPOS>MOLECULE
ZINC03814719
   40    42     0     0     0
SMALL
USER_CHARGES

@<TRIPOS>ATOM
      1 C1         -3.5839    4.7269    8.0371 C.3       1 <0>        -0.0932
      2 C2         -3.6360    3.9522    6.7455 C.2       1 <0>        -0.1591
      3 C3         -2.6154    3.8168    5.8468 C.2       1 <0>         0.1329
      4 N1         -3.0784    3.0439    4.8205 N.pl3     1 <0>        -0.3109
      5 N2         -4.4046    2.6996    5.1118 N.2       1 <0>        -0.2131
      6 C4         -4.7330    3.2416    6.2576 C.2       1 <0>        -0.0029
      7 C5         -6.0727    3.1180    6.9365 C.3       1 <0>         0.5573
      8 F1         -6.8839    2.2391    6.2108 F         1 <0>        -0.1627
      9 F2         -5.8945    2.6248    8.2335 F         1 <0>        -0.1606
     10 F3         -6.6834    4.3752    6.9954 F         1 <0>        -0.1621
     11 C6         -2.3553    2.6595    3.6840 C.ar      1 <0>         0.2043
     12 C7         -2.5606    1.4077    3.1192 C.ar      1 <0>        -0.1280
     13 C8         -1.8457    1.0315    1.9989 C.ar      1 <0>         0.0046
     14 C9         -0.9267    1.9002    1.4394 C.ar      1 <0>        -0.6768
     15 C10        -0.7160    3.1454    2.0028 C.ar      1 <0>         0.0055
     16 C11        -1.4314    3.5294    3.1200 C.ar      1 <0>        -0.1414
     17 S1         -0.0172    1.4168    0.0098 S.o2      1 <0>         2.7032
     18 O1          0.0021   -0.0041    0.0020 O.2       1 <0>        -0.9573
     19 O2          1.1718    2.1948    0.0027 O.2       1 <0>        -0.9571
     20 N3         -0.8975    1.8855   -1.3122 N.pl3     1 <0>        -1.2488
     21 C12        -1.2616    4.4016    5.9626 C.ar      1 <0>        -0.0446
     22 C13        -1.1044    5.7320    6.3527 C.ar      1 <0>        -0.0753
     23 C14         0.1608    6.2703    6.4645 C.ar      1 <0>        -0.1053
     24 C15         1.2730    5.4964    6.1789 C.ar      1 <0>        -0.0179
     25 C16         1.1229    4.1771    5.7863 C.ar      1 <0>        -0.1044
     26 C17        -0.1371    3.6265    5.6765 C.ar      1 <0>        -0.0822
     27 Cl1         2.8618    6.1829    6.3143 Cl        1 <0>        -0.0546
     28 H1         -3.2445    4.0724    8.8399 H         1 <0>         0.0803
     29 H2         -2.8915    5.5622    7.9321 H         1 <0>         0.0788
     30 H3         -4.5779    5.1065    8.2735 H         1 <0>         0.0759
     31 H4         -3.2782    0.7288    3.5557 H         1 <0>         0.1490
     32 H5         -2.0049    0.0580    1.5591 H         1 <0>         0.1576
     33 H6          0.0059    3.8197    1.5664 H         1 <0>         0.1575
     34 H7         -1.2693    4.5036    3.5572 H         1 <0>         0.1451
     35 H8         -1.7474    2.3376   -1.1935 H         1 <0>         0.4176
     36 H9         -0.5632    1.7079   -2.2053 H         1 <0>         0.4234
     37 H10        -1.9714    6.3379    6.5707 H         1 <0>         0.1444
     38 H11         0.2839    7.2986    6.7707 H         1 <0>         0.1450
     39 H12         1.9940    3.5782    5.5652 H         1 <0>         0.1437
     40 H13        -0.2531    2.5976    5.3695 H         1 <0>         0.1318
@<TRIPOS>BOND
     1    1    2 1
     2    1   28 1
     3    1   29 1
     4    1   30 1
     5    2    6 1
     6    2    3 2
     7    3    4 1
     8    3   21 1
     9    4    5 1
    10    4   11 1
    11    5    6 2
    12    6    7 1
    13    7    8 1
    14    7    9 1
    15    7   10 1
    16   11   16 ar
    17   11   12 ar
    18   12   13 ar
    19   12   31 1
    20   13   14 ar
    21   13   32 1
    22   14   15 ar
    23   14   17 1
    24   15   16 ar
    25   15   33 1
    26   16   34 1
    27   17   18 2
    28   17   19 2
    29   17   20 1
    30   20   35 1
    31   20   36 1
    32   21   26 ar
    33   21   22 ar
    34   22   23 ar
    35   22   37 1
    36   23   24 ar
    37   23   38 1
    38   24   25 ar
    39   24   27 1
    40   25   26 ar
    41   25   39 1
    42   26   40 1
@<TRIPOS>MOLECULE
ZINC03814720
   43    45     0     0     0
SMALL
USER_CHARGES

@<TRIPOS>ATOM
      1 C1         -0.0127    1.0858    0.0080 C.3       1 <0>        -0.1481
      2 C2         -0.7288    1.5792    1.2668 C.3       1 <0>        -0.0605
      3 C3          0.0000    1.0800    2.4877 C.2       1 <0>        -0.1560
      4 C4         -0.2400   -0.0945    3.1439 C.2       1 <0>         0.1355
      5 N1          0.6374   -0.1624    4.1883 N.pl3     1 <0>        -0.3109
      6 N2          1.4173    1.0009    4.1652 N.2       1 <0>        -0.2142
      7 C5          1.0355    1.7377    3.1524 C.2       1 <0>        -0.0009
      8 C6          1.6174    3.0739    2.7688 C.3       1 <0>         0.5570
      9 F1          0.9167    4.0928    3.4230 F         1 <0>        -0.1635
     10 F2          2.9648    3.1203    3.1422 F         1 <0>        -0.1634
     11 F3          1.5108    3.2489    1.3848 F         1 <0>        -0.1577
     12 C7          0.7363   -1.2054    5.1181 C.ar      1 <0>         0.2045
     13 C8         -0.4050   -1.8804    5.5305 C.ar      1 <0>        -0.1417
     14 C9         -0.3038   -2.9109    6.4444 C.ar      1 <0>         0.0056
     15 C10         0.9314   -3.2647    6.9557 C.ar      1 <0>        -0.6768
     16 C11         2.0693   -2.5913    6.5507 C.ar      1 <0>         0.0046
     17 C12         1.9751   -1.5627    5.6337 C.ar      1 <0>        -0.1280
     18 S1          1.0557   -4.5759    8.1262 S.o2      1 <0>         2.7030
     19 O1         -0.0816   -5.4049    7.9296 O.2       1 <0>        -0.9571
     20 O2          2.3844   -5.0724    8.0403 O.2       1 <0>        -0.9573
     21 N3          0.8976   -3.9048    9.6318 N.pl3     1 <0>        -1.2488
     22 C13        -1.2586   -1.1060    2.7870 C.ar      1 <0>        -0.0439
     23 C14        -2.5564   -0.7090    2.4632 C.ar      1 <0>        -0.0747
     24 C15        -3.5008   -1.6564    2.1261 C.ar      1 <0>        -0.1051
     25 C16        -3.1657   -2.9999    2.1194 C.ar      1 <0>        -0.0178
     26 C17        -1.8808   -3.4002    2.4449 C.ar      1 <0>        -0.1044
     27 C18        -0.9267   -2.4613    2.7785 C.ar      1 <0>        -0.0825
     28 Cl1        -4.3611   -4.1871    1.7006 Cl        1 <0>        -0.0547
     29 H1          0.0021   -0.0041    0.0020 H         1 <0>         0.0546
     30 H2          1.0099    1.4631    0.0003 H         1 <0>         0.0603
     31 H3         -0.5399    1.4469   -0.8751 H         1 <0>         0.0652
     32 H4         -0.7436    2.6691    1.2728 H         1 <0>         0.0815
     33 H5         -1.7514    1.2020    1.2746 H         1 <0>         0.0822
     34 H6         -1.3705   -1.6019    5.1347 H         1 <0>         0.1451
     35 H7         -1.1906   -3.4388    6.7627 H         1 <0>         0.1574
     36 H8          3.0325   -2.8696    6.9520 H         1 <0>         0.1576
     37 H9          2.8640   -1.0367    5.3183 H         1 <0>         0.1490
     38 H10         0.7644   -2.9485    9.7250 H         1 <0>         0.4176
     39 H11         0.9381   -4.4680   10.4205 H         1 <0>         0.4234
     40 H12        -2.8201    0.3383    2.4729 H         1 <0>         0.1438
     41 H13        -4.5046   -1.3500    1.8713 H         1 <0>         0.1448
     42 H14        -1.6251   -4.4494    2.4380 H         1 <0>         0.1435
     43 H15         0.0750   -2.7747    3.0330 H         1 <0>         0.1317
@<TRIPOS>BOND
     1    1    2 1
     2    1   29 1
     3    1   30 1
     4    1   31 1
     5    2    3 1
     6    2   32 1
     7    2   33 1
     8    3    7 1
     9    3    4 2
    10    4    5 1
    11    4   22 1
    12    5    6 1
    13    5   12 1
    14    6    7 2
    15    7    8 1
    16    8    9 1
    17    8   10 1
    18    8   11 1
    19   12   17 ar
    20   12   13 ar
    21   13   14 ar
    22   13   34 1
    23   14   15 ar
    24   14   35 1
    25   15   16 ar
    26   15   18 1
    27   16   17 ar
    28   16   36 1
    29   17   37 1
    30   18   19 2
    31   18   20 2
    32   18   21 1
    33   21   38 1
    34   21   39 1
    35   22   27 ar
    36   22   23 ar
    37   23   24 ar
    38   23   40 1
    39   24   25 ar
    40   24   41 1
    41   25   26 ar
    42   25   28 1
    43   26   27 ar
    44   26   42 1
    45   27   43 1
@<TRIPOS>MOLECULE
ZINC03814721
   41    43     0     0     0
SMALL
USER_CHARGES

@<TRIPOS>ATOM
      1 C1         -3.1847    3.9430    9.0873 C.3       1 <0>         0.0237
      2 O1         -3.6076    4.6523    7.9211 O.3       1 <0>        -0.2919
      3 C2         -3.6467    3.9540    6.7533 C.2       1 <0>         0.0132
      4 C3         -2.6128    3.8187    5.8499 C.2       1 <0>         0.1290
      5 N1         -3.0780    3.0437    4.8207 N.pl3     1 <0>        -0.3052
      6 N2         -4.4041    2.6995    5.1103 N.2       1 <0>        -0.2068
      7 C4         -4.7406    3.2387    6.2548 C.2       1 <0>        -0.0158
      8 C5         -6.0846    3.1105    6.9244 C.3       1 <0>         0.5599
      9 F1         -6.8883    2.2302    6.1920 F         1 <0>        -0.1619
     10 F2         -5.9139    2.6162    8.2220 F         1 <0>        -0.1626
     11 F3         -6.6993    4.3659    6.9807 F         1 <0>        -0.1571
     12 C6         -2.3546    2.6592    3.6845 C.ar      1 <0>         0.2055
     13 C7         -2.5602    1.4075    3.1194 C.ar      1 <0>        -0.1270
     14 C8         -1.8457    1.0315    1.9989 C.ar      1 <0>         0.0040
     15 C9         -0.9267    1.9002    1.4394 C.ar      1 <0>        -0.6761
     16 C10        -0.7159    3.1453    2.0029 C.ar      1 <0>         0.0055
     17 C11        -1.4307    3.5291    3.1206 C.ar      1 <0>        -0.1377
     18 S1         -0.0172    1.4168    0.0098 S.o2      1 <0>         2.7037
     19 O2          0.0021   -0.0041    0.0020 O.2       1 <0>        -0.9574
     20 O3          1.1718    2.1948    0.0027 O.2       1 <0>        -0.9574
     21 N3         -0.8975    1.8855   -1.3122 N.pl3     1 <0>        -1.2487
     22 C12        -1.2600    4.4022    5.9686 C.ar      1 <0>        -0.0572
     23 C13        -0.1344    3.6249    5.6908 C.ar      1 <0>        -0.0933
     24 C14         1.1251    4.1775    5.7979 C.ar      1 <0>        -0.1171
     25 C15         1.2745    5.4956    6.1908 C.ar      1 <0>        -0.0951
     26 C16         0.1632    6.2700    6.4732 C.ar      1 <0>        -0.1176
     27 C17        -1.1023    5.7314    6.3644 C.ar      1 <0>        -0.0727
     28 H1         -3.8599    3.1067    9.2686 H         1 <0>         0.0540
     29 H2         -2.1728    3.5669    8.9368 H         1 <0>         0.0494
     30 H3         -3.1990    4.6142    9.9460 H         1 <0>         0.1038
     31 H4         -3.2778    0.7286    3.5559 H         1 <0>         0.1496
     32 H5         -2.0052    0.0582    1.5589 H         1 <0>         0.1580
     33 H6          0.0057    3.8198    1.5662 H         1 <0>         0.1578
     34 H7         -1.2684    4.5031    3.5579 H         1 <0>         0.1468
     35 H8         -1.7474    2.3376   -1.1935 H         1 <0>         0.4178
     36 H9         -0.5632    1.7079   -2.2053 H         1 <0>         0.4234
     37 H10        -0.2495    2.5945    5.3883 H         1 <0>         0.1214
     38 H11         1.9967    3.5784    5.5789 H         1 <0>         0.1322
     39 H12         2.2629    5.9222    6.2771 H         1 <0>         0.1308
     40 H13         0.2866    7.2984    6.7790 H         1 <0>         0.1335
     41 H14        -1.9689    6.3370    6.5848 H         1 <0>         0.1355
@<TRIPOS>BOND
     1    1    2 1
     2    1   28 1
     3    1   29 1
     4    1   30 1
     5    2    3 1
     6    3    7 1
     7    3    4 2
     8    4    5 1
     9    4   22 1
    10    5    6 1
    11    5   12 1
    12    6    7 2
    13    7    8 1
    14    8    9 1
    15    8   10 1
    16    8   11 1
    17   12   17 ar
    18   12   13 ar
    19   13   14 ar
    20   13   31 1
    21   14   15 ar
    22   14   32 1
    23   15   16 ar
    24   15   18 1
    25   16   17 ar
    26   16   33 1
    27   17   34 1
    28   18   19 2
    29   18   20 2
    30   18   21 1
    31   21   35 1
    32   21   36 1
    33   22   27 ar
    34   22   23 ar
    35   23   24 ar
    36   23   37 1
    37   24   25 ar
    38   24   38 1
    39   25   26 ar
    40   25   39 1
    41   26   27 ar
    42   26   40 1
    43   27   41 1
@<TRIPOS>MOLECULE
ZINC03814722
   37    39     0     0     0
SMALL
USER_CHARGES

@<TRIPOS>ATOM
      1 C1          2.5038    3.1597   -2.2447 C.ar      1 <0>        -0.1273
      2 C2          2.6289    4.2463   -3.0857 C.ar      1 <0>        -0.0118
      3 C3          3.8765    4.7868   -3.3413 C.ar      1 <0>        -0.6657
      4 C4          5.0053    4.2456   -2.7522 C.ar      1 <0>        -0.0115
      5 C5          4.8931    3.1620   -1.9056 C.ar      1 <0>        -0.1074
      6 C6          3.6377    2.6123   -1.6436 C.ar      1 <0>         0.0192
      7 C7          3.5102    1.4502   -0.7373 C.2       1 <0>         0.1216
      8 C8          4.4704    0.5113   -0.4837 C.2       1 <0>        -0.1897
      9 C9          3.9404   -0.4094    0.4205 C.2       1 <0>        -0.0117
     10 N1          2.7153   -0.0512    0.7130 N.2       1 <0>        -0.2091
     11 N2          2.4123    1.1182    0.0038 N.pl3     1 <0>        -0.2978
     12 C10         1.1988    1.8180    0.0430 C.ar      1 <0>         0.1139
     13 C11        -0.0041    1.1287   -0.0348 C.ar      1 <0>        -0.0670
     14 C12        -1.1987    1.8207   -0.0022 C.ar      1 <0>        -0.1374
     15 C13        -1.1979    3.2002    0.1196 C.ar      1 <0>         0.1194
     16 C14         0.0008    3.8895    0.1974 C.ar      1 <0>        -0.1362
     17 C15         1.1976    3.2017    0.1594 C.ar      1 <0>        -0.0802
     18 F1         -2.3677    3.8749    0.1570 F         1 <0>        -0.1267
     19 C16         4.6582   -1.6156    0.9691 C.3       1 <0>         0.5576
     20 F2          3.7770   -2.3645    1.7564 F         1 <0>        -0.1630
     21 F3          5.1222   -2.4036   -0.0897 F         1 <0>        -0.1623
     22 F4          5.7416   -1.1986    1.7497 F         1 <0>        -0.1625
     23 S1          4.0286    6.1699   -4.4223 S.o2      1 <0>         2.7005
     24 O1          2.7705    6.8305   -4.4161 O.2       1 <0>        -0.9585
     25 O2          5.2371    6.8295   -4.0704 O.2       1 <0>        -0.9580
     26 N3          4.2428    5.5742   -5.9525 N.pl3     1 <0>        -1.2488
     27 H1          1.5297    2.7361   -2.0491 H         1 <0>         0.1386
     28 H2          1.7515    4.6736   -3.5483 H         1 <0>         0.1512
     29 H3          5.9765    4.6721   -2.9558 H         1 <0>         0.1540
     30 H4          5.7751    2.7400   -1.4469 H         1 <0>         0.1463
     31 H5          5.4620    0.4845   -0.9108 H         1 <0>         0.1739
     32 H6         -0.0053    0.0525   -0.1253 H         1 <0>         0.1471
     33 H7         -2.1344    1.2853   -0.0676 H         1 <0>         0.1522
     34 H8         -0.0005    4.9658    0.2875 H         1 <0>         0.1534
     35 H9          2.1322    3.7396    0.2197 H         1 <0>         0.1430
     36 H10         4.2633    4.6159   -6.1014 H         1 <0>         0.4174
     37 H11         4.3478    6.1835   -6.6999 H         1 <0>         0.4232
@<TRIPOS>BOND
     1    1    6 ar
     2    1    2 ar
     3    1   27 1
     4    2    3 ar
     5    2   28 1
     6    3    4 ar
     7    3   23 1
     8    4    5 ar
     9    4   29 1
    10    5    6 ar
    11    5   30 1
    12    6    7 1
    13    7   11 1
    14    7    8 2
    15    8    9 1
    16    8   31 1
    17    9   10 2
    18    9   19 1
    19   10   11 1
    20   11   12 1
    21   12   17 ar
    22   12   13 ar
    23   13   14 ar
    24   13   32 1
    25   14   15 ar
    26   14   33 1
    27   15   16 ar
    28   15   18 1
    29   16   17 ar
    30   16   34 1
    31   17   35 1
    32   19   20 1
    33   19   21 1
    34   19   22 1
    35   23   24 2
    36   23   25 2
    37   23   26 1
    38   26   36 1
    39   26   37 1
@<TRIPOS>MOLECULE
ZINC03814724
   40    43     0     0     0
SMALL
USER_CHARGES

@<TRIPOS>ATOM
      1 C1         -2.6348    1.9596    2.7620 C.ar      1 <0>        -0.1246
      2 C2         -1.8423    1.2819    1.8563 C.ar      1 <0>         0.0017
      3 C3         -0.6301    0.7511    2.2576 C.ar      1 <0>        -0.6781
      4 C4         -0.2100    0.8919    3.5675 C.ar      1 <0>        -0.0045
      5 C5         -0.9953    1.5734    4.4766 C.ar      1 <0>        -0.1352
      6 C6         -2.2131    2.1076    4.0768 C.ar      1 <0>         0.1982
      7 N1         -3.0143    2.7947    4.9977 N.pl3     1 <0>        -0.3211
      8 C7         -2.5888    3.7358    5.8914 C.2       1 <0>         0.1401
      9 C8         -3.6843    4.1530    6.5941 C.2       1 <0>        -0.2053
     10 C9         -4.7904    3.4454    6.1222 C.2       1 <0>         0.0099
     11 N2         -4.3951    2.6360    5.1719 N.2       1 <0>        -0.2342
     12 C10        -6.2045    3.5887    6.6230 C.3       1 <0>         0.3588
     13 F1         -6.2510    3.2738    7.9853 F         1 <0>        -0.1855
     14 F2         -6.6348    4.9065    6.4340 F         1 <0>        -0.1856
     15 C11        -1.2007    4.2160    6.0648 C.ar      1 <0>        -0.0370
     16 C12        -0.3013    4.1546    4.9997 C.ar      1 <0>        -0.0934
     17 C13         0.9916    4.6070    5.1618 C.ar      1 <0>        -0.0964
     18 C14         1.4053    5.1147    6.3845 C.ar      1 <0>         0.0530
     19 C15         0.5128    5.1739    7.4540 C.ar      1 <0>         0.0380
     20 C16        -0.7859    4.7262    7.2954 C.ar      1 <0>        -0.0663
     21 O1          1.1587    5.7078    8.5318 O.3       1 <0>        -0.3029
     22 C17         2.3304    6.3517    7.9974 C.3       1 <0>         0.2122
     23 O2          2.6090    5.6117    6.7943 O.3       1 <0>        -0.3036
     24 S1          0.3780   -0.1127    1.0991 S.o2      1 <0>         2.7035
     25 O3         -0.4900   -0.5836    0.0772 O.2       1 <0>        -0.9535
     26 O4          1.2090   -0.9838    1.8540 O.2       1 <0>        -0.9513
     27 N3          1.3785    1.0024    0.3936 N.pl3     1 <0>        -1.2426
     28 H1         -3.5816    2.3737    2.4481 H         1 <0>         0.1465
     29 H2         -2.1695    1.1668    0.8336 H         1 <0>         0.1553
     30 H3          0.7352    0.4724    3.8789 H         1 <0>         0.1559
     31 H4         -0.6646    1.6868    5.4985 H         1 <0>         0.1444
     32 H5         -3.6918    4.8956    7.3782 H         1 <0>         0.1673
     33 H6         -6.8559    2.9112    6.0709 H         1 <0>         0.1334
     34 H7         -0.6186    3.7564    4.0472 H         1 <0>         0.1402
     35 H8          1.6852    4.5621    4.3351 H         1 <0>         0.1448
     36 H9         -1.4782    4.7712    8.1232 H         1 <0>         0.1465
     37 H10         2.1212    7.3959    7.7650 H         1 <0>         0.0901
     38 H11         3.1629    6.2734    8.6966 H         1 <0>         0.1376
     39 H12         1.3483    1.1428   -0.5657 H         1 <0>         0.4243
     40 H13         1.9948    1.5152    0.9396 H         1 <0>         0.4196
@<TRIPOS>BOND
     1    1    6 ar
     2    1    2 ar
     3    1   28 1
     4    2    3 ar
     5    2   29 1
     6    3    4 ar
     7    3   24 1
     8    4    5 ar
     9    4   30 1
    10    5    6 ar
    11    5   31 1
    12    6    7 1
    13    7   11 1
    14    7    8 1
    15    8    9 2
    16    8   15 1
    17    9   10 1
    18    9   32 1
    19   10   11 2
    20   10   12 1
    21   12   13 1
    22   12   14 1
    23   12   33 1
    24   15   20 ar
    25   15   16 ar
    26   16   17 ar
    27   16   34 1
    28   17   18 ar
    29   17   35 1
    30   18   23 1
    31   18   19 ar
    32   19   20 ar
    33   19   21 1
    34   20   36 1
    35   21   22 1
    36   22   23 1
    37   22   37 1
    38   22   38 1
    39   24   25 2
    40   24   26 2
    41   24   27 1
    42   27   39 1
    43   27   40 1
@<TRIPOS>MOLECULE
ZINC03814725
   37    39     0     0     0
SMALL
USER_CHARGES

@<TRIPOS>ATOM
      1 C1          2.2670    0.1737   -1.3602 C.ar      1 <0>        -0.0998
      2 C2          1.2430   -0.5413   -0.7651 C.ar      1 <0>        -0.1158
      3 C3          0.0722    0.0941   -0.4058 C.ar      1 <0>        -0.0836
      4 C4         -0.0779    1.4606   -0.6443 C.ar      1 <0>        -0.0508
      5 C5          0.9584    2.1759   -1.2452 C.ar      1 <0>        -0.1051
      6 C6          2.1244    1.5288   -1.5993 C.ar      1 <0>        -0.1147
      7 C7         -1.3329    2.1469   -0.2671 C.2       1 <0>         0.1410
      8 C8         -2.5669    1.5717   -0.1490 C.2       1 <0>        -0.2104
      9 C9         -3.4695    2.5679    0.2247 C.2       1 <0>         0.0104
     10 N1         -2.8218    3.7009    0.3312 N.2       1 <0>        -0.2399
     11 N2         -1.4724    3.4718    0.0334 N.pl3     1 <0>        -0.3240
     12 C10        -0.4504    4.4298    0.0398 C.ar      1 <0>         0.2031
     13 C11         0.7687    4.1427    0.6394 C.ar      1 <0>        -0.1338
     14 C12         1.7757    5.0880    0.6406 C.ar      1 <0>         0.0014
     15 C13         1.5676    6.3226    0.0536 C.ar      1 <0>        -0.6763
     16 C14         0.3531    6.6134   -0.5401 C.ar      1 <0>        -0.0023
     17 C15        -0.6563    5.6707   -0.5484 C.ar      1 <0>        -0.1264
     18 S1          2.8527    7.5281    0.0627 S.o2      1 <0>         2.7038
     19 O1          4.0755    6.8172    0.1987 O.2       1 <0>        -0.9573
     20 O2          2.5971    8.4025   -1.0279 O.2       1 <0>        -0.9549
     21 N3          2.6716    8.4264    1.4420 N.pl3     1 <0>        -1.2467
     22 C16        -4.9442    2.3724    0.4656 C.3       1 <0>         0.3591
     23 F1         -5.5481    1.8939   -0.7022 F         1 <0>        -0.1856
     24 F2         -5.1293    1.4476    1.4989 F         1 <0>        -0.1859
     25 H1          3.1818   -0.3282   -1.6389 H         1 <0>         0.1301
     26 H2          1.3604   -1.5990   -0.5811 H         1 <0>         0.1328
     27 H3         -0.7263   -0.4650    0.0593 H         1 <0>         0.1323
     28 H4          0.8481    3.2337   -1.4327 H         1 <0>         0.1236
     29 H5          2.9273    2.0814   -2.0645 H         1 <0>         0.1312
     30 H6         -2.8017    0.5307   -0.3151 H         1 <0>         0.1660
     31 H7          0.9303    3.1801    1.1017 H         1 <0>         0.1442
     32 H8          2.7253    4.8639    1.1036 H         1 <0>         0.1564
     33 H9          0.1935    7.5786   -0.9974 H         1 <0>         0.1564
     34 H10        -1.6050    5.8987   -1.0117 H         1 <0>         0.1465
     35 H11         3.4479    8.8211    1.8692 H         1 <0>         0.4238
     36 H12         1.7892    8.5580    1.8228 H         1 <0>         0.4182
     37 H13        -5.3961    3.3243    0.7446 H         1 <0>         0.1329
@<TRIPOS>BOND
     1    1    6 ar
     2    1    2 ar
     3    1   25 1
     4    2    3 ar
     5    2   26 1
     6    3    4 ar
     7    3   27 1
     8    4    5 ar
     9    4    7 1
    10    5    6 ar
    11    5   28 1
    12    6   29 1
    13    7   11 1
    14    7    8 2
    15    8    9 1
    16    8   30 1
    17    9   10 2
    18    9   22 1
    19   10   11 1
    20   11   12 1
    21   12   17 ar
    22   12   13 ar
    23   13   14 ar
    24   13   31 1
    25   14   15 ar
    26   14   32 1
    27   15   16 ar
    28   15   18 1
    29   16   17 ar
    30   16   33 1
    31   17   34 1
    32   18   19 2
    33   18   20 2
    34   18   21 1
    35   21   35 1
    36   21   36 1
    37   22   23 1
    38   22   24 1
    39   22   37 1
@<TRIPOS>MOLECULE
ZINC03814726
   40    42     0     0     0
SMALL
USER_CHARGES

@<TRIPOS>ATOM
      1 C1          0.3513   -7.8294    3.5375 C.3       1 <0>         0.0240
      2 O1          0.3549   -6.5387    4.1507 O.3       1 <0>        -0.3126
      3 C2          0.2877   -5.4627    3.3238 C.ar      1 <0>         0.1475
      4 C3          0.2872   -4.1798    3.8551 C.ar      1 <0>        -0.1500
      5 C4          0.2187   -3.0856    3.0193 C.ar      1 <0>        -0.0422
      6 C5          0.1499   -3.2685    1.6375 C.ar      1 <0>        -0.0880
      7 C6          0.1453   -4.5596    1.1074 C.ar      1 <0>        -0.0582
      8 C7          0.2193   -5.6487    1.9494 C.ar      1 <0>        -0.2054
      9 C8          0.0758   -2.0973    0.7373 C.2       1 <0>         0.1492
     10 C9          0.5447   -0.8408    1.0021 C.2       1 <0>        -0.2126
     11 C10         0.2743   -0.0405   -0.1081 C.2       1 <0>        -0.0124
     12 N1         -0.3366   -0.7680   -1.0096 N.2       1 <0>        -0.2250
     13 N2         -0.4730   -2.0705   -0.5127 N.pl3     1 <0>        -0.2982
     14 C11        -1.0704   -3.1509   -1.1770 C.ar      1 <0>         0.0906
     15 C12        -0.7699   -3.3989   -2.5097 C.ar      1 <0>        -0.0555
     16 C13        -1.3549   -4.4658   -3.1620 C.ar      1 <0>        -0.1958
     17 C14        -2.2508   -5.2841   -2.4890 C.ar      1 <0>         0.1436
     18 C15        -2.5558   -5.0334   -1.1589 C.ar      1 <0>        -0.1364
     19 C16        -1.9674   -3.9699   -0.5041 C.ar      1 <0>        -0.0659
     20 O2         -2.8301   -6.3317   -3.1331 O.3       1 <0>        -0.3107
     21 C17        -2.4702   -6.5311   -4.5016 C.3       1 <0>         0.0229
     22 C18         0.6215    1.4195   -0.2447 C.3       1 <0>         0.5577
     23 F1          1.8965    1.5451   -0.8065 F         1 <0>        -0.1662
     24 F2         -0.3164    2.0465   -1.0720 F         1 <0>        -0.1657
     25 F3          0.6067    2.0224    1.0176 F         1 <0>        -0.1629
     26 H1          1.2098   -7.9177    2.8717 H         1 <0>         0.0583
     27 H2          0.4087   -8.5980    4.3083 H         1 <0>         0.1040
     28 H3         -0.5673   -7.9570    2.9649 H         1 <0>         0.0587
     29 H4          0.3402   -4.0391    4.9246 H         1 <0>         0.1407
     30 H5          0.2180   -2.0881    3.4334 H         1 <0>         0.1405
     31 H6          0.0880   -4.7051    0.0388 H         1 <0>         0.1307
     32 H7          0.2203   -6.6480    1.5398 H         1 <0>         0.1350
     33 H8          1.0365   -0.5238    1.9098 H         1 <0>         0.1691
     34 H9         -0.0754   -2.7598   -3.0348 H         1 <0>         0.1383
     35 H10        -1.1181   -4.6613   -4.1975 H         1 <0>         0.1419
     36 H11        -3.2535   -5.6705   -0.6357 H         1 <0>         0.1454
     37 H12        -2.2050   -3.7748    0.5313 H         1 <0>         0.1408
     38 H13        -1.3959   -6.7008   -4.5738 H         1 <0>         0.0594
     39 H14        -3.0021   -7.3975   -4.8947 H         1 <0>         0.1054
     40 H15        -2.7381   -5.6471   -5.0803 H         1 <0>         0.0599
@<TRIPOS>BOND
     1    1    2 1
     2    1   26 1
     3    1   27 1
     4    1   28 1
     5    2    3 1
     6    3    8 ar
     7    3    4 ar
     8    4    5 ar
     9    4   29 1
    10    5    6 ar
    11    5   30 1
    12    6    7 ar
    13    6    9 1
    14    7    8 ar
    15    7   31 1
    16    8   32 1
    17    9   13 1
    18    9   10 2
    19   10   11 1
    20   10   33 1
    21   11   12 2
    22   11   22 1
    23   12   13 1
    24   13   14 1
    25   14   19 ar
    26   14   15 ar
    27   15   16 ar
    28   15   34 1
    29   16   17 ar
    30   16   35 1
    31   17   18 ar
    32   17   20 1
    33   18   19 ar
    34   18   36 1
    35   19   37 1
    36   20   21 1
    37   21   38 1
    38   21   39 1
    39   21   40 1
    40   22   23 1
    41   22   24 1
    42   22   25 1
@<TRIPOS>MOLECULE
ZINC03814727
   36    38     0     0     0
SMALL
USER_CHARGES

@<TRIPOS>ATOM
      1 C1          2.7875    6.3617   -4.7538 C.3       1 <0>         0.0237
      2 O1          3.9926    5.8530   -4.1784 O.3       1 <0>        -0.3120
      3 C2          3.8757    4.7868   -3.3443 C.ar      1 <0>         0.1493
      4 C3          5.0079    4.2437   -2.7517 C.ar      1 <0>        -0.1496
      5 C4          4.8934    3.1616   -1.9052 C.ar      1 <0>        -0.0409
      6 C5          3.6374    2.6123   -1.6438 C.ar      1 <0>        -0.0907
      7 C6          2.5022    3.1579   -2.2451 C.ar      1 <0>        -0.0576
      8 C7          2.6243    4.2427   -3.0870 C.ar      1 <0>        -0.2054
      9 C8          3.5102    1.4511   -0.7367 C.2       1 <0>         0.1523
     10 C9          4.4707    0.5124   -0.4825 C.2       1 <0>        -0.2099
     11 C10         3.9406   -0.4081    0.4221 C.2       1 <0>        -0.0075
     12 N1          2.7155   -0.0499    0.7143 N.2       1 <0>        -0.2211
     13 N2          2.4124    1.1193    0.0047 N.pl3     1 <0>        -0.3083
     14 C11         1.1992    1.8190    0.0440 C.ar      1 <0>         0.1392
     15 C12        -0.0039    1.1299   -0.0333 C.ar      1 <0>        -0.0877
     16 C13        -1.1983    1.8223   -0.0001 C.ar      1 <0>        -0.0938
     17 C14        -1.1971    3.2010    0.1201 C.ar      1 <0>        -0.0268
     18 C15         0.0006    3.8901    0.1977 C.ar      1 <0>        -0.0938
     19 C16         1.1978    3.2027    0.1597 C.ar      1 <0>        -0.0965
     20 Cl1        -2.7003    4.0681    0.1670 Cl        1 <0>        -0.0528
     21 C17         4.6582   -1.6143    0.9708 C.3       1 <0>         0.5571
     22 F1          3.7768   -2.3631    1.7581 F         1 <0>        -0.1644
     23 F2          5.1224   -2.4024   -0.0878 F         1 <0>        -0.1631
     24 F3          5.7415   -1.1972    1.7516 F         1 <0>        -0.1637
     25 H1          3.0219    7.2097   -5.3973 H         1 <0>         0.1046
     26 H2          2.3081    5.5801   -5.3431 H         1 <0>         0.0588
     27 H3          2.1134    6.6834   -3.9600 H         1 <0>         0.0588
     28 H4          5.9796    4.6694   -2.9544 H         1 <0>         0.1415
     29 H5          5.7746    2.7393   -1.4452 H         1 <0>         0.1409
     30 H6          1.5290    2.7329   -2.0485 H         1 <0>         0.1285
     31 H7          1.7460    4.6676   -3.5501 H         1 <0>         0.1358
     32 H8          5.4623    0.4855   -0.9095 H         1 <0>         0.1703
     33 H9         -0.0055    0.0536   -0.1237 H         1 <0>         0.1454
     34 H10        -2.1342    1.2872   -0.0646 H         1 <0>         0.1481
     35 H11        -0.0010    4.9664    0.2877 H         1 <0>         0.1478
     36 H12         2.1322    3.7410    0.2196 H         1 <0>         0.1435
@<TRIPOS>BOND
     1    1    2 1
     2    1   25 1
     3    1   26 1
     4    1   27 1
     5    2    3 1
     6    3    8 ar
     7    3    4 ar
     8    4    5 ar
     9    4   28 1
    10    5    6 ar
    11    5   29 1
    12    6    7 ar
    13    6    9 1
    14    7    8 ar
    15    7   30 1
    16    8   31 1
    17    9   13 1
    18    9   10 2
    19   10   11 1
    20   10   32 1
    21   11   12 2
    22   11   21 1
    23   12   13 1
    24   13   14 1
    25   14   19 ar
    26   14   15 ar
    27   15   16 ar
    28   15   33 1
    29   16   17 ar
    30   16   34 1
    31   17   18 ar
    32   17   20 1
    33   18   19 ar
    34   18   35 1
    35   19   36 1
    36   21   22 1
    37   21   23 1
    38   21   24 1
@<TRIPOS>MOLECULE
ZINC03814728
   41    44     0     0     0
SMALL
USER_CHARGES

@<TRIPOS>ATOM
      1 C1         -0.3031    4.1600    4.9834 C.ar      1 <0>        -0.0935
      2 C2          0.9895    4.6154    5.1413 C.ar      1 <0>        -0.1062
      3 C3          1.4021    5.1268    6.3601 C.ar      1 <0>        -0.0208
      4 C4          0.5198    5.1883    7.4255 C.ar      1 <0>        -0.1057
      5 C5         -0.7764    4.7398    7.2779 C.ar      1 <0>        -0.0718
      6 C6         -1.1978    4.2239    6.0520 C.ar      1 <0>        -0.0410
      7 C7         -2.5866    3.7409    5.8876 C.2       1 <0>         0.1364
      8 C8         -3.6750    4.1621    6.5931 C.2       1 <0>        -0.2201
      9 C9         -4.7937    3.4488    6.1237 C.2       1 <0>         0.1664
     10 N1         -4.3934    2.6337    5.1673 N.2       1 <0>        -0.2490
     11 N2         -3.0116    2.7909    5.0017 N.pl3     1 <0>        -0.3272
     12 C10        -2.2084    2.1011    4.0860 C.ar      1 <0>         0.2037
     13 C11        -2.6299    1.9419    2.7722 C.ar      1 <0>        -0.1270
     14 C12        -1.8349    1.2612    1.8712 C.ar      1 <0>         0.0021
     15 C13        -0.6203    0.7383    2.2758 C.ar      1 <0>        -0.6801
     16 C14        -0.2003    0.8901    3.5846 C.ar      1 <0>        -0.0045
     17 C15        -0.9879    1.5747    4.4892 C.ar      1 <0>        -0.1378
     18 S1          0.3910   -0.1296    1.1231 S.o2      1 <0>         2.7035
     19 O1         -0.4754   -0.6113    0.1049 O.2       1 <0>        -0.9540
     20 O2          1.2258   -0.9918    1.8839 O.2       1 <0>        -0.9517
     21 N3          1.3866    0.9846    0.4093 N.pl3     1 <0>        -1.2427
     22 C16        -6.1812    3.5933    6.6142 C.2       1 <0>        -0.0900
     23 C17        -7.3128    2.9419    6.2042 C.2       1 <0>        -0.1124
     24 C18        -8.5100    3.2428    6.8177 C.2       1 <0>        -0.1389
     25 C19        -8.5318    4.1808    7.8002 C.2       1 <0>        -0.1169
     26 S2         -6.8169    4.6687    7.8897 S.3       1 <0>         0.1462
     27 Cl1        -9.8803    4.7571    8.7292 Cl        1 <0>         0.0251
     28 Cl2         3.0319    5.6925    6.5533 Cl        1 <0>        -0.0573
     29 H1         -0.6227    3.7575    4.0335 H         1 <0>         0.1343
     30 H2          1.6819    4.5699    4.3137 H         1 <0>         0.1412
     31 H3          0.8472    5.5878    8.3740 H         1 <0>         0.1439
     32 H4         -1.4634    4.7875    8.1098 H         1 <0>         0.1427
     33 H5         -3.6779    4.9092    7.3730 H         1 <0>         0.1640
     34 H6         -3.5785    2.3497    2.4557 H         1 <0>         0.1457
     35 H7         -2.1620    1.1374    0.8494 H         1 <0>         0.1544
     36 H8          0.7468    0.4767    3.8986 H         1 <0>         0.1550
     37 H9         -0.6575    1.6965    5.5101 H         1 <0>         0.1430
     38 H10         1.3555    1.1181   -0.5510 H         1 <0>         0.4241
     39 H11         2.0009    1.5039    0.9514 H         1 <0>         0.4195
     40 H12        -7.2681    2.2038    5.4170 H         1 <0>         0.1485
     41 H13        -9.4191    2.7425    6.5185 H         1 <0>         0.1487
@<TRIPOS>BOND
     1    1    6 ar
     2    1    2 ar
     3    1   29 1
     4    2    3 ar
     5    2   30 1
     6    3    4 ar
     7    3   28 1
     8    4    5 ar
     9    4   31 1
    10    5    6 ar
    11    5   32 1
    12    6    7 1
    13    7   11 1
    14    7    8 2
    15    8    9 1
    16    8   33 1
    17    9   10 2
    18    9   22 1
    19   10   11 1
    20   11   12 1
    21   12   17 ar
    22   12   13 ar
    23   13   14 ar
    24   13   34 1
    25   14   15 ar
    26   14   35 1
    27   15   16 ar
    28   15   18 1
    29   16   17 ar
    30   16   36 1
    31   17   37 1
    32   18   19 2
    33   18   20 2
    34   18   21 1
    35   21   38 1
    36   21   39 1
    37   22   26 1
    38   22   23 2
    39   23   24 1
    40   23   40 1
    41   24   25 2
    42   24   41 1
    43   25   26 1
    44   25   27 1
@<TRIPOS>MOLECULE
ZINC03814730
   46    49     0     0     0
SMALL
USER_CHARGES

@<TRIPOS>ATOM
      1 C1          1.8848    1.9226    6.6068 C.3       1 <0>         0.0236
      2 O1          2.7515    1.2077    5.7237 O.3       1 <0>        -0.3033
      3 C2          2.2042    0.7293    4.5757 C.ar      1 <0>         0.1435
      4 C3          0.8588    0.9455    4.3076 C.ar      1 <0>        -0.1953
      5 C4          0.2990    0.4619    3.1450 C.ar      1 <0>        -0.0546
      6 C5          1.0874   -0.2471    2.2340 C.ar      1 <0>        -0.0699
      7 C6          2.4399   -0.4668    2.5096 C.ar      1 <0>        -0.0582
      8 C7          2.9925    0.0246    3.6737 C.ar      1 <0>        -0.0680
      9 Cl1         4.6733   -0.2429    4.0158 Cl        1 <0>        -0.0519
     10 C8          0.4930   -0.7664    0.9898 C.2       1 <0>        -0.0580
     11 C9          0.0021   -0.0041    0.0020 C.2       1 <0>        -0.1012
     12 C10        -0.5229   -0.8671   -1.1256 C.3       1 <0>        -0.0444
     13 C11        -0.6513   -2.2682   -0.5127 C.3       1 <0>        -0.1343
     14 C12         0.3490   -2.2348    0.6507 C.3       1 <0>        -0.0505
     15 C13        -0.8772   -3.5091   -1.3573 C.3       1 <0>        -0.1621
     16 C14        -1.9794   -2.9984   -0.4230 C.3       1 <0>        -0.1627
     17 C15        -0.0179    1.4696    0.0101 C.ar      1 <0>         0.0331
     18 C16        -1.2355    2.1552    0.0196 C.ar      1 <0>        -0.1301
     19 C17        -1.2463    3.5343    0.0335 C.ar      1 <0>        -0.0159
     20 C18        -0.0555    4.2390    0.0259 C.ar      1 <0>        -0.6775
     21 C19         1.1541    3.5669    0.0102 C.ar      1 <0>        -0.0146
     22 C20         1.1806    2.1880    0.0025 C.ar      1 <0>        -0.1233
     23 S1         -0.0793    6.0008    0.0368 S.o2      1 <0>         2.6992
     24 O2         -1.3248    6.3866    0.6020 O.2       1 <0>        -0.9632
     25 O3          1.1656    6.4205    0.5783 O.2       1 <0>        -0.9624
     26 N1         -0.1011    6.5000   -1.5420 N.pl3     1 <0>        -1.2499
     27 H1          2.4465    2.2485    7.4822 H         1 <0>         0.1058
     28 H2          1.4782    2.7927    6.0914 H         1 <0>         0.0595
     29 H3          1.0685    1.2718    6.9205 H         1 <0>         0.0587
     30 H4          0.2501    1.4933    5.0117 H         1 <0>         0.1400
     31 H5         -0.7473    0.6308    2.9377 H         1 <0>         0.1305
     32 H6          3.0519   -1.0179    1.8109 H         1 <0>         0.1412
     33 H7         -1.4964   -0.5070   -1.4583 H         1 <0>         0.0765
     34 H8          0.1823   -0.8770   -1.9567 H         1 <0>         0.0862
     35 H9         -0.0421   -2.7882    1.5044 H         1 <0>         0.0787
     36 H10         1.3087   -2.6470    0.3388 H         1 <0>         0.0873
     37 H11        -1.0205   -3.3699   -2.4289 H         1 <0>         0.0981
     38 H12        -0.3519   -4.4188   -1.0667 H         1 <0>         0.0984
     39 H13        -2.1787   -3.5723    0.4819 H         1 <0>         0.0971
     40 H14        -2.8476   -2.5229   -0.8793 H         1 <0>         0.0969
     41 H15        -2.1658    1.6065    0.0210 H         1 <0>         0.1355
     42 H16        -2.1866    4.0655    0.0461 H         1 <0>         0.1446
     43 H17         2.0796    4.1236    0.0044 H         1 <0>         0.1442
     44 H18         2.1254    1.6648   -0.0090 H         1 <0>         0.1338
     45 H19        -0.0990    5.8453   -2.2577 H         1 <0>         0.4169
     46 H20        -0.1160    7.4471   -1.7511 H         1 <0>         0.4216
@<TRIPOS>BOND
     1    1    2 1
     2    1   27 1
     3    1   28 1
     4    1   29 1
     5    2    3 1
     6    3    8 ar
     7    3    4 ar
     8    4    5 ar
     9    4   30 1
    10    5    6 ar
    11    5   31 1
    12    6    7 ar
    13    6   10 1
    14    7    8 ar
    15    7   32 1
    16    8    9 1
    17   10   14 1
    18   10   11 2
    19   11   12 1
    20   11   17 1
    21   12   13 1
    22   12   33 1
    23   12   34 1
    24   13   16 1
    25   13   14 1
    26   13   15 1
    27   14   35 1
    28   14   36 1
    29   15   16 1
    30   15   37 1
    31   15   38 1
    32   16   39 1
    33   16   40 1
    34   17   22 ar
    35   17   18 ar
    36   18   19 ar
    37   18   41 1
    38   19   20 ar
    39   19   42 1
    40   20   21 ar
    41   20   23 1
    42   21   22 ar
    43   21   43 1
    44   22   44 1
    45   23   24 2
    46   23   25 2
    47   23   26 1
    48   26   45 1
    49   26   46 1
@<TRIPOS>MOLECULE
ZINC03814731
   45    48     0     0     0
SMALL
USER_CHARGES

@<TRIPOS>ATOM
      1 C1         -6.0292    6.9059    0.2049 C.3       1 <0>         0.0246
      2 O1         -5.2760    7.4768    1.2766 O.3       1 <0>        -0.3039
      3 C2         -4.8787    6.6363    2.2678 C.ar      1 <0>         0.1406
      4 C3         -5.2083    5.2892    2.2073 C.ar      1 <0>        -0.1966
      5 C4         -4.8014    4.4324    3.2083 C.ar      1 <0>        -0.0553
      6 C5         -4.0675    4.9220    4.2881 C.ar      1 <0>        -0.0611
      7 C6         -3.7376    6.2752    4.3468 C.ar      1 <0>        -0.0585
      8 C7         -4.1431    7.1269    3.3394 C.ar      1 <0>        -0.0680
      9 Cl1        -3.7331    8.8122    3.4110 Cl        1 <0>        -0.0523
     10 C8         -3.6336    4.0041    5.3686 C.2       1 <0>        -0.0545
     11 C9         -4.0516    4.0665    6.6399 C.2       1 <0>        -0.1073
     12 C10        -3.3544    2.9542    7.3809 C.3       1 <0>        -0.1100
     13 C11        -2.8931    3.1278    8.8245 C.3       1 <0>        -0.1339
     14 C12        -4.0523    2.1830    8.4968 C.3       1 <0>        -0.1340
     15 C13        -2.4944    2.2528    6.3606 C.2       1 <0>        -0.1016
     16 C14        -2.6825    2.8874    5.1961 C.2       1 <0>        -0.0735
     17 C15        -2.0247    2.5244    3.9174 C.ar      1 <0>         0.0265
     18 C16        -2.2974    1.2980    3.3139 C.ar      1 <0>        -0.1287
     19 C17        -1.6827    0.9657    2.1238 C.ar      1 <0>        -0.0221
     20 C18        -0.7978    1.8475    1.5296 C.ar      1 <0>        -0.6608
     21 C19        -0.5191    3.0637    2.1269 C.ar      1 <0>        -0.0209
     22 C20        -1.1319    3.4087    3.3144 C.ar      1 <0>        -0.1207
     23 S1         -0.0172    1.4168    0.0098 S.o2      1 <0>         2.4983
     24 O2          0.0021   -0.0041    0.0020 O.2       1 <0>        -0.9372
     25 O3          1.1953    2.1578    0.0022 O.2       1 <0>        -0.9366
     26 C21        -1.1345    2.0336   -1.2793 C.3       1 <0>        -0.6507
     27 H1         -5.4357    6.1344   -0.2857 H         1 <0>         0.0578
     28 H2         -6.9446    6.4644    0.5990 H         1 <0>         0.0585
     29 H3         -6.2819    7.6833   -0.5161 H         1 <0>         0.1051
     30 H4         -5.7799    4.9108    1.3728 H         1 <0>         0.1389
     31 H5         -5.0545    3.3837    3.1580 H         1 <0>         0.1304
     32 H6         -3.1658    6.6567    5.1798 H         1 <0>         0.1408
     33 H7         -4.7494    4.7789    7.0547 H         1 <0>         0.1466
     34 H8         -1.9412    2.6779    9.1065 H         1 <0>         0.1060
     35 H9         -3.1346    4.0678    9.3206 H         1 <0>         0.1064
     36 H10        -5.0563    2.5016    8.7773 H         1 <0>         0.1062
     37 H11        -3.8633    1.1116    8.5628 H         1 <0>         0.1058
     38 H12        -1.8510    1.4031    6.5348 H         1 <0>         0.1464
     39 H13        -2.9886    0.6091    3.7766 H         1 <0>         0.1338
     40 H14        -1.8932    0.0157    1.6553 H         1 <0>         0.1437
     41 H15         0.1759    3.7463    1.6608 H         1 <0>         0.1433
     42 H16        -0.9167    4.3602    3.7777 H         1 <0>         0.1323
     43 H17        -2.1080    1.5544   -1.1761 H         1 <0>         0.1312
     44 H18        -1.2479    3.1127   -1.1759 H         1 <0>         0.1312
     45 H19        -0.7188    1.8043   -2.2605 H         1 <0>         0.1336
@<TRIPOS>BOND
     1    1    2 1
     2    1   27 1
     3    1   28 1
     4    1   29 1
     5    2    3 1
     6    3    8 ar
     7    3    4 ar
     8    4    5 ar
     9    4   30 1
    10    5    6 ar
    11    5   31 1
    12    6    7 ar
    13    6   10 1
    14    7    8 ar
    15    7   32 1
    16    8    9 1
    17   10   16 1
    18   10   11 2
    19   11   12 1
    20   11   33 1
    21   12   14 1
    22   12   13 1
    23   12   15 1
    24   13   14 1
    25   13   34 1
    26   13   35 1
    27   14   36 1
    28   14   37 1
    29   15   16 2
    30   15   38 1
    31   16   17 1
    32   17   22 ar
    33   17   18 ar
    34   18   19 ar
    35   18   39 1
    36   19   20 ar
    37   19   40 1
    38   20   21 ar
    39   20   23 1
    40   21   22 ar
    41   21   41 1
    42   22   42 1
    43   23   24 2
    44   23   25 2
    45   23   26 1
    46   26   43 1
    47   26   44 1
    48   26   45 1
@<TRIPOS>MOLECULE
ZINC03814732
   42    45     0     0     0
SMALL
USER_CHARGES

@<TRIPOS>ATOM
      1 C1         -1.8535    4.9442   -4.1098 C.ar      1 <0>        -0.0763
      2 C2         -2.2485    6.0972   -4.7543 C.ar      1 <0>        -0.1513
      3 C3         -3.3910    6.7668   -4.3447 C.ar      1 <0>         0.1030
      4 C4         -4.1464    6.2794   -3.2897 C.ar      1 <0>        -0.1507
      5 C5         -3.7652    5.1239   -2.6412 C.ar      1 <0>        -0.0721
      6 C6         -2.6143    4.4443   -3.0494 C.ar      1 <0>        -0.0537
      7 C7         -2.2013    3.2086   -2.3606 C.2       1 <0>        -0.0639
      8 C8         -2.9002    2.0645   -2.3608 C.2       1 <0>        -0.0995
      9 C9         -2.1825    1.0022   -1.5555 C.3       1 <0>        -0.0448
     10 C10        -1.1428    1.7763   -0.7340 C.3       1 <0>        -0.1351
     11 C11        -0.9286    3.0549   -1.5552 C.3       1 <0>        -0.0495
     12 C12        -0.0127    1.0858    0.0080 C.3       1 <0>        -0.1619
     13 C13        -1.1389    1.7746    0.7862 C.3       1 <0>        -0.1627
     14 C14        -4.1882    1.8681   -3.0498 C.ar      1 <0>         0.0317
     15 C15        -5.3466    1.6098   -2.3123 C.ar      1 <0>        -0.1297
     16 C16        -6.5495    1.4332   -2.9636 C.ar      1 <0>        -0.0154
     17 C17        -6.6086    1.4990   -4.3446 C.ar      1 <0>        -0.6770
     18 C18        -5.4645    1.7487   -5.0818 C.ar      1 <0>        -0.0147
     19 C19        -4.2557    1.9335   -4.4440 C.ar      1 <0>        -0.1240
     20 S1         -8.1485    1.2642   -5.1683 S.o2      1 <0>         2.6997
     21 O1         -9.1648    1.5873   -4.2292 O.2       1 <0>        -0.9626
     22 O2         -8.0392    1.9150   -6.4267 O.2       1 <0>        -0.9624
     23 N1         -8.2930   -0.3550   -5.4838 N.pl3     1 <0>        -1.2500
     24 F1         -3.7701    7.8991   -4.9768 F         1 <0>        -0.1373
     25 H1         -0.9607    4.4257   -4.4268 H         1 <0>         0.1345
     26 H2         -1.6643    6.4817   -5.5772 H         1 <0>         0.1386
     27 H3         -5.0355    6.8055   -2.9752 H         1 <0>         0.1382
     28 H4         -4.3549    4.7447   -1.8198 H         1 <0>         0.1315
     29 H5         -1.6902    0.2906   -2.2184 H         1 <0>         0.0862
     30 H6         -2.8817    0.4879   -0.8962 H         1 <0>         0.0771
     31 H7         -0.7902    3.9116   -0.8957 H         1 <0>         0.0784
     32 H8         -0.0694    2.9425   -2.2165 H         1 <0>         0.0873
     33 H9          0.0021   -0.0041    0.0020 H         1 <0>         0.0981
     34 H10         0.9640    1.5696    0.0013 H         1 <0>         0.0983
     35 H11        -1.8647    1.1377    1.2918 H         1 <0>         0.0972
     36 H12        -0.9030    2.7119    1.2902 H         1 <0>         0.0974
     37 H13        -5.3011    1.5534   -1.2348 H         1 <0>         0.1357
     38 H14        -7.4466    1.2383   -2.3947 H         1 <0>         0.1451
     39 H15        -5.5183    1.7993   -6.1593 H         1 <0>         0.1444
     40 H16        -3.3636    2.1287   -5.0206 H         1 <0>         0.1336
     41 H17        -7.5896   -0.9663   -5.2147 H         1 <0>         0.4168
     42 H18        -9.0811   -0.6922   -5.9378 H         1 <0>         0.4216
@<TRIPOS>BOND
     1    1    6 ar
     2    1    2 ar
     3    1   25 1
     4    2    3 ar
     5    2   26 1
     6    3    4 ar
     7    3   24 1
     8    4    5 ar
     9    4   27 1
    10    5    6 ar
    11    5   28 1
    12    6    7 1
    13    7   11 1
    14    7    8 2
    15    8    9 1
    16    8   14 1
    17    9   10 1
    18    9   29 1
    19    9   30 1
    20   10   13 1
    21   10   11 1
    22   10   12 1
    23   11   31 1
    24   11   32 1
    25   12   13 1
    26   12   33 1
    27   12   34 1
    28   13   35 1
    29   13   36 1
    30   14   19 ar
    31   14   15 ar
    32   15   16 ar
    33   15   37 1
    34   16   17 ar
    35   16   38 1
    36   17   18 ar
    37   17   20 1
    38   18   19 ar
    39   18   39 1
    40   19   40 1
    41   20   21 2
    42   20   22 2
    43   20   23 1
    44   23   41 1
    45   23   42 1
@<TRIPOS>MOLECULE
ZINC03814733
   46    49     0     0     0
SMALL
USER_CHARGES

@<TRIPOS>ATOM
      1 C1         -7.9269    1.2977   -5.0466 C.3       1 <0>        -0.1183
      2 C2         -6.6096    1.4988   -4.3427 C.ar      1 <0>        -0.0803
      3 C3         -5.4660    1.7493   -5.0805 C.ar      1 <0>        -0.1185
      4 C4         -4.2569    1.9343   -4.4433 C.ar      1 <0>        -0.0962
      5 C5         -4.1885    1.8684   -3.0492 C.ar      1 <0>        -0.0495
      6 C6         -5.3466    1.6098   -2.3111 C.ar      1 <0>        -0.1004
      7 C7         -6.5495    1.4316   -2.9619 C.ar      1 <0>        -0.1196
      8 C8         -2.9001    2.0646   -2.3608 C.2       1 <0>        -0.0612
      9 C9         -2.2013    3.2085   -2.3606 C.2       1 <0>        -0.1046
     10 C10        -0.9286    3.0549   -1.5553 C.3       1 <0>        -0.0440
     11 C11        -1.1428    1.7763   -0.7340 C.3       1 <0>        -0.1345
     12 C12        -2.1825    1.0022   -1.5555 C.3       1 <0>        -0.0495
     13 C13        -0.0127    1.0858    0.0080 C.3       1 <0>        -0.1625
     14 C14        -1.1389    1.7746    0.7862 C.3       1 <0>        -0.1628
     15 C15        -2.6144    4.4443   -3.0496 C.ar      1 <0>         0.0300
     16 C16        -1.8541    4.9446   -4.1099 C.ar      1 <0>        -0.1303
     17 C17        -2.2499    6.0984   -4.7536 C.ar      1 <0>        -0.0215
     18 C18        -3.3906    6.7665   -4.3444 C.ar      1 <0>        -0.6619
     19 C19        -4.1454    6.2801   -3.2915 C.ar      1 <0>        -0.0206
     20 C20        -3.7650    5.1243   -2.6420 C.ar      1 <0>        -0.1214
     21 S1         -3.8847    8.2434   -5.1684 S.o2      1 <0>         2.4987
     22 O1         -3.3405    8.1285   -6.4761 O.2       1 <0>        -0.9376
     23 O2         -5.2903    8.3151   -4.9725 O.2       1 <0>        -0.9373
     24 C21        -3.0587    9.5809   -4.2633 C.3       1 <0>        -0.6508
     25 H1         -8.0600    0.2398   -5.2730 H         1 <0>         0.0717
     26 H2         -8.7384    1.6363   -4.4024 H         1 <0>         0.0675
     27 H3         -7.9350    1.8715   -5.9733 H         1 <0>         0.0676
     28 H4         -5.5204    1.8003   -6.1579 H         1 <0>         0.1234
     29 H5         -3.3652    2.1301   -5.0203 H         1 <0>         0.1198
     30 H6         -5.3003    1.5529   -1.2336 H         1 <0>         0.1224
     31 H7         -7.4460    1.2354   -2.3926 H         1 <0>         0.1237
     32 H8         -0.7903    3.9116   -0.8957 H         1 <0>         0.0752
     33 H9         -0.0694    2.9425   -2.2165 H         1 <0>         0.0844
     34 H10        -1.6902    0.2906   -2.2183 H         1 <0>         0.0862
     35 H11        -2.8818    0.4880   -0.8962 H         1 <0>         0.0773
     36 H12         0.0021   -0.0041    0.0020 H         1 <0>         0.0980
     37 H13         0.9640    1.5696    0.0013 H         1 <0>         0.0977
     38 H14        -1.8647    1.1377    1.2918 H         1 <0>         0.0969
     39 H15        -0.9030    2.7119    1.2902 H         1 <0>         0.0966
     40 H16        -0.9609    4.4269   -4.4271 H         1 <0>         0.1332
     41 H17        -1.6657    6.4839   -5.5761 H         1 <0>         0.1432
     42 H18        -5.0346    6.8065   -2.9778 H         1 <0>         0.1424
     43 H19        -4.3552    4.7457   -1.8206 H         1 <0>         0.1311
     44 H20        -1.9792    9.4367   -4.3071 H         1 <0>         0.1315
     45 H21        -3.3159   10.5387   -4.7157 H         1 <0>         0.1332
     46 H22        -3.3847    9.5712   -3.2232 H         1 <0>         0.1314
@<TRIPOS>BOND
     1    1    2 1
     2    1   25 1
     3    1   26 1
     4    1   27 1
     5    2    7 ar
     6    2    3 ar
     7    3    4 ar
     8    3   28 1
     9    4    5 ar
    10    4   29 1
    11    5    6 ar
    12    5    8 1
    13    6    7 ar
    14    6   30 1
    15    7   31 1
    16    8   12 1
    17    8    9 2
    18    9   10 1
    19    9   15 1
    20   10   11 1
    21   10   32 1
    22   10   33 1
    23   11   14 1
    24   11   12 1
    25   11   13 1
    26   12   34 1
    27   12   35 1
    28   13   14 1
    29   13   36 1
    30   13   37 1
    31   14   38 1
    32   14   39 1
    33   15   20 ar
    34   15   16 ar
    35   16   17 ar
    36   16   40 1
    37   17   18 ar
    38   17   41 1
    39   18   19 ar
    40   18   21 1
    41   19   20 ar
    42   19   42 1
    43   20   43 1
    44   21   22 2
    45   21   23 2
    46   21   24 1
    47   24   44 1
    48   24   45 1
    49   24   46 1
@<TRIPOS>MOLECULE
ZINC03814734
   47    50     0     0     0
SMALL
USER_CHARGES

@<TRIPOS>ATOM
      1 C1         -8.9391    1.0619   -4.1596 C.3       1 <0>         0.0261
      2 O1         -7.7970    1.3166   -4.9798 O.3       1 <0>        -0.3161
      3 C2         -6.6097    1.4977   -4.3448 C.ar      1 <0>         0.1333
      4 C3         -5.4607    1.7490   -5.0837 C.ar      1 <0>        -0.1492
      5 C4         -4.2543    1.9338   -4.4441 C.ar      1 <0>        -0.0602
      6 C5         -4.1879    1.8681   -3.0494 C.ar      1 <0>        -0.0824
      7 C6         -5.3460    1.6097   -2.3104 C.ar      1 <0>        -0.0630
      8 C7         -6.5488    1.4314   -2.9587 C.ar      1 <0>        -0.2073
      9 C8         -2.9003    2.0645   -2.3607 C.2       1 <0>        -0.0561
     10 C9         -2.2013    3.2088   -2.3605 C.2       1 <0>        -0.1064
     11 C10        -0.9286    3.0549   -1.5552 C.3       1 <0>        -0.0438
     12 C11        -1.1428    1.7763   -0.7340 C.3       1 <0>        -0.1342
     13 C12        -2.1825    1.0022   -1.5555 C.3       1 <0>        -0.0500
     14 C13        -0.0127    1.0858    0.0080 C.3       1 <0>        -0.1626
     15 C14        -1.1389    1.7746    0.7862 C.3       1 <0>        -0.1631
     16 C15        -2.6147    4.4447   -3.0486 C.ar      1 <0>         0.0305
     17 C16        -1.8545    4.9460   -4.1086 C.ar      1 <0>        -0.1304
     18 C17        -2.2502    6.1006   -4.7510 C.ar      1 <0>        -0.0213
     19 C18        -3.3911    6.7680   -4.3413 C.ar      1 <0>        -0.6618
     20 C19        -4.1460    6.2805   -3.2890 C.ar      1 <0>        -0.0209
     21 C20        -3.7656    5.1242   -2.6405 C.ar      1 <0>        -0.1215
     22 S1         -3.8853    8.2457   -5.1640 S.o2      1 <0>         2.4985
     23 O2         -3.3408    8.1321   -6.4716 O.2       1 <0>        -0.9374
     24 O3         -5.2909    8.3170   -4.9683 O.2       1 <0>        -0.9374
     25 C21        -3.0596    9.5825   -4.2574 C.3       1 <0>        -0.6509
     26 H1         -8.7752    0.1533   -3.5804 H         1 <0>         0.0562
     27 H2         -9.0944    1.9016   -3.4822 H         1 <0>         0.0567
     28 H3         -9.8190    0.9367   -4.7907 H         1 <0>         0.1019
     29 H4         -5.5130    1.7999   -6.1612 H         1 <0>         0.1329
     30 H5         -3.3615    2.1295   -5.0194 H         1 <0>         0.1277
     31 H6         -5.2989    1.5539   -1.2329 H         1 <0>         0.1257
     32 H7         -7.4449    1.2361   -2.3884 H         1 <0>         0.1303
     33 H8         -0.7901    3.9116   -0.8957 H         1 <0>         0.0749
     34 H9         -0.0694    2.9425   -2.2166 H         1 <0>         0.0842
     35 H10        -1.6902    0.2907   -2.2184 H         1 <0>         0.0864
     36 H11        -2.8816    0.4878   -0.8961 H         1 <0>         0.0767
     37 H12         0.0021   -0.0041    0.0020 H         1 <0>         0.0979
     38 H13         0.9640    1.5696    0.0013 H         1 <0>         0.0976
     39 H14        -1.8647    1.1377    1.2918 H         1 <0>         0.0966
     40 H15        -0.9030    2.7119    1.2902 H         1 <0>         0.0964
     41 H16        -0.9614    4.4285   -4.4265 H         1 <0>         0.1336
     42 H17        -1.6659    6.4869   -5.5730 H         1 <0>         0.1432
     43 H18        -5.0354    6.8065   -2.9749 H         1 <0>         0.1420
     44 H19        -4.3559    4.7447   -1.8197 H         1 <0>         0.1308
     45 H20        -1.9801    9.4384   -4.3011 H         1 <0>         0.1314
     46 H21        -3.3169   10.5407   -4.7089 H         1 <0>         0.1331
     47 H22        -3.3858    9.5717   -3.2174 H         1 <0>         0.1312
@<TRIPOS>BOND
     1    1    2 1
     2    1   26 1
     3    1   27 1
     4    1   28 1
     5    2    3 1
     6    3    8 ar
     7    3    4 ar
     8    4    5 ar
     9    4   29 1
    10    5    6 ar
    11    5   30 1
    12    6    7 ar
    13    6    9 1
    14    7    8 ar
    15    7   31 1
    16    8   32 1
    17    9   13 1
    18    9   10 2
    19   10   11 1
    20   10   16 1
    21   11   12 1
    22   11   33 1
    23   11   34 1
    24   12   15 1
    25   12   13 1
    26   12   14 1
    27   13   35 1
    28   13   36 1
    29   14   15 1
    30   14   37 1
    31   14   38 1
    32   15   39 1
    33   15   40 1
    34   16   21 ar
    35   16   17 ar
    36   17   18 ar
    37   17   41 1
    38   18   19 ar
    39   18   42 1
    40   19   20 ar
    41   19   22 1
    42   20   21 ar
    43   20   43 1
    44   21   44 1
    45   22   23 2
    46   22   24 2
    47   22   25 1
    48   25   45 1
    49   25   46 1
    50   25   47 1
@<TRIPOS>MOLECULE
ZINC03814735
   46    49     0     0     0
SMALL
USER_CHARGES

@<TRIPOS>ATOM
      1 C1         -8.9391    1.0619   -4.1596 C.3       1 <0>         0.0261
      2 O1         -7.7970    1.3166   -4.9798 O.3       1 <0>        -0.3161
      3 C2         -6.6097    1.4977   -4.3448 C.ar      1 <0>         0.1335
      4 C3         -5.4607    1.7490   -5.0837 C.ar      1 <0>        -0.1495
      5 C4         -4.2543    1.9338   -4.4441 C.ar      1 <0>        -0.0605
      6 C5         -4.1879    1.8681   -3.0494 C.ar      1 <0>        -0.0833
      7 C6         -5.3460    1.6097   -2.3104 C.ar      1 <0>        -0.0627
      8 C7         -6.5488    1.4314   -2.9587 C.ar      1 <0>        -0.2072
      9 C8         -2.9003    2.0645   -2.3607 C.2       1 <0>        -0.0544
     10 C9         -2.2013    3.2088   -2.3605 C.2       1 <0>        -0.1081
     11 C10        -0.9286    3.0549   -1.5552 C.3       1 <0>        -0.0437
     12 C11        -1.1428    1.7763   -0.7340 C.3       1 <0>        -0.1343
     13 C12        -2.1825    1.0022   -1.5555 C.3       1 <0>        -0.0502
     14 C13        -0.0127    1.0858    0.0080 C.3       1 <0>        -0.1625
     15 C14        -1.1389    1.7746    0.7862 C.3       1 <0>        -0.1630
     16 C15        -2.6147    4.4447   -3.0486 C.ar      1 <0>         0.0354
     17 C16        -1.8545    4.9460   -4.1086 C.ar      1 <0>        -0.1315
     18 C17        -2.2502    6.1006   -4.7510 C.ar      1 <0>        -0.0138
     19 C18        -3.3911    6.7680   -4.3413 C.ar      1 <0>        -0.6793
     20 C19        -4.1460    6.2805   -3.2890 C.ar      1 <0>        -0.0185
     21 C20        -3.7656    5.1242   -2.6405 C.ar      1 <0>        -0.1223
     22 S1         -3.8853    8.2457   -5.1640 S.o2      1 <0>         2.7002
     23 O2         -3.3162    8.1959   -6.4651 O.2       1 <0>        -0.9624
     24 O3         -5.2832    8.3823   -4.9487 O.2       1 <0>        -0.9606
     25 N1         -3.1596    9.5098   -4.3781 N.pl3     1 <0>        -1.2483
     26 H1         -8.7752    0.1533   -3.5804 H         1 <0>         0.0564
     27 H2         -9.0944    1.9016   -3.4822 H         1 <0>         0.0568
     28 H3         -9.8190    0.9367   -4.7907 H         1 <0>         0.1021
     29 H4         -5.5130    1.7999   -6.1612 H         1 <0>         0.1331
     30 H5         -3.3615    2.1295   -5.0194 H         1 <0>         0.1278
     31 H6         -5.2989    1.5539   -1.2329 H         1 <0>         0.1259
     32 H7         -7.4449    1.2361   -2.3884 H         1 <0>         0.1305
     33 H8         -0.7901    3.9116   -0.8957 H         1 <0>         0.0751
     34 H9         -0.0694    2.9425   -2.2166 H         1 <0>         0.0844
     35 H10        -1.6902    0.2907   -2.2184 H         1 <0>         0.0867
     36 H11        -2.8816    0.4878   -0.8961 H         1 <0>         0.0770
     37 H12         0.0021   -0.0041    0.0020 H         1 <0>         0.0980
     38 H13         0.9640    1.5696    0.0013 H         1 <0>         0.0977
     39 H14        -1.8647    1.1377    1.2918 H         1 <0>         0.0967
     40 H15        -0.9030    2.7119    1.2902 H         1 <0>         0.0966
     41 H16        -0.9614    4.4285   -4.4265 H         1 <0>         0.1348
     42 H17        -1.6659    6.4869   -5.5730 H         1 <0>         0.1437
     43 H18        -5.0354    6.8065   -2.9749 H         1 <0>         0.1427
     44 H19        -4.3559    4.7447   -1.8197 H         1 <0>         0.1321
     45 H20        -2.9276   10.3154   -4.8661 H         1 <0>         0.4219
     46 H21        -2.9665    9.4447   -3.4297 H         1 <0>         0.4171
@<TRIPOS>BOND
     1    1    2 1
     2    1   26 1
     3    1   27 1
     4    1   28 1
     5    2    3 1
     6    3    8 ar
     7    3    4 ar
     8    4    5 ar
     9    4   29 1
    10    5    6 ar
    11    5   30 1
    12    6    7 ar
    13    6    9 1
    14    7    8 ar
    15    7   31 1
    16    8   32 1
    17    9   13 1
    18    9   10 2
    19   10   11 1
    20   10   16 1
    21   11   12 1
    22   11   33 1
    23   11   34 1
    24   12   15 1
    25   12   13 1
    26   12   14 1
    27   13   35 1
    28   13   36 1
    29   14   15 1
    30   14   37 1
    31   14   38 1
    32   15   39 1
    33   15   40 1
    34   16   21 ar
    35   16   17 ar
    36   17   18 ar
    37   17   41 1
    38   18   19 ar
    39   18   42 1
    40   19   20 ar
    41   19   22 1
    42   20   21 ar
    43   20   43 1
    44   21   44 1
    45   22   23 2
    46   22   24 2
    47   22   25 1
    48   25   45 1
    49   25   46 1
@<TRIPOS>MOLECULE
ZINC03814736
   47    50     0     0     0
SMALL
USER_CHARGES

@<TRIPOS>ATOM
      1 C1         -3.0585    9.5821   -4.2593 C.3       1 <0>        -0.6507
      2 S1         -3.8844    8.2452   -5.1655 S.o2      1 <0>         2.4980
      3 O1         -3.3400    8.1311   -6.4731 O.2       1 <0>        -0.9370
      4 O2         -5.2900    8.3168   -4.9697 O.2       1 <0>        -0.9366
      5 C2         -3.3904    6.7677   -4.3423 C.ar      1 <0>        -0.6607
      6 C3         -4.1454    6.2806   -3.2899 C.ar      1 <0>        -0.0204
      7 C4         -3.7652    5.1244   -2.6411 C.ar      1 <0>        -0.1221
      8 C5         -2.6145    4.4446   -3.0490 C.ar      1 <0>         0.0252
      9 C6         -1.8542    4.9454   -4.1092 C.ar      1 <0>        -0.1291
     10 C7         -2.2497    6.0998   -4.7519 C.ar      1 <0>        -0.0210
     11 C8         -2.2013    3.2088   -2.3605 C.2       1 <0>        -0.0960
     12 C9         -2.9003    2.0645   -2.3607 C.2       1 <0>        -0.0662
     13 C10        -2.1825    1.0022   -1.5555 C.3       1 <0>        -0.0490
     14 C11        -1.1428    1.7763   -0.7340 C.3       1 <0>        -0.1348
     15 C12        -0.9286    3.0549   -1.5552 C.3       1 <0>        -0.0451
     16 C13        -0.0127    1.0858    0.0080 C.3       1 <0>        -0.1620
     17 C14        -1.1389    1.7746    0.7862 C.3       1 <0>        -0.1628
     18 C15        -4.1878    1.8680   -3.0496 C.ar      1 <0>        -0.0574
     19 C16        -5.3460    1.6097   -2.3109 C.ar      1 <0>        -0.0629
     20 C17        -6.5488    1.4318   -2.9594 C.ar      1 <0>        -0.1878
     21 C18        -6.6094    1.4979   -4.3455 C.ar      1 <0>         0.1087
     22 C19        -5.4601    1.7486   -5.0842 C.ar      1 <0>        -0.1194
     23 C20        -4.2538    1.9335   -4.4444 C.ar      1 <0>        -0.0647
     24 O3         -7.7964    1.3162   -4.9808 O.3       1 <0>        -0.3095
     25 C21        -8.9388    1.0622   -4.1608 C.3       1 <0>         0.6040
     26 F1         -9.1385    2.1406   -3.2922 F         1 <0>        -0.1638
     27 F2        -10.0678    0.9008   -4.9711 F         1 <0>        -0.1292
     28 F3         -8.7287   -0.1035   -3.4163 F         1 <0>        -0.1646
     29 H1         -1.9789    9.4378   -4.3030 H         1 <0>         0.1316
     30 H2         -3.3156   10.5401   -4.7111 H         1 <0>         0.1334
     31 H3         -3.3846    9.5716   -3.2193 H         1 <0>         0.1314
     32 H4         -5.0347    6.8069   -2.9760 H         1 <0>         0.1429
     33 H5         -4.3556    4.7453   -1.8200 H         1 <0>         0.1316
     34 H6         -0.9613    4.4276   -4.4269 H         1 <0>         0.1343
     35 H7         -1.6654    6.4858   -5.5740 H         1 <0>         0.1438
     36 H8         -1.6902    0.2907   -2.2184 H         1 <0>         0.0876
     37 H9         -2.8816    0.4878   -0.8961 H         1 <0>         0.0779
     38 H10        -0.7901    3.9116   -0.8957 H         1 <0>         0.0764
     39 H11        -0.0694    2.9425   -2.2166 H         1 <0>         0.0860
     40 H12         0.0021   -0.0041    0.0020 H         1 <0>         0.0983
     41 H13         0.9640    1.5696    0.0013 H         1 <0>         0.0979
     42 H14        -1.8647    1.1377    1.2918 H         1 <0>         0.0972
     43 H15        -0.9030    2.7119    1.2902 H         1 <0>         0.0968
     44 H16        -5.2991    1.5540   -1.2333 H         1 <0>         0.1348
     45 H17        -7.4450    1.2369   -2.3892 H         1 <0>         0.1364
     46 H18        -5.5121    1.7991   -6.1618 H         1 <0>         0.1419
     47 H19        -3.3609    2.1291   -5.0195 H         1 <0>         0.1366
@<TRIPOS>BOND
     1    1    2 1
     2    1   29 1
     3    1   30 1
     4    1   31 1
     5    2    3 2
     6    2    4 2
     7    2    5 1
     8    5   10 ar
     9    5    6 ar
    10    6    7 ar
    11    6   32 1
    12    7    8 ar
    13    7   33 1
    14    8    9 ar
    15    8   11 1
    16    9   10 ar
    17    9   34 1
    18   10   35 1
    19   11   15 1
    20   11   12 2
    21   12   13 1
    22   12   18 1
    23   13   14 1
    24   13   36 1
    25   13   37 1
    26   14   17 1
    27   14   15 1
    28   14   16 1
    29   15   38 1
    30   15   39 1
    31   16   17 1
    32   16   40 1
    33   16   41 1
    34   17   42 1
    35   17   43 1
    36   18   23 ar
    37   18   19 ar
    38   19   20 ar
    39   19   44 1
    40   20   21 ar
    41   20   45 1
    42   21   22 ar
    43   21   24 1
    44   22   23 ar
    45   22   46 1
    46   23   47 1
    47   24   25 1
    48   25   26 1
    49   25   27 1
    50   25   28 1
@<TRIPOS>MOLECULE
ZINC03814737
   46    49     0     0     0
SMALL
USER_CHARGES

@<TRIPOS>ATOM
      1 C1         -5.3460    1.6097   -2.3109 C.ar      1 <0>        -0.0625
      2 C2         -6.5488    1.4318   -2.9594 C.ar      1 <0>        -0.1877
      3 C3         -6.6094    1.4979   -4.3455 C.ar      1 <0>         0.1090
      4 C4         -5.4601    1.7486   -5.0842 C.ar      1 <0>        -0.1196
      5 C5         -4.2538    1.9335   -4.4444 C.ar      1 <0>        -0.0651
      6 C6         -4.1878    1.8680   -3.0496 C.ar      1 <0>        -0.0585
      7 C7         -2.9003    2.0645   -2.3607 C.2       1 <0>        -0.0641
      8 C8         -2.2013    3.2088   -2.3605 C.2       1 <0>        -0.0983
      9 C9         -0.9286    3.0549   -1.5552 C.3       1 <0>        -0.0448
     10 C10        -1.1428    1.7763   -0.7340 C.3       1 <0>        -0.1349
     11 C11        -2.1825    1.0022   -1.5555 C.3       1 <0>        -0.0493
     12 C12        -0.0127    1.0858    0.0080 C.3       1 <0>        -0.1618
     13 C13        -1.1389    1.7746    0.7862 C.3       1 <0>        -0.1627
     14 C14        -2.6145    4.4446   -3.0490 C.ar      1 <0>         0.0313
     15 C15        -1.8542    4.9454   -4.1092 C.ar      1 <0>        -0.1302
     16 C16        -2.2500    6.0996   -4.7521 C.ar      1 <0>        -0.0152
     17 C17        -3.3904    6.7677   -4.3423 C.ar      1 <0>        -0.6769
     18 C18        -4.1454    6.2806   -3.2899 C.ar      1 <0>        -0.0145
     19 C19        -3.7652    5.1244   -2.6411 C.ar      1 <0>        -0.1233
     20 S1         -3.8841    8.2455   -5.1651 S.o2      1 <0>         2.6993
     21 O1         -3.3152    8.1953   -6.4663 O.2       1 <0>        -0.9626
     22 O2         -5.2819    8.3828   -4.9496 O.2       1 <0>        -0.9622
     23 N1         -3.1576    9.5093   -4.3794 N.pl3     1 <0>        -1.2500
     24 O3         -7.7964    1.3162   -4.9808 O.3       1 <0>        -0.3095
     25 C20        -8.9388    1.0622   -4.1608 C.3       1 <0>         0.6041
     26 F1         -9.1385    2.1406   -3.2922 F         1 <0>        -0.1637
     27 F2        -10.0678    0.9008   -4.9711 F         1 <0>        -0.1291
     28 F3         -8.7287   -0.1035   -3.4163 F         1 <0>        -0.1645
     29 H1         -5.2990    1.5537   -1.2334 H         1 <0>         0.1350
     30 H2         -7.4450    1.2366   -2.3892 H         1 <0>         0.1366
     31 H3         -5.5121    1.7991   -6.1618 H         1 <0>         0.1422
     32 H4         -3.3609    2.1291   -5.0195 H         1 <0>         0.1368
     33 H5         -0.7901    3.9116   -0.8957 H         1 <0>         0.0767
     34 H6         -0.0694    2.9425   -2.2166 H         1 <0>         0.0863
     35 H7         -1.6902    0.2907   -2.2184 H         1 <0>         0.0880
     36 H8         -2.8816    0.4878   -0.8961 H         1 <0>         0.0783
     37 H9          0.0021   -0.0041    0.0020 H         1 <0>         0.0984
     38 H10         0.9640    1.5696    0.0013 H         1 <0>         0.0981
     39 H11        -1.8647    1.1377    1.2918 H         1 <0>         0.0973
     40 H12        -0.9030    2.7119    1.2902 H         1 <0>         0.0970
     41 H13        -0.9613    4.4276   -4.4269 H         1 <0>         0.1359
     42 H14        -1.6659    6.4854   -5.5746 H         1 <0>         0.1451
     43 H15        -5.0347    6.8069   -2.9760 H         1 <0>         0.1442
     44 H16        -4.3556    4.7453   -1.8200 H         1 <0>         0.1332
     45 H17        -2.5844    9.3404   -3.6154 H         1 <0>         0.4167
     46 H18        -3.3053   10.4186   -4.6833 H         1 <0>         0.4216
@<TRIPOS>BOND
     1    1    6 ar
     2    1    2 ar
     3    1   29 1
     4    2    3 ar
     5    2   30 1
     6    3    4 ar
     7    3   24 1
     8    4    5 ar
     9    4   31 1
    10    5    6 ar
    11    5   32 1
    12    6    7 1
    13    7   11 1
    14    7    8 2
    15    8    9 1
    16    8   14 1
    17    9   10 1
    18    9   33 1
    19    9   34 1
    20   10   13 1
    21   10   11 1
    22   10   12 1
    23   11   35 1
    24   11   36 1
    25   12   13 1
    26   12   37 1
    27   12   38 1
    28   13   39 1
    29   13   40 1
    30   14   19 ar
    31   14   15 ar
    32   15   16 ar
    33   15   41 1
    34   16   17 ar
    35   16   42 1
    36   17   18 ar
    37   17   20 1
    38   18   19 ar
    39   18   43 1
    40   19   44 1
    41   20   21 2
    42   20   22 2
    43   20   23 1
    44   23   45 1
    45   23   46 1
    46   24   25 1
    47   25   26 1
    48   25   27 1
    49   25   28 1
@<TRIPOS>MOLECULE
ZINC03814738
   46    49     0     0     0
SMALL
USER_CHARGES

@<TRIPOS>ATOM
      1 C1         -3.0575    9.5811   -4.2622 C.3       1 <0>        -0.6506
      2 S1         -3.8840    8.2441   -5.1676 S.o2      1 <0>         2.4977
      3 O1         -3.3400    8.1293   -6.4753 O.2       1 <0>        -0.9365
      4 O2         -5.2896    8.3161   -4.9715 O.2       1 <0>        -0.9359
      5 C2         -3.3903    6.7668   -4.3440 C.ar      1 <0>        -0.6599
      6 C3         -4.1451    6.2803   -3.2911 C.ar      1 <0>        -0.0200
      7 C4         -3.7650    5.1243   -2.6420 C.ar      1 <0>        -0.1224
      8 C5         -2.6144    4.4443   -3.0496 C.ar      1 <0>         0.0213
      9 C6         -1.8540    4.9447   -4.1098 C.ar      1 <0>        -0.1281
     10 C7         -2.2498    6.0985   -4.7535 C.ar      1 <0>        -0.0208
     11 C8         -2.2013    3.2085   -2.3606 C.2       1 <0>        -0.0878
     12 C9         -2.9001    2.0646   -2.3608 C.2       1 <0>        -0.0779
     13 C10        -2.1825    1.0022   -1.5555 C.3       1 <0>        -0.0475
     14 C11        -1.1428    1.7763   -0.7340 C.3       1 <0>        -0.1353
     15 C12        -0.9286    3.0549   -1.5553 C.3       1 <0>        -0.0461
     16 C13        -0.0127    1.0858    0.0080 C.3       1 <0>        -0.1615
     17 C14        -1.1389    1.7746    0.7862 C.3       1 <0>        -0.1624
     18 C15        -4.1885    1.8684   -3.0492 C.ar      1 <0>        -0.0055
     19 C16        -5.3466    1.6099   -2.3111 C.ar      1 <0>        -0.1072
     20 C17        -6.5497    1.4326   -2.9618 C.ar      1 <0>        -0.0670
     21 C18        -6.6098    1.4998   -4.3427 C.ar      1 <0>        -0.1806
     22 C19        -5.4661    1.7498   -5.0805 C.ar      1 <0>        -0.0659
     23 C20        -4.2569    1.9343   -4.4433 C.ar      1 <0>        -0.1038
     24 C21        -7.9272    1.2993   -5.0465 C.3       1 <0>         0.5072
     25 F1         -8.0986   -0.0584   -5.3371 F         1 <0>        -0.1759
     26 F2         -8.9685    1.7343   -4.2197 F         1 <0>        -0.1761
     27 F3         -7.9373    2.0357   -6.2359 F         1 <0>        -0.1754
     28 H1         -1.9780    9.4365   -4.3061 H         1 <0>         0.1316
     29 H2         -3.3145   10.5391   -4.7143 H         1 <0>         0.1337
     30 H3         -3.3834    9.5712   -3.2221 H         1 <0>         0.1315
     31 H4         -5.0341    6.8070   -2.9772 H         1 <0>         0.1437
     32 H5         -4.3554    4.7454   -1.8209 H         1 <0>         0.1319
     33 H6         -0.9613    4.4265   -4.4276 H         1 <0>         0.1346
     34 H7         -1.6660    6.4836   -5.5765 H         1 <0>         0.1444
     35 H8         -1.6902    0.2906   -2.2183 H         1 <0>         0.0881
     36 H9         -2.8818    0.4880   -0.8962 H         1 <0>         0.0790
     37 H10        -0.7903    3.9116   -0.8957 H         1 <0>         0.0777
     38 H11        -0.0694    2.9425   -2.2165 H         1 <0>         0.0873
     39 H12         0.0021   -0.0041    0.0020 H         1 <0>         0.0987
     40 H13         0.9640    1.5696    0.0013 H         1 <0>         0.0983
     41 H14        -1.8647    1.1377    1.2918 H         1 <0>         0.0976
     42 H15        -0.9030    2.7119    1.2902 H         1 <0>         0.0972
     43 H16        -5.3003    1.5527   -1.2336 H         1 <0>         0.1367
     44 H17        -7.4463    1.2368   -2.3925 H         1 <0>         0.1390
     45 H18        -5.5205    1.8008   -6.1579 H         1 <0>         0.1387
     46 H19        -3.3651    2.1297   -5.0204 H         1 <0>         0.1339
@<TRIPOS>BOND
     1    1    2 1
     2    1   28 1
     3    1   29 1
     4    1   30 1
     5    2    3 2
     6    2    4 2
     7    2    5 1
     8    5   10 ar
     9    5    6 ar
    10    6    7 ar
    11    6   31 1
    12    7    8 ar
    13    7   32 1
    14    8    9 ar
    15    8   11 1
    16    9   10 ar
    17    9   33 1
    18   10   34 1
    19   11   15 1
    20   11   12 2
    21   12   13 1
    22   12   18 1
    23   13   14 1
    24   13   35 1
    25   13   36 1
    26   14   17 1
    27   14   15 1
    28   14   16 1
    29   15   37 1
    30   15   38 1
    31   16   17 1
    32   16   39 1
    33   16   40 1
    34   17   41 1
    35   17   42 1
    36   18   23 ar
    37   18   19 ar
    38   19   20 ar
    39   19   43 1
    40   20   21 ar
    41   20   44 1
    42   21   22 ar
    43   21   24 1
    44   22   23 ar
    45   22   45 1
    46   23   46 1
    47   24   25 1
    48   24   26 1
    49   24   27 1
@<TRIPOS>MOLECULE
ZINC03814739
   45    48     0     0     0
SMALL
USER_CHARGES

@<TRIPOS>ATOM
      1 C1         -5.3466    1.6098   -2.3111 C.ar      1 <0>        -0.1069
      2 C2         -6.5495    1.4316   -2.9619 C.ar      1 <0>        -0.0669
      3 C3         -6.6096    1.4988   -4.3427 C.ar      1 <0>        -0.1804
      4 C4         -5.4660    1.7493   -5.0805 C.ar      1 <0>        -0.0661
      5 C5         -4.2569    1.9343   -4.4433 C.ar      1 <0>        -0.1041
      6 C6         -4.1885    1.8684   -3.0492 C.ar      1 <0>        -0.0063
      7 C7         -2.9001    2.0646   -2.3608 C.2       1 <0>        -0.0763
      8 C8         -2.2013    3.2085   -2.3606 C.2       1 <0>        -0.0895
      9 C9         -0.9286    3.0549   -1.5553 C.3       1 <0>        -0.0460
     10 C10        -1.1428    1.7763   -0.7340 C.3       1 <0>        -0.1355
     11 C11        -2.1825    1.0022   -1.5555 C.3       1 <0>        -0.0477
     12 C12        -0.0127    1.0858    0.0080 C.3       1 <0>        -0.1613
     13 C13        -1.1389    1.7746    0.7862 C.3       1 <0>        -0.1623
     14 C14        -2.6144    4.4443   -3.0496 C.ar      1 <0>         0.0263
     15 C15        -1.8541    4.9446   -4.1099 C.ar      1 <0>        -0.1291
     16 C16        -2.2499    6.0984   -4.7536 C.ar      1 <0>        -0.0132
     17 C17        -3.3906    6.7665   -4.3444 C.ar      1 <0>        -0.6774
     18 C18        -4.1454    6.2801   -3.2915 C.ar      1 <0>        -0.0175
     19 C19        -3.7650    5.1243   -2.6420 C.ar      1 <0>        -0.1233
     20 S1         -3.8847    8.2434   -5.1684 S.o2      1 <0>         2.6996
     21 O1         -3.3159    8.1922   -6.4696 O.2       1 <0>        -0.9615
     22 O2         -5.2826    8.3805   -4.9530 O.2       1 <0>        -0.9589
     23 N1         -3.1587    9.5082   -4.3839 N.pl3     1 <0>        -1.2479
     24 C20        -7.9269    1.2977   -5.0466 C.3       1 <0>         0.5071
     25 F1         -8.0978   -0.0601   -5.3373 F         1 <0>        -0.1758
     26 F2         -8.9684    1.7323   -4.2198 F         1 <0>        -0.1760
     27 F3         -7.9373    2.0341   -6.2360 F         1 <0>        -0.1754
     28 H1         -5.3003    1.5529   -1.2336 H         1 <0>         0.1369
     29 H2         -7.4460    1.2354   -2.3926 H         1 <0>         0.1392
     30 H3         -5.5204    1.8003   -6.1579 H         1 <0>         0.1389
     31 H4         -3.3652    2.1301   -5.0203 H         1 <0>         0.1341
     32 H5         -0.7903    3.9116   -0.8957 H         1 <0>         0.0779
     33 H6         -0.0694    2.9425   -2.2165 H         1 <0>         0.0875
     34 H7         -1.6902    0.2906   -2.2183 H         1 <0>         0.0884
     35 H8         -2.8818    0.4880   -0.8962 H         1 <0>         0.0793
     36 H9          0.0021   -0.0041    0.0020 H         1 <0>         0.0988
     37 H10         0.9640    1.5696    0.0013 H         1 <0>         0.0985
     38 H11        -1.8647    1.1377    1.2918 H         1 <0>         0.0977
     39 H12        -0.9030    2.7119    1.2902 H         1 <0>         0.0973
     40 H13        -0.9609    4.4269   -4.4271 H         1 <0>         0.1358
     41 H14        -1.6657    6.4839   -5.5761 H         1 <0>         0.1449
     42 H15        -5.0346    6.8065   -2.9778 H         1 <0>         0.1444
     43 H16        -4.3552    4.7457   -1.8206 H         1 <0>         0.1332
     44 H17        -2.9267   10.3132   -4.8727 H         1 <0>         0.4223
     45 H18        -2.9654    9.4440   -3.4355 H         1 <0>         0.4172
@<TRIPOS>BOND
     1    1    6 ar
     2    1    2 ar
     3    1   28 1
     4    2    3 ar
     5    2   29 1
     6    3    4 ar
     7    3   24 1
     8    4    5 ar
     9    4   30 1
    10    5    6 ar
    11    5   31 1
    12    6    7 1
    13    7   11 1
    14    7    8 2
    15    8    9 1
    16    8   14 1
    17    9   10 1
    18    9   32 1
    19    9   33 1
    20   10   13 1
    21   10   11 1
    22   10   12 1
    23   11   34 1
    24   11   35 1
    25   12   13 1
    26   12   36 1
    27   12   37 1
    28   13   38 1
    29   13   39 1
    30   14   19 ar
    31   14   15 ar
    32   15   16 ar
    33   15   40 1
    34   16   17 ar
    35   16   41 1
    36   17   18 ar
    37   17   20 1
    38   18   19 ar
    39   18   42 1
    40   19   43 1
    41   20   21 2
    42   20   22 2
    43   20   23 1
    44   23   44 1
    45   23   45 1
    46   24   25 1
    47   24   26 1
    48   24   27 1
@<TRIPOS>MOLECULE
ZINC03814740
   43    46     0     0     0
SMALL
USER_CHARGES

@<TRIPOS>ATOM
      1 C1         -0.1017    6.4764   -1.7164 C.3       1 <0>        -0.6504
      2 S1         -0.0794    6.0009    0.0341 S.o2      1 <0>         2.4978
      3 O1         -1.3132    6.3434    0.6501 O.2       1 <0>        -0.9366
      4 O2          1.1557    6.3770    0.6277 O.2       1 <0>        -0.9362
      5 C2         -0.0555    4.2391    0.0244 C.ar      1 <0>        -0.6597
      6 C3          1.1541    3.5670    0.0097 C.ar      1 <0>        -0.0203
      7 C4          1.1806    2.1881    0.0025 C.ar      1 <0>        -0.1235
      8 C5         -0.0179    1.4697    0.0101 C.ar      1 <0>         0.0210
      9 C6         -1.2355    2.1552    0.0196 C.ar      1 <0>        -0.1269
     10 C7         -1.2464    3.5343    0.0320 C.ar      1 <0>        -0.0209
     11 C8          0.0021   -0.0041    0.0020 C.2       1 <0>        -0.0867
     12 C9          0.4929   -0.7662    0.9897 C.2       1 <0>        -0.0734
     13 C10         0.3490   -2.2347    0.6506 C.3       1 <0>        -0.0487
     14 C11        -0.6513   -2.2681   -0.5127 C.3       1 <0>        -0.1350
     15 C12        -0.5229   -0.8670   -1.1256 C.3       1 <0>        -0.0462
     16 C13        -0.8770   -3.5091   -1.3574 C.3       1 <0>        -0.1618
     17 C14        -1.9793   -2.9985   -0.4231 C.3       1 <0>        -0.1621
     18 C15         1.0877   -0.2467    2.2340 C.ar      1 <0>        -0.0203
     19 C16         0.3001    0.4624    3.1451 C.ar      1 <0>        -0.0825
     20 C17         0.8611    0.9461    4.3081 C.ar      1 <0>        -0.1210
     21 C18         2.2036    0.7308    4.5756 C.ar      1 <0>         0.0711
     22 C19         2.9918    0.0270    3.6756 C.ar      1 <0>         0.0719
     23 C20         2.4397   -0.4662    2.5099 C.ar      1 <0>        -0.1144
     24 F1          4.2999   -0.1798    3.9426 F         1 <0>        -0.1257
     25 F2          2.7472    1.2073    5.7169 F         1 <0>        -0.1256
     26 H1         -0.9906    6.0637   -2.1936 H         1 <0>         0.1317
     27 H2         -0.1173    7.5633   -1.7974 H         1 <0>         0.1337
     28 H3          0.7892    6.0880   -2.2098 H         1 <0>         0.1316
     29 H4          2.0796    4.1236    0.0042 H         1 <0>         0.1437
     30 H5          2.1253    1.6649   -0.0086 H         1 <0>         0.1322
     31 H6         -2.1657    1.6065    0.0213 H         1 <0>         0.1351
     32 H7         -2.1866    4.0656    0.0434 H         1 <0>         0.1445
     33 H8         -0.0422   -2.7880    1.5044 H         1 <0>         0.0797
     34 H9          1.3087   -2.6469    0.3388 H         1 <0>         0.0876
     35 H10        -1.4964   -0.5070   -1.4583 H         1 <0>         0.0784
     36 H11         0.1822   -0.8769   -1.9568 H         1 <0>         0.0877
     37 H12        -1.0203   -3.3699   -2.4289 H         1 <0>         0.0984
     38 H13        -0.3516   -4.4188   -1.0667 H         1 <0>         0.0987
     39 H14        -2.1786   -3.5724    0.4818 H         1 <0>         0.0977
     40 H15        -2.8475   -2.5230   -0.8795 H         1 <0>         0.0975
     41 H16        -0.7463    0.6316    2.9384 H         1 <0>         0.1400
     42 H17         0.2528    1.4944    5.0122 H         1 <0>         0.1498
     43 H18         3.0523   -1.0170    1.8115 H         1 <0>         0.1479
@<TRIPOS>BOND
     1    1    2 1
     2    1   26 1
     3    1   27 1
     4    1   28 1
     5    2    3 2
     6    2    4 2
     7    2    5 1
     8    5   10 ar
     9    5    6 ar
    10    6    7 ar
    11    6   29 1
    12    7    8 ar
    13    7   30 1
    14    8    9 ar
    15    8   11 1
    16    9   10 ar
    17    9   31 1
    18   10   32 1
    19   11   15 1
    20   11   12 2
    21   12   13 1
    22   12   18 1
    23   13   14 1
    24   13   33 1
    25   13   34 1
    26   14   17 1
    27   14   15 1
    28   14   16 1
    29   15   35 1
    30   15   36 1
    31   16   17 1
    32   16   37 1
    33   16   38 1
    34   17   39 1
    35   17   40 1
    36   18   23 ar
    37   18   19 ar
    38   19   20 ar
    39   19   41 1
    40   20   21 ar
    41   20   42 1
    42   21   22 ar
    43   21   25 1
    44   22   23 ar
    45   22   24 1
    46   23   43 1
@<TRIPOS>MOLECULE
ZINC03814741
   42    45     0     0     0
SMALL
USER_CHARGES

@<TRIPOS>ATOM
      1 C1         -1.2355    2.1552    0.0196 C.ar      1 <0>        -0.1280
      2 C2         -1.2464    3.5343    0.0320 C.ar      1 <0>        -0.0150
      3 C3         -0.0555    4.2391    0.0244 C.ar      1 <0>        -0.6760
      4 C4          1.1541    3.5670    0.0097 C.ar      1 <0>        -0.0144
      5 C5          1.1806    2.1881    0.0025 C.ar      1 <0>        -0.1247
      6 C6         -0.0179    1.4697    0.0101 C.ar      1 <0>         0.0271
      7 C7          0.0021   -0.0041    0.0020 C.2       1 <0>        -0.0890
      8 C8          0.4929   -0.7662    0.9897 C.2       1 <0>        -0.0712
      9 C9          0.3490   -2.2347    0.6506 C.3       1 <0>        -0.0490
     10 C10        -0.6513   -2.2681   -0.5127 C.3       1 <0>        -0.1352
     11 C11        -0.5229   -0.8670   -1.1256 C.3       1 <0>        -0.0460
     12 C12        -0.8770   -3.5091   -1.3574 C.3       1 <0>        -0.1616
     13 C13        -1.9793   -2.9985   -0.4231 C.3       1 <0>        -0.1620
     14 C14         1.0877   -0.2467    2.2340 C.ar      1 <0>        -0.0213
     15 C15         0.3001    0.4624    3.1451 C.ar      1 <0>        -0.0829
     16 C16         0.8611    0.9461    4.3081 C.ar      1 <0>        -0.1212
     17 C17         2.2036    0.7308    4.5756 C.ar      1 <0>         0.0713
     18 C18         2.9918    0.0270    3.6756 C.ar      1 <0>         0.0721
     19 C19         2.4397   -0.4662    2.5099 C.ar      1 <0>        -0.1141
     20 F1          4.2999   -0.1798    3.9426 F         1 <0>        -0.1254
     21 F2          2.7472    1.2073    5.7169 F         1 <0>        -0.1253
     22 S1         -0.0794    6.0009    0.0341 S.o2      1 <0>         2.6994
     23 O1         -1.3250    6.3871    0.5984 O.2       1 <0>        -0.9621
     24 O2          1.1653    6.4210    0.5758 O.2       1 <0>        -0.9618
     25 N1         -0.1005    6.4990   -1.5451 N.pl3     1 <0>        -1.2498
     26 H1         -2.1657    1.6065    0.0213 H         1 <0>         0.1368
     27 H2         -2.1866    4.0656    0.0434 H         1 <0>         0.1458
     28 H3          2.0796    4.1236    0.0042 H         1 <0>         0.1450
     29 H4          2.1253    1.6649   -0.0086 H         1 <0>         0.1338
     30 H5         -0.0422   -2.7880    1.5044 H         1 <0>         0.0801
     31 H6          1.3087   -2.6469    0.3388 H         1 <0>         0.0881
     32 H7         -1.4964   -0.5070   -1.4583 H         1 <0>         0.0787
     33 H8          0.1822   -0.8769   -1.9568 H         1 <0>         0.0880
     34 H9         -1.0203   -3.3699   -2.4289 H         1 <0>         0.0986
     35 H10        -0.3516   -4.4188   -1.0667 H         1 <0>         0.0988
     36 H11        -2.1786   -3.5724    0.4818 H         1 <0>         0.0978
     37 H12        -2.8475   -2.5230   -0.8795 H         1 <0>         0.0976
     38 H13        -0.7463    0.6316    2.9384 H         1 <0>         0.1402
     39 H14         0.2528    1.4944    5.0122 H         1 <0>         0.1501
     40 H15         3.0523   -1.0170    1.8115 H         1 <0>         0.1481
     41 H16        -0.0981    5.8437   -2.2604 H         1 <0>         0.4168
     42 H17        -0.1153    7.4459   -1.7549 H         1 <0>         0.4218
@<TRIPOS>BOND
     1    1    6 ar
     2    1    2 ar
     3    1   26 1
     4    2    3 ar
     5    2   27 1
     6    3    4 ar
     7    3   22 1
     8    4    5 ar
     9    4   28 1
    10    5    6 ar
    11    5   29 1
    12    6    7 1
    13    7   11 1
    14    7    8 2
    15    8    9 1
    16    8   14 1
    17    9   10 1
    18    9   30 1
    19    9   31 1
    20   10   13 1
    21   10   11 1
    22   10   12 1
    23   11   32 1
    24   11   33 1
    25   12   13 1
    26   12   34 1
    27   12   35 1
    28   13   36 1
    29   13   37 1
    30   14   19 ar
    31   14   15 ar
    32   15   16 ar
    33   15   38 1
    34   16   17 ar
    35   16   39 1
    36   17   18 ar
    37   17   21 1
    38   18   19 ar
    39   18   20 1
    40   19   40 1
    41   22   23 2
    42   22   24 2
    43   22   25 1
    44   25   41 1
    45   25   42 1
@<TRIPOS>MOLECULE
ZINC03814742
   43    46     0     0     0
SMALL
USER_CHARGES

@<TRIPOS>ATOM
      1 C1         -7.7338    1.3351    0.7808 C.3       1 <0>        -0.6503
      2 S1         -6.7233    0.0298    0.0286 S.o2      1 <0>         2.4983
      3 O1         -7.0572   -0.1175   -1.3447 O.2       1 <0>        -0.9370
      4 O2         -6.6683   -1.1019    0.8862 O.2       1 <0>        -0.9367
      5 C2         -5.0826    0.6721    0.0260 C.ar      1 <0>        -0.6604
      6 C3         -4.2524    0.4445    1.1095 C.ar      1 <0>        -0.0207
      7 C4         -2.9666    0.9434    1.1142 C.ar      1 <0>        -0.1377
      8 C5         -2.5030    1.6806    0.0213 C.ar      1 <0>         0.0199
      9 C6         -3.3490    1.9113   -1.0667 C.ar      1 <0>        -0.1261
     10 C7         -4.6304    1.4013   -1.0597 C.ar      1 <0>        -0.0218
     11 C8         -1.1304    2.2175    0.0190 C.2       1 <0>        -0.0828
     12 C9         -0.0179    1.4691    0.0101 C.2       1 <0>        -0.0763
     13 C10         1.2148    2.3479    0.0031 C.3       1 <0>        -0.0458
     14 C11         0.7034    3.7346    0.4166 C.3       1 <0>        -0.1347
     15 C12        -0.7809    3.6905    0.0295 C.3       1 <0>        -0.0456
     16 C13         1.5457    4.9893    0.2732 C.3       1 <0>        -0.1611
     17 C14         1.1984    4.4458    1.6633 C.3       1 <0>        -0.1620
     18 C15         0.0021   -0.0041    0.0020 C.ar      1 <0>        -0.0826
     19 C16         0.3076   -0.6954   -1.1735 C.ar      1 <0>        -0.0467
     20 C17         0.3304   -2.0737   -1.1735 C.ar      1 <0>        -0.1598
     21 C18         0.0399   -2.7759   -0.0137 C.ar      1 <0>         0.1349
     22 C19        -0.2696   -2.0986    1.1545 C.ar      1 <0>        -0.1894
     23 C20        -0.2904   -0.7174    1.1700 C.ar      1 <0>         0.1420
     24 F1         -0.5927   -0.0572    2.3093 F         1 <0>        -0.1221
     25 F2          0.0583   -4.1267   -0.0230 F         1 <0>        -0.1276
     26 H1         -7.6573    2.2435    0.1832 H         1 <0>         0.1316
     27 H2         -8.7741    1.0123    0.8197 H         1 <0>         0.1336
     28 H3         -7.3770    1.5339    1.7914 H         1 <0>         0.1316
     29 H4         -4.6121   -0.1254    1.9534 H         1 <0>         0.1433
     30 H5         -2.3196    0.7644    1.9601 H         1 <0>         0.1434
     31 H6         -2.9987    2.4837   -1.9129 H         1 <0>         0.1346
     32 H7         -5.2840    1.5752   -1.9017 H         1 <0>         0.1444
     33 H8          1.9465    1.9822    0.7234 H         1 <0>         0.0781
     34 H9          1.6493    2.3853   -0.9959 H         1 <0>         0.0880
     35 H10        -1.3822    4.2215    0.7675 H         1 <0>         0.0785
     36 H11        -0.9285    4.1212   -0.9609 H         1 <0>         0.0875
     37 H12         2.5726    4.8701   -0.0723 H         1 <0>         0.0987
     38 H13         1.0421    5.8997   -0.0521 H         1 <0>         0.0984
     39 H14         0.4664    4.9986    2.2521 H         1 <0>         0.0973
     40 H15         1.9969    3.9690    2.2318 H         1 <0>         0.0975
     41 H16         0.5295   -0.1507   -2.0793 H         1 <0>         0.1457
     42 H17         0.5705   -2.6083   -2.0807 H         1 <0>         0.1471
     43 H18        -0.4953   -2.6513    2.0545 H         1 <0>         0.1524
@<TRIPOS>BOND
     1    1    2 1
     2    1   26 1
     3    1   27 1
     4    1   28 1
     5    2    3 2
     6    2    4 2
     7    2    5 1
     8    5   10 ar
     9    5    6 ar
    10    6    7 ar
    11    6   29 1
    12    7    8 ar
    13    7   30 1
    14    8    9 ar
    15    8   11 1
    16    9   10 ar
    17    9   31 1
    18   10   32 1
    19   11   15 1
    20   11   12 2
    21   12   13 1
    22   12   18 1
    23   13   14 1
    24   13   33 1
    25   13   34 1
    26   14   17 1
    27   14   15 1
    28   14   16 1
    29   15   35 1
    30   15   36 1
    31   16   17 1
    32   16   37 1
    33   16   38 1
    34   17   39 1
    35   17   40 1
    36   18   23 ar
    37   18   19 ar
    38   19   20 ar
    39   19   41 1
    40   20   21 ar
    41   20   42 1
    42   21   22 ar
    43   21   25 1
    44   22   23 ar
    45   22   43 1
    46   23   24 1
@<TRIPOS>MOLECULE
ZINC03814744
   48    51     0     0     0
SMALL
USER_CHARGES

@<TRIPOS>ATOM
      1 C1          4.1379    5.0300    5.0935 C.3       1 <0>         0.0231
      2 O1          3.3830    5.2046    6.2942 O.3       1 <0>        -0.3127
      3 C2          2.0853    4.8022    6.2710 C.ar      1 <0>         0.1480
      4 C3          1.2963    4.9439    7.4050 C.ar      1 <0>        -0.1496
      5 C4         -0.0205    4.5371    7.3861 C.ar      1 <0>        -0.0542
      6 C5         -0.5612    3.9815    6.2238 C.ar      1 <0>        -0.0595
      7 C6          0.2379    3.8361    5.0870 C.ar      1 <0>        -0.0398
      8 C7          1.5523    4.2501    5.1136 C.ar      1 <0>        -0.2046
      9 C8         -1.9704    3.5440    6.1988 C.2       1 <0>        -0.0986
     10 C9         -2.5281    2.3622    5.7110 C.2       1 <0>         0.0856
     11 N1         -3.8321    2.1956    5.7951 N.2       1 <0>        -0.4560
     12 C10        -4.6149    3.1144    6.3374 C.2       1 <0>         0.1377
     13 S1         -3.4373    4.3818    6.7856 S.3       1 <0>         0.0540
     14 C11        -6.0813    3.0989    6.5198 C.ar      1 <0>        -0.0096
     15 C12        -6.7251    4.1838    7.1177 C.ar      1 <0>        -0.0829
     16 C13        -8.0941    4.1632    7.2846 C.ar      1 <0>        -0.1127
     17 C14        -8.8302    3.0707    6.8605 C.ar      1 <0>        -0.0871
     18 C15        -8.1999    1.9920    6.2673 C.ar      1 <0>        -0.1124
     19 C16        -6.8303    2.0012    6.0895 C.ar      1 <0>         0.0012
     20 Cl1        -6.0411    0.6495    5.3387 Cl        1 <0>        -0.0304
     21 C17        -1.6711    1.3172    5.1044 C.ar      1 <0>         0.0405
     22 C18        -0.4496    0.9860    5.6907 C.ar      1 <0>        -0.1169
     23 C19         0.3440    0.0115    5.1212 C.ar      1 <0>        -0.0228
     24 C20        -0.0698   -0.6370    3.9713 C.ar      1 <0>        -0.6567
     25 C21        -1.2778   -0.3089    3.3819 C.ar      1 <0>        -0.0242
     26 C22        -2.0826    0.6602    3.9449 C.ar      1 <0>        -0.1083
     27 S2          0.9490   -1.8807    3.2504 S.o2      1 <0>         2.4985
     28 O2          2.2690   -1.5506    3.6601 O.2       1 <0>        -0.9369
     29 O3          0.5974   -1.8844    1.8736 O.2       1 <0>        -0.9367
     30 C23         0.4202   -3.4287    4.0344 C.3       1 <0>        -0.6506
     31 H1          3.6709    5.5934    4.2856 H         1 <0>         0.0584
     32 H2          5.1547    5.3911    5.2478 H         1 <0>         0.1042
     33 H3          4.1639    3.9724    4.8311 H         1 <0>         0.0605
     34 H4          1.7152    5.3731    8.3032 H         1 <0>         0.1391
     35 H5         -0.6333    4.6474    8.2686 H         1 <0>         0.1338
     36 H6         -0.1748    3.4033    4.1877 H         1 <0>         0.1283
     37 H7          2.1697    4.1414    4.2342 H         1 <0>         0.1369
     38 H8         -6.1523    5.0372    7.4493 H         1 <0>         0.1352
     39 H9         -8.5929    5.0021    7.7471 H         1 <0>         0.1392
     40 H10        -9.9019    3.0603    6.9939 H         1 <0>         0.1395
     41 H11        -8.7803    1.1426    5.9386 H         1 <0>         0.1421
     42 H12        -0.1259    1.4911    6.5887 H         1 <0>         0.1344
     43 H13         1.2900   -0.2458    5.5742 H         1 <0>         0.1448
     44 H14        -1.5934   -0.8155    2.4819 H         1 <0>         0.1448
     45 H15        -3.0272    0.9126    3.4862 H         1 <0>         0.1360
     46 H16         0.5695   -3.3598    5.1119 H         1 <0>         0.1319
     47 H17        -0.6355   -3.6004    3.8241 H         1 <0>         0.1320
     48 H18         1.0088   -4.2562    3.6383 H         1 <0>         0.1337
@<TRIPOS>BOND
     1    1    2 1
     2    1   31 1
     3    1   32 1
     4    1   33 1
     5    2    3 1
     6    3    8 ar
     7    3    4 ar
     8    4    5 ar
     9    4   34 1
    10    5    6 ar
    11    5   35 1
    12    6    7 ar
    13    6    9 1
    14    7    8 ar
    15    7   36 1
    16    8   37 1
    17    9   13 1
    18    9   10 2
    19   10   11 1
    20   10   21 1
    21   11   12 2
    22   12   13 1
    23   12   14 1
    24   14   19 ar
    25   14   15 ar
    26   15   16 ar
    27   15   38 1
    28   16   17 ar
    29   16   39 1
    30   17   18 ar
    31   17   40 1
    32   18   19 ar
    33   18   41 1
    34   19   20 1
    35   21   26 ar
    36   21   22 ar
    37   22   23 ar
    38   22   42 1
    39   23   24 ar
    40   23   43 1
    41   24   25 ar
    42   24   27 1
    43   25   26 ar
    44   25   44 1
    45   26   45 1
    46   27   28 2
    47   27   29 2
    48   27   30 1
    49   30   46 1
    50   30   47 1
    51   30   48 1
@<TRIPOS>MOLECULE
ZINC03814745
   46    49     0     0     0
SMALL
USER_CHARGES

@<TRIPOS>ATOM
      1 C1          8.9793    9.5767    2.4488 C.3       1 <0>         0.0248
      2 O1          8.0081    9.8215    1.4295 O.3       1 <0>        -0.3141
      3 C2          7.1438    8.8120    1.1458 C.ar      1 <0>         0.1414
      4 C3          6.1753    8.9849    0.1656 C.ar      1 <0>        -0.1495
      5 C4          5.2965    7.9639   -0.1256 C.ar      1 <0>        -0.0581
      6 C5          5.3811    6.7534    0.5671 C.ar      1 <0>        -0.0485
      7 C6          6.3536    6.5859    1.5561 C.ar      1 <0>        -0.0412
      8 C7          7.2313    7.6109    1.8372 C.ar      1 <0>        -0.2051
      9 C8          4.4421    5.6574    0.2593 C.2       1 <0>        -0.1340
     10 C9          4.6963    4.3065    0.0221 C.2       1 <0>         0.1003
     11 N1          3.6811    3.5061   -0.2303 N.2       1 <0>        -0.4725
     12 C10         2.4371    3.9562   -0.2727 C.2       1 <0>         0.1227
     13 S1          2.6625    5.6922    0.0876 S.3       1 <0>         0.0913
     14 C11         1.1871    3.2153   -0.5414 C.ar      1 <0>        -0.0008
     15 C12         1.2270    1.8447   -0.8042 C.ar      1 <0>        -0.0616
     16 C13         0.0566    1.1590   -1.0538 C.ar      1 <0>        -0.1119
     17 C14        -1.1555    1.8270   -1.0496 C.ar      1 <0>        -0.0902
     18 C15        -1.2039    3.1837   -0.7850 C.ar      1 <0>        -0.1053
     19 C16        -0.0398    3.8829   -0.5333 C.ar      1 <0>        -0.0256
     20 Cl1        -0.1013    5.5869   -0.2073 Cl        1 <0>        -0.0352
     21 C17         6.0807    3.7810    0.0592 C.ar      1 <0>        -0.0245
     22 C18         7.1165    4.4978   -0.5411 C.ar      1 <0>        -0.0724
     23 C19         8.4048    4.0098   -0.4998 C.ar      1 <0>        -0.1331
     24 C20         8.6709    2.7982    0.1291 C.ar      1 <0>        -0.0759
     25 C21         7.6392    2.0790    0.7228 C.ar      1 <0>        -0.1014
     26 C22         6.3502    2.5658    0.6895 C.ar      1 <0>        -0.0685
     27 S2         10.3177    2.1732    0.1733 S.3       1 <0>        -0.1171
     28 C23        11.2871    3.4278   -0.7082 C.3       1 <0>        -0.1446
     29 H1          9.6024    8.7299    2.1611 H         1 <0>         0.0575
     30 H2          9.6040   10.4610    2.5753 H         1 <0>         0.1029
     31 H3          8.4724    9.3527    3.3874 H         1 <0>         0.0580
     32 H4          6.1105    9.9211   -0.3691 H         1 <0>         0.1373
     33 H5          4.5434    8.0993   -0.8878 H         1 <0>         0.1328
     34 H6          6.4201    5.6534    2.0970 H         1 <0>         0.1282
     35 H7          7.9861    7.4809    2.5987 H         1 <0>         0.1339
     36 H8          2.1723    1.3226   -0.8123 H         1 <0>         0.1459
     37 H9          0.0865    0.0988   -1.2575 H         1 <0>         0.1395
     38 H10        -2.0683    1.2855   -1.2498 H         1 <0>         0.1400
     39 H11        -2.1536    3.6980   -0.7788 H         1 <0>         0.1430
     40 H12         6.9096    5.4365   -1.0335 H         1 <0>         0.1261
     41 H13         9.2077    4.5666   -0.9601 H         1 <0>         0.1252
     42 H14         7.8483    1.1383    1.2106 H         1 <0>         0.1309
     43 H15         5.5494    2.0069    1.1507 H         1 <0>         0.1309
     44 H16        12.3342    3.1261   -0.7337 H         1 <0>         0.1102
     45 H17        10.9126    3.5266   -1.7270 H         1 <0>         0.0846
     46 H18        11.1969    4.3844   -0.1935 H         1 <0>         0.0840
@<TRIPOS>BOND
     1    1    2 1
     2    1   29 1
     3    1   30 1
     4    1   31 1
     5    2    3 1
     6    3    8 ar
     7    3    4 ar
     8    4    5 ar
     9    4   32 1
    10    5    6 ar
    11    5   33 1
    12    6    7 ar
    13    6    9 1
    14    7    8 ar
    15    7   34 1
    16    8   35 1
    17    9   13 1
    18    9   10 2
    19   10   11 1
    20   10   21 1
    21   11   12 2
    22   12   13 1
    23   12   14 1
    24   14   19 ar
    25   14   15 ar
    26   15   16 ar
    27   15   36 1
    28   16   17 ar
    29   16   37 1
    30   17   18 ar
    31   17   38 1
    32   18   19 ar
    33   18   39 1
    34   19   20 1
    35   21   26 ar
    36   21   22 ar
    37   22   23 ar
    38   22   40 1
    39   23   24 ar
    40   23   41 1
    41   24   25 ar
    42   24   27 1
    43   25   26 ar
    44   25   42 1
    45   26   43 1
    46   27   28 1
    47   28   44 1
    48   28   45 1
    49   28   46 1
@<TRIPOS>MOLECULE
ZINC03814746
   38    40     0     0     0
SMALL
USER_CHARGES

@<TRIPOS>ATOM
      1 C1         -3.0992    4.4558   -1.5681 C.3       1 <0>        -0.6494
      2 S1         -2.7251    4.0766    0.1659 S.o2      1 <0>         2.4989
      3 O1         -3.6658    3.1418    0.6764 O.2       1 <0>        -0.9307
      4 O2         -2.4332    5.2720    0.8765 O.2       1 <0>        -0.9307
      5 C2         -1.1986    3.1978    0.1181 C.ar      1 <0>        -0.6550
      6 C3         -1.1990    1.8203   -0.0030 C.ar      1 <0>        -0.0042
      7 C4         -0.0042    1.1282   -0.0355 C.ar      1 <0>        -0.1210
      8 C5          1.1984    1.8180    0.0425 C.ar      1 <0>         0.1894
      9 C6          1.1955    3.2018    0.1588 C.ar      1 <0>        -0.1318
     10 C7         -0.0027    3.8876    0.1964 C.ar      1 <0>        -0.0059
     11 N1          2.4120    1.1195    0.0036 N.pl3     1 <0>        -0.3133
     12 C8          3.5099    1.4524   -0.7373 C.2       1 <0>         0.1376
     13 C9          4.4709    0.5146   -0.4832 C.2       1 <0>        -0.1959
     14 C10         3.9413   -0.4067    0.4210 C.2       1 <0>        -0.0056
     15 N2          2.7158   -0.0496    0.7128 N.2       1 <0>        -0.2111
     16 C11         4.6599   -1.6122    0.9698 C.3       1 <0>         0.5574
     17 F1          3.7791   -2.3620    1.7567 F         1 <0>        -0.1627
     18 F2          5.1252   -2.3998   -0.0887 F         1 <0>        -0.1617
     19 F3          5.7426   -1.1942    1.7510 F         1 <0>        -0.1622
     20 C12         3.6366    2.6144   -1.6439 C.ar      1 <0>        -0.0322
     21 C13         2.5021    3.1605   -2.2452 C.ar      1 <0>        -0.0984
     22 C14         2.6260    4.2472   -3.0860 C.ar      1 <0>        -0.0866
     23 C15         3.8739    4.7892   -3.3419 C.ar      1 <0>        -0.0755
     24 C16         5.0037    4.2484   -2.7523 C.ar      1 <0>        -0.0856
     25 C17         4.8917    3.1651   -1.9056 C.ar      1 <0>        -0.0762
     26 Br1         4.0360    6.2739   -4.5018 Br        1 <0>        -0.0355
     27 H1         -3.1860    3.5274   -2.1325 H         1 <0>         0.1333
     28 H2         -4.0390    5.0050   -1.6253 H         1 <0>         0.1368
     29 H3         -2.2975    5.0630   -1.9883 H         1 <0>         0.1333
     30 H4         -2.1346    1.2848   -0.0685 H         1 <0>         0.1573
     31 H5         -0.0052    0.0520   -0.1259 H         1 <0>         0.1471
     32 H6          2.1293    3.7411    0.2193 H         1 <0>         0.1441
     33 H7         -0.0056    4.9638    0.2868 H         1 <0>         0.1576
     34 H8          5.4628    0.4888   -0.9097 H         1 <0>         0.1741
     35 H9          1.5286    2.7357   -2.0499 H         1 <0>         0.1344
     36 H10         1.7481    4.6736   -3.5486 H         1 <0>         0.1414
     37 H11         5.9746    4.6752   -2.9558 H         1 <0>         0.1444
     38 H12         5.7738    2.7437   -1.4464 H         1 <0>         0.1439
@<TRIPOS>BOND
     1    1    2 1
     2    1   27 1
     3    1   28 1
     4    1   29 1
     5    2    3 2
     6    2    4 2
     7    2    5 1
     8    5   10 ar
     9    5    6 ar
    10    6    7 ar
    11    6   30 1
    12    7    8 ar
    13    7   31 1
    14    8    9 ar
    15    8   11 1
    16    9   10 ar
    17    9   32 1
    18   10   33 1
    19   11   15 1
    20   11   12 1
    21   12   13 2
    22   12   20 1
    23   13   14 1
    24   13   34 1
    25   14   15 2
    26   14   16 1
    27   16   17 1
    28   16   18 1
    29   16   19 1
    30   20   25 ar
    31   20   21 ar
    32   21   22 ar
    33   21   35 1
    34   22   23 ar
    35   22   36 1
    36   23   24 ar
    37   23   26 1
    38   24   25 ar
    39   24   37 1
    40   25   38 1
@<TRIPOS>MOLECULE
ZINC03814748
   38    40     0     0     0
SMALL
USER_CHARGES

@<TRIPOS>ATOM
      1 C1          0.1710    1.4909   -0.1050 C.3       1 <0>        -0.1654
      2 C2         -0.2578    2.4016    1.0165 C.2       1 <0>         0.4488
      3 O1         -1.0162    3.3226    0.7940 O.2       1 <0>        -0.4210
      4 C3          0.2404    2.1753    2.3744 C.2       1 <0>         0.1223
      5 N1          1.0631    1.2132    2.7320 N.2       1 <0>        -0.4053
      6 C4          1.3022    1.3118    4.0430 C.2       1 <0>         0.0722
      7 C5          0.5784    2.4040    4.5129 C.2       1 <0>         0.0124
      8 O2         -0.0675    2.9232    3.4514 O.3       1 <0>        -0.1498
      9 C6          0.5329    2.8994    5.9007 C.ar      1 <0>         0.0628
     10 C7         -0.6943    3.2006    6.4988 C.ar      1 <0>        -0.1210
     11 C8         -0.7306    3.6632    7.7973 C.ar      1 <0>         0.0132
     12 C9          0.4440    3.8305    8.5095 C.ar      1 <0>        -0.7060
     13 C10         1.6649    3.5344    7.9244 C.ar      1 <0>         0.2050
     14 C11         1.7156    3.0646    6.6261 C.ar      1 <0>        -0.1373
     15 F1          2.8072    3.7004    8.6265 F         1 <0>        -0.1093
     16 S1          0.3871    4.4233   10.1678 S.o2      1 <0>         2.7033
     17 O3          1.3375    5.4761   10.2556 O.2       1 <0>        -0.9464
     18 O4         -0.9854    4.6076   10.4864 O.2       1 <0>        -0.9496
     19 N2          0.9398    3.2042   11.1428 N.pl3     1 <0>        -1.2431
     20 C12         2.1759    0.4241    4.8467 C.ar      1 <0>        -0.0287
     21 C13         3.3870   -0.0265    4.3232 C.ar      1 <0>        -0.0819
     22 C14         4.1987   -0.8484    5.0782 C.ar      1 <0>        -0.1177
     23 C15         3.8074   -1.2346    6.3476 C.ar      1 <0>        -0.1028
     24 C16         2.6044   -0.7950    6.8702 C.ar      1 <0>        -0.1175
     25 C17         1.7871    0.0319    6.1269 C.ar      1 <0>        -0.0978
     26 H1         -0.4696    0.7264   -0.1771 H         1 <0>         0.0984
     27 H2          1.1712    1.1088    0.0995 H         1 <0>         0.1019
     28 H3          0.1793    2.0476   -1.0421 H         1 <0>         0.1038
     29 H4         -1.6124    3.0708    5.9450 H         1 <0>         0.1501
     30 H5         -1.6784    3.8960    8.2597 H         1 <0>         0.1669
     31 H6          2.6669    2.8300    6.1718 H         1 <0>         0.1550
     32 H7          1.3937    3.4156   11.9736 H         1 <0>         0.4258
     33 H8          0.8097    2.2787   10.8831 H         1 <0>         0.4181
     34 H9          3.6914    0.2708    3.3306 H         1 <0>         0.1302
     35 H10         5.1393   -1.1942    4.6756 H         1 <0>         0.1306
     36 H11         4.4438   -1.8817    6.9330 H         1 <0>         0.1284
     37 H12         2.3041   -1.0998    7.8619 H         1 <0>         0.1295
     38 H13         0.8483    0.3748    6.5360 H         1 <0>         0.1219
@<TRIPOS>BOND
     1    1    2 1
     2    1   26 1
     3    1   27 1
     4    1   28 1
     5    2    3 2
     6    2    4 1
     7    4    8 1
     8    4    5 2
     9    5    6 1
    10    6    7 2
    11    6   20 1
    12    7    8 1
    13    7    9 1
    14    9   14 ar
    15    9   10 ar
    16   10   11 ar
    17   10   29 1
    18   11   12 ar
    19   11   30 1
    20   12   13 ar
    21   12   16 1
    22   13   14 ar
    23   13   15 1
    24   14   31 1
    25   16   17 2
    26   16   18 2
    27   16   19 1
    28   19   32 1
    29   19   33 1
    30   20   25 ar
    31   20   21 ar
    32   21   22 ar
    33   21   34 1
    34   22   23 ar
    35   22   35 1
    36   23   24 ar
    37   23   36 1
    38   24   25 ar
    39   24   37 1
    40   25   38 1
@<TRIPOS>MOLECULE
ZINC03814749
   44    46     0     0     0
SMALL
USER_CHARGES

@<TRIPOS>ATOM
      1 C1         -3.2004    4.2235   -1.7008 C.3       1 <0>        -0.6495
      2 S1         -2.7771    3.9886    0.0474 S.o2      1 <0>         2.4986
      3 O1         -3.6875    3.0817    0.6539 O.2       1 <0>        -0.9349
      4 O2         -2.4900    5.2411    0.6540 O.2       1 <0>        -0.9336
      5 C2         -1.2362    3.1342    0.0293 C.ar      1 <0>        -0.6536
      6 C3         -1.2158    1.7509    0.0173 C.ar      1 <0>        -0.0169
      7 C4         -0.0126    1.0758    0.0080 C.ar      1 <0>        -0.1274
      8 C5          1.1854    1.7914    0.0004 C.ar      1 <0>         0.0315
      9 C6          1.1578    3.1865    0.0076 C.ar      1 <0>        -0.1139
     10 C7         -0.0520    3.8495    0.0223 C.ar      1 <0>        -0.0167
     11 C8          2.4788    1.0742   -0.0158 C.2       1 <0>         0.0393
     12 C9          3.5573    1.3576   -0.7955 C.2       1 <0>         0.0549
     13 N1          4.5193    0.4749   -0.5028 N.2       1 <0>        -0.4170
     14 C10         4.0939   -0.3447    0.4206 C.2       1 <0>         0.1239
     15 N2          2.8305   -0.0077    0.7592 N.pl3     1 <0>        -0.5322
     16 H1          2.2584   -0.4591    1.4439 H         1 <0>         0.4372
     17 C11         4.8864   -1.4799    1.0158 C.3       1 <0>         0.5647
     18 F1          6.2389   -1.3235    0.6941 F         1 <0>        -0.1460
     19 F2          4.7343   -1.4759    2.4066 F         1 <0>        -0.1681
     20 F3          4.4216   -2.6942    0.4994 F         1 <0>        -0.1639
     21 C12         3.6517    2.4691   -1.8087 C.3       1 <0>        -0.0079
     22 C13         3.9213    1.8757   -3.1930 C.3       1 <0>        -0.1089
     23 C14         4.0172    3.0042   -4.2217 C.3       1 <0>        -0.1188
     24 C15         5.1601    3.9469   -3.8396 C.3       1 <0>        -0.1220
     25 C16         4.8905    4.5403   -2.4553 C.3       1 <0>        -0.1192
     26 C17         4.7946    3.4118   -1.4266 C.3       1 <0>        -0.1101
     27 H2         -3.2838    3.2521   -2.1882 H         1 <0>         0.1323
     28 H3         -4.1514    4.7508   -1.7767 H         1 <0>         0.1353
     29 H4         -2.4206    4.8087   -2.1881 H         1 <0>         0.1331
     30 H5         -2.1437    1.1982    0.0187 H         1 <0>         0.1487
     31 H6          0.0021   -0.0041    0.0020 H         1 <0>         0.1334
     32 H7          2.0816    3.7461    0.0015 H         1 <0>         0.1425
     33 H8         -0.0747    4.9293    0.0279 H         1 <0>         0.1510
     34 H9          2.7138    3.0241   -1.8277 H         1 <0>         0.0884
     35 H10         4.8592    1.3207   -3.1740 H         1 <0>         0.0726
     36 H11         3.1071    1.2041   -3.4652 H         1 <0>         0.0597
     37 H12         3.0793    3.5592   -4.2407 H         1 <0>         0.0614
     38 H13         4.2093    2.5815   -5.2079 H         1 <0>         0.0644
     39 H14         5.2284    4.7509   -4.5725 H         1 <0>         0.0622
     40 H15         6.0980    3.3919   -3.8206 H         1 <0>         0.0639
     41 H16         3.9526    5.0953   -2.4743 H         1 <0>         0.0621
     42 H17         5.7047    5.2119   -2.1831 H         1 <0>         0.0653
     43 H18         4.6025    3.8346   -0.4404 H         1 <0>         0.0606
     44 H19         5.7325    2.8568   -1.4076 H         1 <0>         0.0736
@<TRIPOS>BOND
     1    1    2 1
     2    1   27 1
     3    1   28 1
     4    1   29 1
     5    2    3 2
     6    2    4 2
     7    2    5 1
     8    5   10 ar
     9    5    6 ar
    10    6    7 ar
    11    6   30 1
    12    7    8 ar
    13    7   31 1
    14    8    9 ar
    15    8   11 1
    16    9   10 ar
    17    9   32 1
    18   10   33 1
    19   11   15 1
    20   11   12 2
    21   12   13 1
    22   12   21 1
    23   13   14 2
    24   14   15 1
    25   14   17 1
    26   15   16 1
    27   17   18 1
    28   17   19 1
    29   17   20 1
    30   21   26 1
    31   21   22 1
    32   21   34 1
    33   22   23 1
    34   22   35 1
    35   22   36 1
    36   23   24 1
    37   23   37 1
    38   23   38 1
    39   24   25 1
    40   24   39 1
    41   24   40 1
    42   25   26 1
    43   25   41 1
    44   25   42 1
    45   26   43 1
    46   26   44 1
@<TRIPOS>MOLECULE
ZINC03814749
   44    46     0     0     0
SMALL
USER_CHARGES

@<TRIPOS>ATOM
      1 C1         -3.2004    4.2235   -1.7008 C.3       1 <0>        -0.6495
      2 S1         -2.7771    3.9886    0.0474 S.o2      1 <0>         2.4986
      3 O1         -3.6875    3.0817    0.6539 O.2       1 <0>        -0.9349
      4 O2         -2.4900    5.2411    0.6540 O.2       1 <0>        -0.9336
      5 C2         -1.2362    3.1342    0.0293 C.ar      1 <0>        -0.6536
      6 C3         -1.2158    1.7509    0.0173 C.ar      1 <0>        -0.0169
      7 C4         -0.0126    1.0758    0.0080 C.ar      1 <0>        -0.1274
      8 C5          1.1854    1.7914    0.0004 C.ar      1 <0>         0.0315
      9 C6          1.1578    3.1865    0.0076 C.ar      1 <0>        -0.1139
     10 C7         -0.0520    3.8495    0.0223 C.ar      1 <0>        -0.0167
     11 C8          2.4788    1.0742   -0.0158 C.2       1 <0>         0.0393
     12 C9          3.5573    1.3576   -0.7955 C.2       1 <0>         0.0549
     13 N1          4.5193    0.4749   -0.5028 N.2       1 <0>        -0.4170
     14 C10         4.0939   -0.3447    0.4206 C.2       1 <0>         0.1239
     15 N2          2.8305   -0.0077    0.7592 N.pl3     1 <0>        -0.5322
     16 H1          2.2584   -0.4591    1.4439 H         1 <0>         0.4372
     17 C11         4.8864   -1.4799    1.0158 C.3       1 <0>         0.5647
     18 F1          6.2389   -1.3235    0.6941 F         1 <0>        -0.1460
     19 F2          4.7343   -1.4759    2.4066 F         1 <0>        -0.1681
     20 F3          4.4216   -2.6942    0.4994 F         1 <0>        -0.1639
     21 C12         3.6517    2.4691   -1.8087 C.3       1 <0>        -0.0079
     22 C13         3.9213    1.8757   -3.1930 C.3       1 <0>        -0.1089
     23 C14         4.0172    3.0042   -4.2217 C.3       1 <0>        -0.1188
     24 C15         5.1601    3.9469   -3.8396 C.3       1 <0>        -0.1220
     25 C16         4.8905    4.5403   -2.4553 C.3       1 <0>        -0.1192
     26 C17         4.7946    3.4118   -1.4266 C.3       1 <0>        -0.1101
     27 H2         -3.2838    3.2521   -2.1882 H         1 <0>         0.1323
     28 H3         -4.1514    4.7508   -1.7767 H         1 <0>         0.1353
     29 H4         -2.4206    4.8087   -2.1881 H         1 <0>         0.1331
     30 H5         -2.1437    1.1982    0.0187 H         1 <0>         0.1487
     31 H6          0.0021   -0.0041    0.0020 H         1 <0>         0.1334
     32 H7          2.0816    3.7461    0.0015 H         1 <0>         0.1425
     33 H8         -0.0747    4.9293    0.0279 H         1 <0>         0.1510
     34 H9          2.7138    3.0241   -1.8277 H         1 <0>         0.0884
     35 H10         4.8592    1.3207   -3.1740 H         1 <0>         0.0726
     36 H11         3.1071    1.2041   -3.4652 H         1 <0>         0.0597
     37 H12         3.0793    3.5592   -4.2407 H         1 <0>         0.0614
     38 H13         4.2093    2.5815   -5.2079 H         1 <0>         0.0644
     39 H14         5.2284    4.7509   -4.5725 H         1 <0>         0.0622
     40 H15         6.0980    3.3919   -3.8206 H         1 <0>         0.0639
     41 H16         3.9526    5.0953   -2.4743 H         1 <0>         0.0621
     42 H17         5.7047    5.2119   -2.1831 H         1 <0>         0.0653
     43 H18         4.6025    3.8346   -0.4404 H         1 <0>         0.0606
     44 H19         5.7325    2.8568   -1.4076 H         1 <0>         0.0736
@<TRIPOS>BOND
     1    1    2 1
     2    1   27 1
     3    1   28 1
     4    1   29 1
     5    2    3 2
     6    2    4 2
     7    2    5 1
     8    5   10 ar
     9    5    6 ar
    10    6    7 ar
    11    6   30 1
    12    7    8 ar
    13    7   31 1
    14    8    9 ar
    15    8   11 1
    16    9   10 ar
    17    9   32 1
    18   10   33 1
    19   11   15 1
    20   11   12 2
    21   12   13 1
    22   12   21 1
    23   13   14 2
    24   14   15 1
    25   14   17 1
    26   15   16 1
    27   17   18 1
    28   17   19 1
    29   17   20 1
    30   21   26 1
    31   21   22 1
    32   21   34 1
    33   22   23 1
    34   22   35 1
    35   22   36 1
    36   23   24 1
    37   23   37 1
    38   23   38 1
    39   24   25 1
    40   24   39 1
    41   24   40 1
    42   25   26 1
    43   25   41 1
    44   25   42 1
    45   26   43 1
    46   26   44 1
@<TRIPOS>MOLECULE
ZINC03814749
   45    47     0     0     0
SMALL
USER_CHARGES

@<TRIPOS>ATOM
      1 C1         -3.2004    4.2235   -1.7008 C.3       1 <0>        -0.6464
      2 S1         -2.7771    3.9886    0.0474 S.o2      1 <0>         2.4917
      3 O1         -3.6875    3.0817    0.6539 O.2       1 <0>        -0.9246
      4 O2         -2.4900    5.2411    0.6540 O.2       1 <0>        -0.9239
      5 C2         -1.2362    3.1342    0.0293 C.ar      1 <0>        -0.6282
      6 C3         -1.2158    1.7509    0.0173 C.ar      1 <0>        -0.0139
      7 C4         -0.0126    1.0758    0.0080 C.ar      1 <0>        -0.1063
      8 C5          1.1854    1.7914    0.0004 C.ar      1 <0>        -0.0241
      9 C6          1.1578    3.1865    0.0076 C.ar      1 <0>        -0.0985
     10 C7         -0.0520    3.8495    0.0223 C.ar      1 <0>        -0.0142
     11 C8          2.4788    1.0742   -0.0158 C.2       1 <0>         0.1326
     12 C9          3.5573    1.3576   -0.7955 C.2       1 <0>         0.0917
     13 C10         4.0939   -0.3447    0.4206 C.cat     1 <0>         0.2047
     14 N1          2.8305   -0.0077    0.7592 N.pl3     1 <0>        -0.4628
     15 H1          2.2584   -0.4591    1.4439 H         1 <0>         0.4819
     16 C11         4.8864   -1.4799    1.0158 C.3       1 <0>         0.5556
     17 F1          6.2389   -1.3235    0.6941 F         1 <0>        -0.1373
     18 F2          4.7343   -1.4759    2.4066 F         1 <0>        -0.1339
     19 F3          4.4216   -2.6942    0.4994 F         1 <0>        -0.1320
     20 C12         3.6517    2.4691   -1.8087 C.3       1 <0>        -0.0388
     21 C13         3.9213    1.8757   -3.1930 C.3       1 <0>        -0.1183
     22 C14         4.0172    3.0042   -4.2217 C.3       1 <0>        -0.1207
     23 C15         5.1601    3.9469   -3.8396 C.3       1 <0>        -0.1282
     24 C16         4.8905    4.5403   -2.4553 C.3       1 <0>        -0.1210
     25 C17         4.7946    3.4118   -1.4266 C.3       1 <0>        -0.1203
     26 H2         -3.2838    3.2521   -2.1882 H         1 <0>         0.1340
     27 H3         -4.1514    4.7508   -1.7767 H         1 <0>         0.1418
     28 H4         -2.4206    4.8087   -2.1881 H         1 <0>         0.1343
     29 H5         -2.1437    1.1982    0.0187 H         1 <0>         0.1602
     30 H6          0.0021   -0.0041    0.0020 H         1 <0>         0.1410
     31 H7          2.0816    3.7461    0.0015 H         1 <0>         0.1476
     32 H8         -0.0747    4.9293    0.0279 H         1 <0>         0.1619
     33 H9          2.7138    3.0241   -1.8277 H         1 <0>         0.1269
     34 H10         4.8592    1.3207   -3.1740 H         1 <0>         0.0668
     35 H11         3.1071    1.2041   -3.4652 H         1 <0>         0.0765
     36 H12         3.0793    3.5592   -4.2407 H         1 <0>         0.0722
     37 H13         4.2093    2.5815   -5.2079 H         1 <0>         0.0775
     38 H14         5.2284    4.7509   -4.5725 H         1 <0>         0.0753
     39 H15         6.0980    3.3919   -3.8206 H         1 <0>         0.0660
     40 H16         3.9526    5.0953   -2.4743 H         1 <0>         0.0729
     41 H17         5.7047    5.2119   -2.1831 H         1 <0>         0.0784
     42 H18         4.6025    3.8346   -0.4404 H         1 <0>         0.0772
     43 H19         5.7325    2.8568   -1.4076 H         1 <0>         0.0682
     44 N2          4.5197    0.4749   -0.5030 N.pl3     1 <0>        -0.4322
     45 H20         5.4495    0.4463   -0.9376 H         1 <0>         0.4888
@<TRIPOS>BOND
     1    1    2 1
     2    1   26 1
     3    1   27 1
     4    1   28 1
     5    2    3 2
     6    2    4 2
     7    2    5 1
     8    5   10 ar
     9    5    6 ar
    10    6    7 ar
    11    6   29 1
    12    7    8 ar
    13    7   30 1
    14    8    9 ar
    15    8   11 1
    16    9   10 ar
    17    9   31 1
    18   10   32 1
    19   11   14 1
    20   11   12 2
    21   12   20 1
    22   12   44 1
    23   13   14 1
    24   13   16 1
    25   13   44 2
    26   14   15 1
    27   16   17 1
    28   16   18 1
    29   16   19 1
    30   20   25 1
    31   20   21 1
    32   20   33 1
    33   21   22 1
    34   21   34 1
    35   21   35 1
    36   22   23 1
    37   22   36 1
    38   22   37 1
    39   23   24 1
    40   23   38 1
    41   23   39 1
    42   24   25 1
    43   24   40 1
    44   24   41 1
    45   25   42 1
    46   25   43 1
    47   44   45 1
@<TRIPOS>MOLECULE
ZINC03814750
   38    40     0     0     0
SMALL
USER_CHARGES

@<TRIPOS>ATOM
      1 C1         -1.1832   -5.0102   -1.2550 C.3       1 <0>        -0.6499
      2 S1          0.0620   -4.5350   -0.0244 S.o2      1 <0>         2.4977
      3 O1          1.3616   -4.8779   -0.4856 O.2       1 <0>        -0.9318
      4 O2         -0.3675   -4.9111    1.2769 O.2       1 <0>        -0.9335
      5 C2          0.0389   -2.7732   -0.0139 C.ar      1 <0>        -0.6507
      6 C3         -0.8105   -2.1008    0.8469 C.ar      1 <0>        -0.0175
      7 C4         -0.8340   -0.7217    0.8601 C.ar      1 <0>        -0.1257
      8 C5          0.0021   -0.0041    0.0020 C.ar      1 <0>         0.0240
      9 C6          0.8530   -0.6893   -0.8679 C.ar      1 <0>        -0.1053
     10 C7          0.8701   -2.0686   -0.8668 C.ar      1 <0>        -0.0175
     11 C8         -0.0179    1.4725    0.0101 C.2       1 <0>         0.0571
     12 C9          1.0763    2.3179    0.0042 C.2       1 <0>         0.0836
     13 N1          0.6090    3.5804    0.0147 N.2       1 <0>        -0.4126
     14 C10        -0.6946    3.5629    0.0265 C.2       1 <0>         0.1287
     15 N2         -1.1293    2.2838    0.0191 N.pl3     1 <0>        -0.5282
     16 H1         -2.0827    1.9822    0.0200 H         1 <0>         0.4402
     17 C11        -1.5803    4.7821    0.0406 C.3       1 <0>         0.5645
     18 F1         -0.8266    5.9100   -0.3016 F         1 <0>        -0.1449
     19 F2         -2.6171    4.6159   -0.8838 F         1 <0>        -0.1671
     20 F3         -2.1193    4.9521    1.3203 F         1 <0>        -0.1623
     21 C12         2.5003    1.9096   -0.0112 C.ar      1 <0>        -0.0295
     22 C13         2.9078    0.7664    0.6759 C.ar      1 <0>        -0.0703
     23 C14         4.2343    0.3879    0.6549 C.ar      1 <0>        -0.1508
     24 C15         5.1628    1.1470   -0.0390 C.ar      1 <0>         0.1111
     25 C16         4.7637    2.2863   -0.7192 C.ar      1 <0>        -0.1526
     26 C17         3.4387    2.6704   -0.7082 C.ar      1 <0>        -0.0562
     27 F4          6.4616    0.7755   -0.0520 F         1 <0>        -0.1352
     28 H2         -0.9102   -4.5976   -2.2262 H         1 <0>         0.1326
     29 H3         -1.2311   -6.0971   -1.3224 H         1 <0>         0.1355
     30 H4         -2.1566   -4.6215   -0.9557 H         1 <0>         0.1319
     31 H5         -1.4568   -2.6570    1.5097 H         1 <0>         0.1499
     32 H6         -1.4978   -0.1981    1.5322 H         1 <0>         0.1350
     33 H7          1.4993   -0.1405   -1.5369 H         1 <0>         0.1417
     34 H8          1.5306   -2.5997   -1.5360 H         1 <0>         0.1516
     35 H9          2.1856    0.1765    1.2207 H         1 <0>         0.1327
     36 H10         4.5501   -0.4995    1.1833 H         1 <0>         0.1418
     37 H11         5.4911    2.8748   -1.2586 H         1 <0>         0.1417
     38 H12         3.1287    3.5589   -1.2381 H         1 <0>         0.1403
@<TRIPOS>BOND
     1    1    2 1
     2    1   28 1
     3    1   29 1
     4    1   30 1
     5    2    3 2
     6    2    4 2
     7    2    5 1
     8    5   10 ar
     9    5    6 ar
    10    6    7 ar
    11    6   31 1
    12    7    8 ar
    13    7   32 1
    14    8    9 ar
    15    8   11 1
    16    9   10 ar
    17    9   33 1
    18   10   34 1
    19   11   15 1
    20   11   12 2
    21   12   13 1
    22   12   21 1
    23   13   14 2
    24   14   15 1
    25   14   17 1
    26   15   16 1
    27   17   18 1
    28   17   19 1
    29   17   20 1
    30   21   26 ar
    31   21   22 ar
    32   22   23 ar
    33   22   35 1
    34   23   24 ar
    35   23   36 1
    36   24   25 ar
    37   24   27 1
    38   25   26 ar
    39   25   37 1
    40   26   38 1
@<TRIPOS>MOLECULE
ZINC03814750
   38    40     0     0     0
SMALL
USER_CHARGES

@<TRIPOS>ATOM
      1 C1         -1.1832   -5.0102   -1.2550 C.3       1 <0>        -0.6499
      2 S1          0.0620   -4.5350   -0.0244 S.o2      1 <0>         2.4977
      3 O1          1.3616   -4.8779   -0.4856 O.2       1 <0>        -0.9318
      4 O2         -0.3675   -4.9111    1.2769 O.2       1 <0>        -0.9335
      5 C2          0.0389   -2.7732   -0.0139 C.ar      1 <0>        -0.6507
      6 C3         -0.8105   -2.1008    0.8469 C.ar      1 <0>        -0.0175
      7 C4         -0.8340   -0.7217    0.8601 C.ar      1 <0>        -0.1257
      8 C5          0.0021   -0.0041    0.0020 C.ar      1 <0>         0.0240
      9 C6          0.8530   -0.6893   -0.8679 C.ar      1 <0>        -0.1053
     10 C7          0.8701   -2.0686   -0.8668 C.ar      1 <0>        -0.0175
     11 C8         -0.0179    1.4725    0.0101 C.2       1 <0>         0.0571
     12 C9          1.0763    2.3179    0.0042 C.2       1 <0>         0.0836
     13 N1          0.6090    3.5804    0.0147 N.2       1 <0>        -0.4126
     14 C10        -0.6946    3.5629    0.0265 C.2       1 <0>         0.1287
     15 N2         -1.1293    2.2838    0.0191 N.pl3     1 <0>        -0.5282
     16 H1         -2.0827    1.9822    0.0200 H         1 <0>         0.4402
     17 C11        -1.5803    4.7821    0.0406 C.3       1 <0>         0.5645
     18 F1         -0.8266    5.9100   -0.3016 F         1 <0>        -0.1449
     19 F2         -2.6171    4.6159   -0.8838 F         1 <0>        -0.1671
     20 F3         -2.1193    4.9521    1.3203 F         1 <0>        -0.1623
     21 C12         2.5003    1.9096   -0.0112 C.ar      1 <0>        -0.0295
     22 C13         2.9078    0.7664    0.6759 C.ar      1 <0>        -0.0703
     23 C14         4.2343    0.3879    0.6549 C.ar      1 <0>        -0.1508
     24 C15         5.1628    1.1470   -0.0390 C.ar      1 <0>         0.1111
     25 C16         4.7637    2.2863   -0.7192 C.ar      1 <0>        -0.1526
     26 C17         3.4387    2.6704   -0.7082 C.ar      1 <0>        -0.0562
     27 F4          6.4616    0.7755   -0.0520 F         1 <0>        -0.1352
     28 H2         -0.9102   -4.5976   -2.2262 H         1 <0>         0.1326
     29 H3         -1.2311   -6.0971   -1.3224 H         1 <0>         0.1355
     30 H4         -2.1566   -4.6215   -0.9557 H         1 <0>         0.1319
     31 H5         -1.4568   -2.6570    1.5097 H         1 <0>         0.1499
     32 H6         -1.4978   -0.1981    1.5322 H         1 <0>         0.1350
     33 H7          1.4993   -0.1405   -1.5369 H         1 <0>         0.1417
     34 H8          1.5306   -2.5997   -1.5360 H         1 <0>         0.1516
     35 H9          2.1856    0.1765    1.2207 H         1 <0>         0.1327
     36 H10         4.5501   -0.4995    1.1833 H         1 <0>         0.1418
     37 H11         5.4911    2.8748   -1.2586 H         1 <0>         0.1417
     38 H12         3.1287    3.5589   -1.2381 H         1 <0>         0.1403
@<TRIPOS>BOND
     1    1    2 1
     2    1   28 1
     3    1   29 1
     4    1   30 1
     5    2    3 2
     6    2    4 2
     7    2    5 1
     8    5   10 ar
     9    5    6 ar
    10    6    7 ar
    11    6   31 1
    12    7    8 ar
    13    7   32 1
    14    8    9 ar
    15    8   11 1
    16    9   10 ar
    17    9   33 1
    18   10   34 1
    19   11   15 1
    20   11   12 2
    21   12   13 1
    22   12   21 1
    23   13   14 2
    24   14   15 1
    25   14   17 1
    26   15   16 1
    27   17   18 1
    28   17   19 1
    29   17   20 1
    30   21   26 ar
    31   21   22 ar
    32   22   23 ar
    33   22   35 1
    34   23   24 ar
    35   23   36 1
    36   24   25 ar
    37   24   27 1
    38   25   26 ar
    39   25   37 1
    40   26   38 1
@<TRIPOS>MOLECULE
ZINC03814750
   39    41     0     0     0
SMALL
USER_CHARGES

@<TRIPOS>ATOM
      1 C1         -1.1832   -5.0102   -1.2550 C.3       1 <0>        -0.6467
      2 S1          0.0620   -4.5350   -0.0244 S.o2      1 <0>         2.4910
      3 O1          1.3616   -4.8779   -0.4856 O.2       1 <0>        -0.9234
      4 O2         -0.3675   -4.9111    1.2769 O.2       1 <0>        -0.9239
      5 C2          0.0389   -2.7732   -0.0139 C.ar      1 <0>        -0.6265
      6 C3         -0.8105   -2.1008    0.8469 C.ar      1 <0>        -0.0153
      7 C4         -0.8340   -0.7217    0.8601 C.ar      1 <0>        -0.1050
      8 C5          0.0021   -0.0041    0.0020 C.ar      1 <0>        -0.0295
      9 C6          0.8530   -0.6893   -0.8679 C.ar      1 <0>        -0.0903
     10 C7          0.8701   -2.0686   -0.8668 C.ar      1 <0>        -0.0162
     11 C8         -0.0179    1.4725    0.0101 C.2       1 <0>         0.1393
     12 C9          1.0763    2.3179    0.0042 C.2       1 <0>         0.1422
     13 C10        -0.6946    3.5629    0.0265 C.cat     1 <0>         0.2054
     14 N1         -1.1293    2.2838    0.0191 N.pl3     1 <0>        -0.4601
     15 H1         -2.0827    1.9822    0.0200 H         1 <0>         0.4827
     16 C11        -1.5803    4.7821    0.0406 C.3       1 <0>         0.5552
     17 F1         -0.8266    5.9100   -0.3016 F         1 <0>        -0.1372
     18 F2         -2.6171    4.6159   -0.8838 F         1 <0>        -0.1341
     19 F3         -2.1193    4.9521    1.3203 F         1 <0>        -0.1314
     20 C12         2.5003    1.9096   -0.0112 C.ar      1 <0>        -0.0984
     21 C13         2.9078    0.7664    0.6759 C.ar      1 <0>        -0.0409
     22 C14         4.2343    0.3879    0.6549 C.ar      1 <0>        -0.1458
     23 C15         5.1628    1.1470   -0.0390 C.ar      1 <0>         0.1529
     24 C16         4.7637    2.2863   -0.7192 C.ar      1 <0>        -0.1468
     25 C17         3.4387    2.6704   -0.7082 C.ar      1 <0>        -0.0561
     26 F4          6.4616    0.7755   -0.0520 F         1 <0>        -0.1167
     27 H2         -0.9102   -4.5976   -2.2262 H         1 <0>         0.1342
     28 H3         -1.2311   -6.0971   -1.3224 H         1 <0>         0.1418
     29 H4         -2.1566   -4.6215   -0.9557 H         1 <0>         0.1338
     30 H5         -1.4568   -2.6570    1.5097 H         1 <0>         0.1608
     31 H6         -1.4978   -0.1981    1.5322 H         1 <0>         0.1423
     32 H7          1.4993   -0.1405   -1.5369 H         1 <0>         0.1471
     33 H8          1.5306   -2.5997   -1.5360 H         1 <0>         0.1615
     34 H9          2.1856    0.1765    1.2207 H         1 <0>         0.1448
     35 H10         4.5501   -0.4995    1.1833 H         1 <0>         0.1573
     36 H11         5.4911    2.8748   -1.2586 H         1 <0>         0.1560
     37 H12         3.1287    3.5589   -1.2381 H         1 <0>         0.1400
     38 N2          0.6093    3.5808    0.0147 N.pl3     1 <0>        -0.4346
     39 H13         1.1902    4.4274    0.0136 H         1 <0>         0.4903
@<TRIPOS>BOND
     1    1    2 1
     2    1   27 1
     3    1   28 1
     4    1   29 1
     5    2    3 2
     6    2    4 2
     7    2    5 1
     8    5   10 ar
     9    5    6 ar
    10    6    7 ar
    11    6   30 1
    12    7    8 ar
    13    7   31 1
    14    8    9 ar
    15    8   11 1
    16    9   10 ar
    17    9   32 1
    18   10   33 1
    19   11   14 1
    20   11   12 2
    21   12   20 1
    22   12   38 1
    23   13   14 1
    24   13   16 1
    25   13   38 2
    26   14   15 1
    27   16   17 1
    28   16   18 1
    29   16   19 1
    30   20   25 ar
    31   20   21 ar
    32   21   22 ar
    33   21   34 1
    34   22   23 ar
    35   22   35 1
    36   23   24 ar
    37   23   26 1
    38   24   25 ar
    39   24   36 1
    40   25   37 1
    41   38   39 1
@<TRIPOS>MOLECULE
ZINC03814751
   40    43     0     0     0
SMALL
USER_CHARGES

@<TRIPOS>ATOM
      1 C1          5.1392   -2.4016   -6.7735 C.3       1 <0>        -0.6496
      2 S1          4.0564   -1.0513   -6.2305 S.o2      1 <0>         2.4976
      3 O1          2.9438   -0.9337   -7.1065 O.2       1 <0>        -0.9336
      4 O2          4.8312    0.0891   -5.8864 O.2       1 <0>        -0.9334
      5 C2          3.3709   -1.6061   -4.7051 C.ar      1 <0>        -0.6506
      6 C3          4.0212   -1.3253   -3.5157 C.ar      1 <0>        -0.0182
      7 C4          3.4918   -1.7556   -2.3179 C.ar      1 <0>        -0.1125
      8 C5          2.2931   -2.4785   -2.3066 C.ar      1 <0>         0.0124
      9 C6          1.6450   -2.7631   -3.5142 C.ar      1 <0>        -0.1175
     10 C7          2.1854   -2.3207   -4.7028 C.ar      1 <0>        -0.0189
     11 C8          1.7216   -2.9409   -1.0348 C.2       1 <0>        -0.0115
     12 C9          1.2481   -2.1629   -0.0210 C.2       1 <0>        -0.1350
     13 C10         0.7756   -3.0297    1.0640 C.2       1 <0>         0.5093
     14 O3          0.3003   -2.6373    2.1119 O.2       1 <0>        -0.4345
     15 O4          0.9417   -4.3232    0.7290 O.3       1 <0>        -0.2839
     16 C11         1.5424   -4.3714   -0.5912 C.3       1 <0>         0.0299
     17 C12         2.5659   -5.4439   -0.9570 C.3       1 <0>        -0.1332
     18 C13         1.1725   -5.4655   -1.5900 C.3       1 <0>        -0.1378
     19 C14         1.2210   -0.6821   -0.0132 C.ar      1 <0>        -0.0386
     20 C15         0.0021   -0.0041    0.0020 C.ar      1 <0>        -0.0901
     21 C16        -0.0166    1.3755    0.0096 C.ar      1 <0>        -0.1160
     22 C17         1.1703    2.0864    0.0021 C.ar      1 <0>        -0.1073
     23 C18         2.3824    1.4196   -0.0130 C.ar      1 <0>        -0.1171
     24 C19         2.4143    0.0403   -0.0207 C.ar      1 <0>        -0.0993
     25 H1          4.5505   -3.3098   -6.9026 H         1 <0>         0.1325
     26 H2          5.6067   -2.1338   -7.7210 H         1 <0>         0.1352
     27 H3          5.9111   -2.5725   -6.0231 H         1 <0>         0.1324
     28 H4          4.9461   -0.7678   -3.5263 H         1 <0>         0.1499
     29 H5          4.0005   -1.5361   -1.3909 H         1 <0>         0.1385
     30 H6          0.7221   -3.3240   -3.5144 H         1 <0>         0.1394
     31 H7          1.6843   -2.5356   -5.6351 H         1 <0>         0.1500
     32 H8          3.4019   -5.1468   -1.5901 H         1 <0>         0.1183
     33 H9          2.7899   -6.2025   -0.2071 H         1 <0>         0.1215
     34 H10         0.4799   -6.2383   -1.2565 H         1 <0>         0.1221
     35 H11         1.0914   -5.1825   -2.6395 H         1 <0>         0.1191
     36 H12        -0.9251   -0.5579    0.0075 H         1 <0>         0.1234
     37 H13        -0.9598    1.9017    0.0169 H         1 <0>         0.1286
     38 H14         1.1505    3.1662    0.0081 H         1 <0>         0.1270
     39 H15         3.3057    1.9800   -0.0188 H         1 <0>         0.1289
     40 H16         3.3611   -0.4791   -0.0322 H         1 <0>         0.1227
@<TRIPOS>BOND
     1    1    2 1
     2    1   25 1
     3    1   26 1
     4    1   27 1
     5    2    3 2
     6    2    4 2
     7    2    5 1
     8    5   10 ar
     9    5    6 ar
    10    6    7 ar
    11    6   28 1
    12    7    8 ar
    13    7   29 1
    14    8    9 ar
    15    8   11 1
    16    9   10 ar
    17    9   30 1
    18   10   31 1
    19   11   16 1
    20   11   12 2
    21   12   13 1
    22   12   19 1
    23   13   14 2
    24   13   15 1
    25   15   16 1
    26   16   18 1
    27   16   17 1
    28   17   18 1
    29   17   32 1
    30   17   33 1
    31   18   34 1
    32   18   35 1
    33   19   24 ar
    34   19   20 ar
    35   20   21 ar
    36   20   36 1
    37   21   22 ar
    38   21   37 1
    39   22   23 ar
    40   22   38 1
    41   23   24 ar
    42   23   39 1
    43   24   40 1
@<TRIPOS>MOLECULE
ZINC03814753
   51    54     0     0     0
SMALL
USER_CHARGES

@<TRIPOS>ATOM
      1 C1          1.0695    1.0123   -0.1050 C.3       1 <0>        -0.6500
      2 S1          0.0902   -0.2815    0.7059 S.o2      1 <0>         2.4979
      3 O1         -0.9508   -0.7201   -0.1562 O.2       1 <0>        -0.9352
      4 O2          0.9484   -1.2194    1.3408 O.2       1 <0>        -0.9348
      5 C2         -0.7366    0.5383    2.0284 C.ar      1 <0>        -0.6513
      6 C3         -0.1399    0.6114    3.2741 C.ar      1 <0>        -0.0209
      7 C4         -0.7804    1.2572    4.3121 C.ar      1 <0>        -0.1081
      8 C5         -2.0356    1.8269    4.1062 C.ar      1 <0>         0.0393
      9 C6         -2.6345    1.7452    2.8504 C.ar      1 <0>        -0.1092
     10 C7         -1.9825    1.1015    1.8183 C.ar      1 <0>        -0.0222
     11 C8         -2.7315    2.5169    5.2193 C.2       1 <0>         0.1155
     12 C9         -2.1408    3.4122    6.1461 C.2       1 <0>        -0.1105
     13 C10        -3.1201    3.8232    6.9997 C.2       1 <0>        -0.0014
     14 N1         -4.2672    3.2128    6.6371 N.pl3     1 <0>        -0.3220
     15 N2         -4.0053    2.4028    5.5257 N.2       1 <0>        -0.2270
     16 C11        -5.5666    3.3702    7.2953 C.3       1 <0>         0.1524
     17 C12        -6.3446    4.4671    6.6152 C.ar      1 <0>        -0.1279
     18 C13        -6.2112    5.7754    7.0412 C.ar      1 <0>        -0.0975
     19 C14        -6.9212    6.7822    6.4142 C.ar      1 <0>        -0.1189
     20 C15        -7.7725    6.4794    5.3681 C.ar      1 <0>        -0.1024
     21 C16        -7.9099    5.1704    4.9455 C.ar      1 <0>        -0.1216
     22 C17        -7.1959    4.1642    5.5691 C.ar      1 <0>        -0.0862
     23 C18        -2.9506    4.7839    8.1483 C.3       1 <0>         0.5400
     24 F1         -3.8004    4.4129    9.1958 F         1 <0>        -0.1706
     25 F2         -1.6238    4.7523    8.5907 F         1 <0>        -0.1513
     26 F3         -3.2702    6.0783    7.7246 F         1 <0>        -0.1610
     27 C19        -0.7168    3.8282    6.1787 C.ar      1 <0>        -0.0442
     28 C20         0.1100    3.4089    7.2191 C.ar      1 <0>        -0.0623
     29 C21         1.4348    3.7942    7.2429 C.ar      1 <0>        -0.1511
     30 C22         1.9405    4.6054    6.2402 C.ar      1 <0>         0.1100
     31 C23         1.1208    5.0288    5.2068 C.ar      1 <0>        -0.1523
     32 C24        -0.2039    4.6440    5.1722 C.ar      1 <0>        -0.0640
     33 F4          3.2367    4.9849    6.2704 F         1 <0>        -0.1362
     34 H1          0.4055    1.7963   -0.4690 H         1 <0>         0.1322
     35 H2          1.7745    1.4363    0.6101 H         1 <0>         0.1325
     36 H3          1.6172    0.5817   -0.9433 H         1 <0>         0.1343
     37 H4          0.8310    0.1661    3.4337 H         1 <0>         0.1483
     38 H5         -0.3116    1.3175    5.2832 H         1 <0>         0.1372
     39 H6         -3.6072    2.1846    2.6853 H         1 <0>         0.1374
     40 H7         -2.4457    1.0376    0.8448 H         1 <0>         0.1479
     41 H8         -6.1230    2.4353    7.2291 H         1 <0>         0.1182
     42 H9         -5.4141    3.6289    8.3432 H         1 <0>         0.1197
     43 H10        -5.5495    6.0114    7.8615 H         1 <0>         0.1206
     44 H11        -6.8142    7.8049    6.7446 H         1 <0>         0.1276
     45 H12        -8.3306    7.2654    4.8811 H         1 <0>         0.1269
     46 H13        -8.5752    4.9337    4.1284 H         1 <0>         0.1276
     47 H14        -7.3034    3.1415    5.2391 H         1 <0>         0.1272
     48 H15        -0.2845    2.7799    8.0034 H         1 <0>         0.1344
     49 H16         2.0773    3.4664    8.0467 H         1 <0>         0.1408
     50 H17         1.5190    5.6614    4.4273 H         1 <0>         0.1396
     51 H18        -0.8424    4.9749    4.3664 H         1 <0>         0.1328
@<TRIPOS>BOND
     1    1    2 1
     2    1   34 1
     3    1   35 1
     4    1   36 1
     5    2    3 2
     6    2    4 2
     7    2    5 1
     8    5   10 ar
     9    5    6 ar
    10    6    7 ar
    11    6   37 1
    12    7    8 ar
    13    7   38 1
    14    8    9 ar
    15    8   11 1
    16    9   10 ar
    17    9   39 1
    18   10   40 1
    19   11   15 2
    20   11   12 1
    21   12   13 2
    22   12   27 1
    23   13   14 1
    24   13   23 1
    25   14   15 1
    26   14   16 1
    27   16   17 1
    28   16   41 1
    29   16   42 1
    30   17   22 ar
    31   17   18 ar
    32   18   19 ar
    33   18   43 1
    34   19   20 ar
    35   19   44 1
    36   20   21 ar
    37   20   45 1
    38   21   22 ar
    39   21   46 1
    40   22   47 1
    41   23   24 1
    42   23   25 1
    43   23   26 1
    44   27   32 ar
    45   27   28 ar
    46   28   29 ar
    47   28   48 1
    48   29   30 ar
    49   29   49 1
    50   30   31 ar
    51   30   33 1
    52   31   32 ar
    53   31   50 1
    54   32   51 1
@<TRIPOS>MOLECULE
ZINC03814756
   39    41     0     0     0
SMALL
USER_CHARGES

@<TRIPOS>ATOM
      1 C1          0.8903    8.3415    4.3634 C.3       1 <0>        -0.1198
      2 C2         -0.0105    7.2034    4.7688 C.ar      1 <0>        -0.0742
      3 C3         -1.2916    7.4642    5.2194 C.ar      1 <0>        -0.1060
      4 C4         -2.1194    6.4233    5.5920 C.ar      1 <0>        -0.1094
      5 C5         -1.6642    5.1139    5.5133 C.ar      1 <0>         0.1035
      6 C6         -0.3757    4.8556    5.0655 C.ar      1 <0>        -0.1033
      7 C7          0.4458    5.9005    4.6897 C.ar      1 <0>        -0.1075
      8 N1         -2.5017    4.0557    5.8906 N.pl3     1 <0>        -0.3954
      9 C8         -3.1053    3.9112    7.1066 C.2       1 <0>         0.0129
     10 C9         -3.8303    2.7717    7.0919 C.2       1 <0>        -0.1943
     11 C10        -3.6809    2.1858    5.8239 C.2       1 <0>        -0.1524
     12 C11        -2.8532    2.9896    5.0991 C.2       1 <0>         0.0310
     13 C12        -2.4160    2.7585    3.7059 C.ar      1 <0>         0.0448
     14 C13        -1.9800    3.8276    2.9217 C.ar      1 <0>        -0.1431
     15 C14        -1.5730    3.6050    1.6224 C.ar      1 <0>        -0.0162
     16 C15        -1.5963    2.3254    1.0965 C.ar      1 <0>        -0.6654
     17 C16        -2.0327    1.2622    1.8668 C.ar      1 <0>        -0.0167
     18 C17        -2.4371    1.4702    3.1693 C.ar      1 <0>        -0.1259
     19 S1         -1.0747    2.0499   -0.5638 S.o2      1 <0>         2.4999
     20 O1         -1.2980    3.2882   -1.2242 O.2       1 <0>        -0.9374
     21 O2         -1.7656    0.8768   -0.9710 O.2       1 <0>        -0.9366
     22 C18         0.7045    1.7174   -0.4444 C.3       1 <0>        -0.6507
     23 H1          1.4595    8.6804    5.2291 H         1 <0>         0.0758
     24 H2          1.5766    8.0030    3.5872 H         1 <0>         0.0709
     25 H3          0.2864    9.1644    3.9809 H         1 <0>         0.0712
     26 H4         -1.6450    8.4829    5.2803 H         1 <0>         0.1341
     27 H5         -3.1196    6.6276    5.9445 H         1 <0>         0.1318
     28 H6         -0.0172    3.8385    5.0078 H         1 <0>         0.1286
     29 H7          1.4468    5.6999    4.3374 H         1 <0>         0.1333
     30 H8         -3.0179    4.5930    7.9396 H         1 <0>         0.1683
     31 H9         -4.4225    2.3832    7.9072 H         1 <0>         0.1461
     32 H10        -4.1366    1.2666    5.4865 H         1 <0>         0.1454
     33 H11        -1.9616    4.8269    3.3309 H         1 <0>         0.1331
     34 H12        -1.2350    4.4313    1.0146 H         1 <0>         0.1426
     35 H13        -2.0527    0.2665    1.4488 H         1 <0>         0.1465
     36 H14        -2.7737    0.6387    3.7708 H         1 <0>         0.1387
     37 H15         1.2061    2.5780   -0.0018 H         1 <0>         0.1308
     38 H16         0.8690    0.8399    0.1808 H         1 <0>         0.1318
     39 H17         1.1076    1.5347   -1.4405 H         1 <0>         0.1335
@<TRIPOS>BOND
     1    1    2 1
     2    1   23 1
     3    1   24 1
     4    1   25 1
     5    2    7 ar
     6    2    3 ar
     7    3    4 ar
     8    3   26 1
     9    4    5 ar
    10    4   27 1
    11    5    6 ar
    12    5    8 1
    13    6    7 ar
    14    6   28 1
    15    7   29 1
    16    8   12 1
    17    8    9 1
    18    9   10 2
    19    9   30 1
    20   10   11 1
    21   10   31 1
    22   11   12 2
    23   11   32 1
    24   12   13 1
    25   13   18 ar
    26   13   14 ar
    27   14   15 ar
    28   14   33 1
    29   15   16 ar
    30   15   34 1
    31   16   17 ar
    32   16   19 1
    33   17   18 ar
    34   17   35 1
    35   18   36 1
    36   19   20 2
    37   19   21 2
    38   19   22 1
    39   22   37 1
    40   22   38 1
    41   22   39 1
@<TRIPOS>MOLECULE
ZINC03814760
   39    41     0     0     0
SMALL
USER_CHARGES

@<TRIPOS>ATOM
      1 C1          2.2685    2.7436    4.8952 C.3       1 <0>        -0.1155
      2 C2          1.1825    3.2714    5.7970 C.ar      1 <0>        -0.1303
      3 C3         -0.1492    3.1065    5.4583 C.ar      1 <0>        -0.0665
      4 C4         -1.1222    3.6188    6.3239 C.ar      1 <0>        -0.0779
      5 C5         -0.7129    4.2621    7.4928 C.ar      1 <0>         0.1458
      6 N1          0.5672    4.3897    7.7739 N.ar      1 <0>        -0.4727
      7 C6          1.5062    3.9212    6.9742 C.ar      1 <0>         0.1178
      8 C7         -2.5597    3.4755    6.0085 C.2       1 <0>         0.2828
      9 N2         -3.5499    3.5703    6.8681 N.2       1 <0>        -0.4249
     10 C8         -4.7100    3.3791    6.2294 C.2       1 <0>        -0.0800
     11 C9         -4.4479    3.1625    4.9244 C.2       1 <0>         0.0377
     12 N3         -3.0869    3.2252    4.7728 N.pl3     1 <0>        -0.4137
     13 C10        -2.3720    3.0585    3.5790 C.ar      1 <0>         0.1605
     14 C11        -2.5186    1.8940    2.8373 C.ar      1 <0>        -0.1286
     15 C12        -1.8130    1.7327    1.6610 C.ar      1 <0>         0.0019
     16 C13        -0.9616    2.7299    1.2215 C.ar      1 <0>        -0.6720
     17 C14        -0.8093    3.8884    1.9609 C.ar      1 <0>        -0.0057
     18 C15        -1.5161    4.0577    3.1354 C.ar      1 <0>        -0.1243
     19 S1         -0.0637    2.5207   -0.2800 S.o2      1 <0>         2.7021
     20 O1          0.0386    1.1206   -0.5004 O.2       1 <0>        -0.9512
     21 O2          1.0772    3.3633   -0.1917 O.2       1 <0>        -0.9484
     22 N4         -1.0047    3.1246   -1.5015 N.pl3     1 <0>        -1.2416
     23 C16        -6.0779    3.4015    6.8615 C.3       1 <0>         0.5574
     24 F1         -6.4150    2.1130    7.2894 F         1 <0>        -0.1697
     25 F2         -6.0707    4.2702    7.9581 F         1 <0>        -0.1632
     26 F3         -7.0178    3.8423    5.9236 F         1 <0>        -0.1712
     27 H1          2.5102    1.7192    5.1787 H         1 <0>         0.0790
     28 H2          1.9236    2.7628    3.8614 H         1 <0>         0.0703
     29 H3          3.1572    3.3671    4.9934 H         1 <0>         0.0785
     30 H4         -0.4303    2.5990    4.5473 H         1 <0>         0.1353
     31 H5         -1.4524    4.6590    8.1725 H         1 <0>         0.1706
     32 H6          2.5445    4.0476    7.2430 H         1 <0>         0.1642
     33 H7         -5.1728    2.9745    4.1462 H         1 <0>         0.2001
     34 H8         -3.1839    1.1152    3.1797 H         1 <0>         0.1474
     35 H9         -1.9265    0.8271    1.0836 H         1 <0>         0.1579
     36 H10        -0.1403    4.6635    1.6174 H         1 <0>         0.1578
     37 H11        -1.4001    4.9646    3.7103 H         1 <0>         0.1446
     38 H12        -1.2857    2.5469   -2.2282 H         1 <0>         0.4251
     39 H13        -1.2749    4.0562   -1.4902 H         1 <0>         0.4204
@<TRIPOS>BOND
     1    1    2 1
     2    1   27 1
     3    1   28 1
     4    1   29 1
     5    2    7 ar
     6    2    3 ar
     7    3    4 ar
     8    3   30 1
     9    4    5 ar
    10    4    8 1
    11    5    6 ar
    12    5   31 1
    13    6    7 ar
    14    7   32 1
    15    8   12 1
    16    8    9 2
    17    9   10 1
    18   10   11 2
    19   10   23 1
    20   11   12 1
    21   11   33 1
    22   12   13 1
    23   13   18 ar
    24   13   14 ar
    25   14   15 ar
    26   14   34 1
    27   15   16 ar
    28   15   35 1
    29   16   17 ar
    30   16   19 1
    31   17   18 ar
    32   17   36 1
    33   18   37 1
    34   19   20 2
    35   19   21 2
    36   19   22 1
    37   22   38 1
    38   22   39 1
    39   23   24 1
    40   23   25 1
    41   23   26 1
@<TRIPOS>MOLECULE
ZINC03814760
   40    42     0     0     0
SMALL
USER_CHARGES

@<TRIPOS>ATOM
      1 C1          2.2685    2.7436    4.8952 C.3       1 <0>        -0.1259
      2 C2          1.1825    3.2714    5.7970 C.ar      1 <0>        -0.1164
      3 C3         -0.1492    3.1065    5.4583 C.ar      1 <0>        -0.0317
      4 C4         -1.1222    3.6188    6.3239 C.ar      1 <0>        -0.1581
      5 C5         -0.7129    4.2621    7.4928 C.ar      1 <0>         0.1580
      6 N1          0.5672    4.3897    7.7739 N.ar      1 <0>        -0.4591
      7 C6          1.5062    3.9212    6.9742 C.ar      1 <0>         0.1629
      8 C7         -2.5597    3.4755    6.0085 C.cat     1 <0>         0.4233
      9 C8         -4.7100    3.3791    6.2294 C.2       1 <0>        -0.0690
     10 C9         -4.4479    3.1625    4.9244 C.2       1 <0>         0.1211
     11 N2         -3.0869    3.2252    4.7728 N.pl3     1 <0>        -0.3683
     12 C10        -2.3720    3.0585    3.5790 C.ar      1 <0>         0.1084
     13 C11        -2.5186    1.8940    2.8373 C.ar      1 <0>        -0.1062
     14 C12        -1.8130    1.7327    1.6610 C.ar      1 <0>         0.0063
     15 C13        -0.9616    2.7299    1.2215 C.ar      1 <0>        -0.6490
     16 C14        -0.8093    3.8884    1.9609 C.ar      1 <0>        -0.0023
     17 C15        -1.5161    4.0577    3.1354 C.ar      1 <0>        -0.1121
     18 S1         -0.0637    2.5207   -0.2800 S.o2      1 <0>         2.6964
     19 O1          0.0386    1.1206   -0.5004 O.2       1 <0>        -0.9406
     20 O2          1.0772    3.3633   -0.1917 O.2       1 <0>        -0.9382
     21 N3         -1.0047    3.1246   -1.5015 N.pl3     1 <0>        -1.2373
     22 C16        -6.0779    3.4015    6.8615 C.3       1 <0>         0.5539
     23 F1         -6.4150    2.1130    7.2894 F         1 <0>        -0.1466
     24 F2         -6.0707    4.2702    7.9581 F         1 <0>        -0.1558
     25 F3         -7.0178    3.8423    5.9236 F         1 <0>        -0.1426
     26 H1          2.5102    1.7192    5.1787 H         1 <0>         0.0910
     27 H2          1.9236    2.7628    3.8614 H         1 <0>         0.0785
     28 H3          3.1572    3.3671    4.9934 H         1 <0>         0.0900
     29 H4         -0.4303    2.5990    4.5473 H         1 <0>         0.1493
     30 H5         -1.4524    4.6590    8.1725 H         1 <0>         0.1669
     31 H6          2.5445    4.0476    7.2430 H         1 <0>         0.1829
     32 H7         -5.1728    2.9745    4.1462 H         1 <0>         0.2442
     33 H8         -3.1839    1.1152    3.1797 H         1 <0>         0.1568
     34 H9         -1.9265    0.8271    1.0836 H         1 <0>         0.1703
     35 H10        -0.1403    4.6635    1.6174 H         1 <0>         0.1693
     36 H11        -1.4001    4.9646    3.7103 H         1 <0>         0.1516
     37 H12        -1.2857    2.5469   -2.2282 H         1 <0>         0.4293
     38 H13        -1.2749    4.0562   -1.4902 H         1 <0>         0.4220
     39 N4         -3.5500    3.5701    6.8671 N.pl3     1 <0>        -0.4607
     40 H14        -3.4490    3.7609    7.8709 H         1 <0>         0.4879
@<TRIPOS>BOND
     1    1    2 1
     2    1   26 1
     3    1   27 1
     4    1   28 1
     5    2    7 ar
     6    2    3 ar
     7    3    4 ar
     8    3   29 1
     9    4    5 ar
    10    4    8 1
    11    5    6 ar
    12    5   30 1
    13    6    7 ar
    14    7   31 1
    15    8   11 1
    16    8   39 2
    17    9   10 2
    18    9   22 1
    19    9   39 1
    20   10   11 1
    21   10   32 1
    22   11   12 1
    23   12   17 ar
    24   12   13 ar
    25   13   14 ar
    26   13   33 1
    27   14   15 ar
    28   14   34 1
    29   15   16 ar
    30   15   18 1
    31   16   17 ar
    32   16   35 1
    33   17   36 1
    34   18   19 2
    35   18   20 2
    36   18   21 1
    37   21   37 1
    38   21   38 1
    39   22   23 1
    40   22   24 1
    41   22   25 1
    42   39   40 1
@<TRIPOS>MOLECULE
ZINC03814762
   38    40     0     0     0
SMALL
USER_CHARGES

@<TRIPOS>ATOM
      1 C1         -1.1345    2.0336   -1.2793 C.3       1 <0>        -0.6505
      2 S1         -0.0172    1.4168    0.0098 S.o2      1 <0>         2.4946
      3 O1          0.0021   -0.0041    0.0020 O.2       1 <0>        -0.9341
      4 O2          1.1953    2.1578    0.0022 O.2       1 <0>        -0.9328
      5 C2         -0.7978    1.8475    1.5296 C.ar      1 <0>        -0.6525
      6 C3         -0.5191    3.0637    2.1269 C.ar      1 <0>        -0.0194
      7 C4         -1.1317    3.4089    3.3143 C.ar      1 <0>        -0.1160
      8 C5         -2.0248    2.5245    3.9175 C.ar      1 <0>         0.0012
      9 C6         -2.2974    1.2977    3.3138 C.ar      1 <0>        -0.1247
     10 C7         -1.6827    0.9657    2.1238 C.ar      1 <0>        -0.0186
     11 C8         -2.6815    2.8868    5.1960 C.ar      1 <0>        -0.0268
     12 C9         -4.0617    2.7647    5.3325 C.ar      1 <0>        -0.1055
     13 C10        -4.6706    3.1033    6.5257 C.ar      1 <0>         0.0782
     14 C11        -3.9118    3.5663    7.5931 C.ar      1 <0>         0.0815
     15 C12        -2.5412    3.6928    7.4713 C.ar      1 <0>        -0.1087
     16 C13        -1.9139    3.3492    6.2767 C.ar      1 <0>        -0.0108
     17 C14        -0.4432    3.4773    6.1444 C.ar      1 <0>        -0.0566
     18 C15         0.1915    4.6627    6.5137 C.ar      1 <0>        -0.0696
     19 C16         1.5606    4.7778    6.3895 C.ar      1 <0>        -0.1385
     20 C17         2.3056    3.7180    5.8982 C.ar      1 <0>         0.1215
     21 C18         1.6795    2.5373    5.5291 C.ar      1 <0>        -0.0726
     22 C19         0.3103    2.4111    5.6558 C.ar      1 <0>        -0.0586
     23 Cl1         2.6189    1.2133    4.9142 Cl        1 <0>        -0.0365
     24 F1          3.6461    3.8356    5.7779 F         1 <0>        -0.1207
     25 F2         -4.5167    3.8949    8.7556 F         1 <0>        -0.1206
     26 F3         -6.0100    2.9832    6.6550 F         1 <0>        -0.1210
     27 H1         -2.1080    1.5544   -1.1761 H         1 <0>         0.1322
     28 H2         -1.2479    3.1127   -1.1759 H         1 <0>         0.1321
     29 H3         -0.7188    1.8043   -2.2605 H         1 <0>         0.1343
     30 H4          0.1763    3.7462    1.6609 H         1 <0>         0.1458
     31 H5         -0.9164    4.3604    3.7776 H         1 <0>         0.1352
     32 H6         -2.9881    0.6085    3.7768 H         1 <0>         0.1385
     33 H7         -1.8931    0.0157    1.6552 H         1 <0>         0.1473
     34 H8         -4.6564    2.4055    4.5056 H         1 <0>         0.1550
     35 H9         -1.9561    4.0536    8.3042 H         1 <0>         0.1559
     36 H10        -0.3880    5.4896    6.8969 H         1 <0>         0.1454
     37 H11         2.0525    5.6957    6.6755 H         1 <0>         0.1519
     38 H12        -0.1766    1.4897    5.3724 H         1 <0>         0.1446
@<TRIPOS>BOND
     1    1    2 1
     2    1   27 1
     3    1   28 1
     4    1   29 1
     5    2    3 2
     6    2    4 2
     7    2    5 1
     8    5   10 ar
     9    5    6 ar
    10    6    7 ar
    11    6   30 1
    12    7    8 ar
    13    7   31 1
    14    8    9 ar
    15    8   11 1
    16    9   10 ar
    17    9   32 1
    18   10   33 1
    19   11   16 ar
    20   11   12 ar
    21   12   13 ar
    22   12   34 1
    23   13   14 ar
    24   13   26 1
    25   14   15 ar
    26   14   25 1
    27   15   16 ar
    28   15   35 1
    29   16   17 1
    30   17   22 ar
    31   17   18 ar
    32   18   19 ar
    33   18   36 1
    34   19   20 ar
    35   19   37 1
    36   20   21 ar
    37   20   24 1
    38   21   22 ar
    39   21   23 1
    40   22   38 1
@<TRIPOS>MOLECULE
ZINC03814766
   37    39     0     0     0
SMALL
USER_CHARGES

@<TRIPOS>ATOM
      1 C1         -6.2634    3.8271   -0.6882 C.3       1 <0>        -0.6509
      2 S1         -4.9816    4.8754    0.0525 S.o2      1 <0>         2.4973
      3 O1         -5.2613    5.0919    1.4287 O.2       1 <0>        -0.9369
      4 O2         -4.6855    5.9675   -0.8071 O.2       1 <0>        -0.9362
      5 C2         -3.5240    3.8855    0.0401 C.ar      1 <0>        -0.6510
      6 C3         -2.6746    3.9248   -1.0524 C.ar      1 <0>        -0.0261
      7 C4         -1.5324    3.1538   -1.0705 C.ar      1 <0>        -0.0771
      8 C5         -1.2320    2.3288    0.0208 C.ar      1 <0>         0.0139
      9 C6         -2.0997    2.2912    1.1196 C.ar      1 <0>        -0.1175
     10 C7         -3.2347    3.0732    1.1233 C.ar      1 <0>        -0.0246
     11 C8         -0.0184    1.5039    0.0103 C.2       1 <0>         0.0349
     12 C9          1.2504    1.9864    0.0008 C.2       1 <0>        -0.1717
     13 C10         2.2365    0.9115   -0.0144 C.2       1 <0>         0.4022
     14 O3          3.4426    1.0472   -0.0252 O.2       1 <0>        -0.4362
     15 C11         1.4873   -0.4024   -0.0143 C.3       1 <0>        -0.1641
     16 C12         0.0021   -0.0041    0.0020 C.3       1 <0>        -0.1000
     17 C13         1.5917    3.4275    0.0053 C.ar      1 <0>         0.1725
     18 C14         2.9298    3.8214    0.0004 C.ar      1 <0>        -0.1430
     19 C15         3.2333    5.1708   -0.0006 C.ar      1 <0>        -0.0648
     20 C16         2.1877    6.0857    0.0143 C.ar      1 <0>        -0.0879
     21 C17         0.8831    5.6250    0.0243 C.ar      1 <0>         0.1179
     22 N1          0.6218    4.3336    0.0194 N.ar      1 <0>        -0.4554
     23 Cl1         2.5151    7.7906    0.0198 Cl        1 <0>        -0.0491
     24 H1         -6.3844    2.9238   -0.0902 H         1 <0>         0.1316
     25 H2         -7.2067    4.3725   -0.7175 H         1 <0>         0.1331
     26 H3         -5.9693    3.5550   -1.7019 H         1 <0>         0.1316
     27 H4         -2.9076    4.5618   -1.8929 H         1 <0>         0.1429
     28 H5         -0.8706    3.1859   -1.9234 H         1 <0>         0.1278
     29 H6         -1.8780    1.6544    1.9633 H         1 <0>         0.1333
     30 H7         -3.9026    3.0488    1.9716 H         1 <0>         0.1440
     31 H8          1.7465   -0.9339    0.7921 H         1 <0>         0.1033
     32 H9          1.7176   -0.9731   -0.9139 H         1 <0>         0.1150
     33 H10        -0.4815   -0.3917    0.8987 H         1 <0>         0.1060
     34 H11        -0.4985   -0.3821   -0.8894 H         1 <0>         0.1072
     35 H12         3.7179    3.0829   -0.0070 H         1 <0>         0.1615
     36 H13         4.2599    5.5058   -0.0089 H         1 <0>         0.1486
     37 H14         0.0680    6.3335    0.0358 H         1 <0>         0.1678
@<TRIPOS>BOND
     1    1    2 1
     2    1   24 1
     3    1   25 1
     4    1   26 1
     5    2    3 2
     6    2    4 2
     7    2    5 1
     8    5   10 ar
     9    5    6 ar
    10    6    7 ar
    11    6   27 1
    12    7    8 ar
    13    7   28 1
    14    8    9 ar
    15    8   11 1
    16    9   10 ar
    17    9   29 1
    18   10   30 1
    19   11   16 1
    20   11   12 2
    21   12   13 1
    22   12   17 1
    23   13   14 2
    24   13   15 1
    25   15   16 1
    26   15   31 1
    27   15   32 1
    28   16   33 1
    29   16   34 1
    30   17   22 ar
    31   17   18 ar
    32   18   19 ar
    33   18   35 1
    34   19   20 ar
    35   19   36 1
    36   20   21 ar
    37   20   23 1
    38   21   22 ar
    39   21   37 1
@<TRIPOS>MOLECULE
ZINC03814767
   40    41     0     0     0
SMALL
USER_CHARGES

@<TRIPOS>ATOM
      1 C1          7.1353    9.8380   -1.2842 C.3       1 <0>        -0.6501
      2 S1          7.5720    8.2942   -0.4376 S.o2      1 <0>         2.4994
      3 O1          7.7035    8.5221    0.9588 O.2       1 <0>        -0.9366
      4 O2          8.5879    7.6109   -1.1589 O.2       1 <0>        -0.9373
      5 C2          6.1449    7.2727   -0.5940 C.ar      1 <0>        -0.6591
      6 C3          6.0172    6.4306   -1.6846 C.ar      1 <0>        -0.0220
      7 C4          4.9033    5.6274   -1.8133 C.ar      1 <0>        -0.1295
      8 C5          3.9022    5.6659   -0.8392 C.ar      1 <0>         0.0125
      9 C6          4.0354    6.5230    0.2564 C.ar      1 <0>        -0.1133
     10 C7          5.1576    7.3162    0.3746 C.ar      1 <0>        -0.0224
     11 C8          2.7087    4.8111   -0.9698 C.2       1 <0>        -0.0634
     12 C9          2.5268    3.7793   -0.1302 C.2       1 <0>        -0.0537
     13 C10         3.6077    3.4076    0.8520 C.3       1 <0>         0.1117
     14 O3          3.1044    3.5319    2.1836 O.3       1 <0>        -0.5614
     15 C11         1.2703    3.0103   -0.1692 C.ar      1 <0>        -0.0272
     16 C12         1.2802    1.6699   -0.5649 C.ar      1 <0>        -0.0879
     17 C13         0.1019    0.9547   -0.6002 C.ar      1 <0>        -0.1225
     18 C14        -1.0926    1.5632   -0.2493 C.ar      1 <0>         0.0709
     19 C15        -1.1095    2.8925    0.1498 C.ar      1 <0>         0.0709
     20 C16         0.0645    3.6185    0.1889 C.ar      1 <0>        -0.1027
     21 F1         -2.2767    3.4782    0.4956 F         1 <0>        -0.1249
     22 F2         -2.2444    0.8584   -0.2909 F         1 <0>        -0.1258
     23 C17         1.6924    5.0952   -2.0457 C.3       1 <0>         0.1119
     24 O4          1.1917    6.4244   -1.8889 O.3       1 <0>        -0.5620
     25 H1          6.2656   10.2836   -0.8015 H         1 <0>         0.1321
     26 H2          7.9749   10.5311   -1.2319 H         1 <0>         0.1337
     27 H3          6.9031    9.6268   -2.3281 H         1 <0>         0.1316
     28 H4          6.7917    6.4019   -2.4367 H         1 <0>         0.1448
     29 H5          4.8053    4.9701   -2.6646 H         1 <0>         0.1342
     30 H6          3.2637    6.5610    1.0110 H         1 <0>         0.1368
     31 H7          5.2642    7.9756    1.2232 H         1 <0>         0.1451
     32 H8          3.9199    2.3782    0.6762 H         1 <0>         0.0624
     33 H9          4.4610    4.0733    0.7224 H         1 <0>         0.0636
     34 H10         3.7479    3.3079    2.8698 H         1 <0>         0.3856
     35 H11         2.2096    1.1949   -0.8424 H         1 <0>         0.1426
     36 H12         0.1093   -0.0809   -0.9063 H         1 <0>         0.1506
     37 H13         0.0505    4.6541    0.4952 H         1 <0>         0.1497
     38 H14         2.1623    4.9971   -3.0243 H         1 <0>         0.0625
     39 H15         0.8695    4.3850   -1.9648 H         1 <0>         0.0639
     40 H16         0.5314    6.6764   -2.5489 H         1 <0>         0.3852
@<TRIPOS>BOND
     1    1    2 1
     2    1   25 1
     3    1   26 1
     4    1   27 1
     5    2    3 2
     6    2    4 2
     7    2    5 1
     8    5   10 ar
     9    5    6 ar
    10    6    7 ar
    11    6   28 1
    12    7    8 ar
    13    7   29 1
    14    8    9 ar
    15    8   11 1
    16    9   10 ar
    17    9   30 1
    18   10   31 1
    19   11   12 2
    20   11   23 1
    21   12   13 1
    22   12   15 1
    23   13   14 1
    24   13   32 1
    25   13   33 1
    26   14   34 1
    27   15   20 ar
    28   15   16 ar
    29   16   17 ar
    30   16   35 1
    31   17   18 ar
    32   17   36 1
    33   18   19 ar
    34   18   22 1
    35   19   20 ar
    36   19   21 1
    37   20   37 1
    38   23   24 1
    39   23   38 1
    40   23   39 1
    41   24   40 1
@<TRIPOS>MOLECULE
ZINC03814768
   41    42     0     0     0
SMALL
USER_CHARGES

@<TRIPOS>ATOM
      1 C1          1.7992    4.8119   -2.2400 C.3       1 <0>        -0.1248
      2 C2          2.7399    4.7206   -1.0662 C.2       1 <0>         0.0207
      3 C3          2.4228    3.9376    0.0006 C.2       1 <0>        -0.1159
      4 C4          1.1531    3.1752    0.0081 C.ar      1 <0>        -0.0457
      5 C5          1.1737    1.7805    0.0004 C.ar      1 <0>        -0.0914
      6 C6         -0.0126    1.0758    0.0080 C.ar      1 <0>        -0.1176
      7 C7         -1.2208    1.7498    0.0174 C.ar      1 <0>        -0.1120
      8 C8         -1.2477    3.1330    0.0308 C.ar      1 <0>        -0.1192
      9 C9         -0.0683    3.8489    0.0234 C.ar      1 <0>        -0.1010
     10 C10         3.3405    3.8486    1.1457 C.2       1 <0>         0.4983
     11 O1          4.3827    4.4744    1.1395 O.2       1 <0>        -0.4902
     12 O2          3.0263    3.0728    2.2027 O.3       1 <0>        -0.3485
     13 C11         3.9793    3.0327    3.2975 C.3       1 <0>         0.0361
     14 C12         3.9992    5.4768   -1.0737 C.ar      1 <0>        -0.0022
     15 C13         4.2084    6.5048   -0.1469 C.ar      1 <0>        -0.0789
     16 C14         5.3950    7.2063   -0.1577 C.ar      1 <0>        -0.0255
     17 C15         6.3740    6.9037   -1.0884 C.ar      1 <0>        -0.6526
     18 C16         6.1731    5.8922   -2.0118 C.ar      1 <0>        -0.0250
     19 C17         4.9944    5.1773   -2.0114 C.ar      1 <0>        -0.1221
     20 S1          7.8845    7.8108   -1.0974 S.o2      1 <0>         2.4987
     21 O3          8.0365    8.2752    0.2369 O.2       1 <0>        -0.9371
     22 O4          8.8366    6.9240   -1.6687 O.2       1 <0>        -0.9378
     23 C18         7.5828    9.2077   -2.2146 C.3       1 <0>        -0.6507
     24 H1          1.0969    5.6300   -2.0800 H         1 <0>         0.0901
     25 H2          2.3704    4.9960   -3.1499 H         1 <0>         0.0804
     26 H3          1.2498    3.8757   -2.3390 H         1 <0>         0.0846
     27 H4          2.1162    1.2533   -0.0118 H         1 <0>         0.1215
     28 H5          0.0021   -0.0041    0.0020 H         1 <0>         0.1255
     29 H6         -2.1467    1.1938    0.0184 H         1 <0>         0.1239
     30 H7         -2.1940    3.6534    0.0423 H         1 <0>         0.1255
     31 H8         -0.0906    4.9286    0.0290 H         1 <0>         0.1225
     32 H9          3.6053    2.3735    4.0809 H         1 <0>         0.1029
     33 H10         4.9357    2.6578    2.9331 H         1 <0>         0.0640
     34 H11         4.1122    4.0368    3.7004 H         1 <0>         0.0641
     35 H12         3.4438    6.7451    0.5770 H         1 <0>         0.1254
     36 H13         5.5595    7.9972    0.5591 H         1 <0>         0.1416
     37 H14         6.9421    5.6621   -2.7344 H         1 <0>         0.1434
     38 H15         4.8394    4.3882   -2.7323 H         1 <0>         0.1331
     39 H16         6.7554    9.8060   -1.8329 H         1 <0>         0.1313
     40 H17         8.4794    9.8245   -2.2755 H         1 <0>         0.1329
     41 H18         7.3322    8.8320   -3.2066 H         1 <0>         0.1314
@<TRIPOS>BOND
     1    1    2 1
     2    1   24 1
     3    1   25 1
     4    1   26 1
     5    2    3 2
     6    2   14 1
     7    3    4 1
     8    3   10 1
     9    4    9 ar
    10    4    5 ar
    11    5    6 ar
    12    5   27 1
    13    6    7 ar
    14    6   28 1
    15    7    8 ar
    16    7   29 1
    17    8    9 ar
    18    8   30 1
    19    9   31 1
    20   10   11 2
    21   10   12 1
    22   12   13 1
    23   13   32 1
    24   13   33 1
    25   13   34 1
    26   14   19 ar
    27   14   15 ar
    28   15   16 ar
    29   15   35 1
    30   16   17 ar
    31   16   36 1
    32   17   18 ar
    33   17   20 1
    34   18   19 ar
    35   18   37 1
    36   19   38 1
    37   20   21 2
    38   20   22 2
    39   20   23 1
    40   23   39 1
    41   23   40 1
    42   23   41 1
@<TRIPOS>MOLECULE
ZINC03814769
   45    46     0     0     0
SMALL
USER_CHARGES

@<TRIPOS>ATOM
      1 C1          1.7157    4.6699   -2.2317 C.3       1 <0>        -0.1162
      2 C2          2.6193    4.7076   -1.0262 C.2       1 <0>        -0.0429
      3 C3          2.3910    3.8708    0.0212 C.2       1 <0>        -0.1031
      4 C4          1.2545    2.9225   -0.0229 C.ar      1 <0>        -0.0432
      5 C5          1.4904    1.5494   -0.0942 C.ar      1 <0>        -0.1044
      6 C6          0.4273    0.6709   -0.1345 C.ar      1 <0>        -0.1174
      7 C7         -0.8706    1.1494   -0.1098 C.ar      1 <0>        -0.1119
      8 C8         -1.1111    2.5098   -0.0339 C.ar      1 <0>        -0.1175
      9 C9         -0.0565    3.3984    0.0071 C.ar      1 <0>        -0.0941
     10 C10         3.2734    3.9077    1.1985 C.2       1 <0>         0.5630
     11 O1          2.9211    4.4937    2.2045 O.2       1 <0>        -0.5254
     12 N1          4.4718    3.2921    1.1620 N.am      1 <0>        -0.6116
     13 C11         5.3001    3.2292    2.3687 C.3       1 <0>         0.0824
     14 C12         4.9462    2.6858   -0.0844 C.3       1 <0>         0.0702
     15 C13         3.7469    5.6485   -0.9824 C.ar      1 <0>        -0.0076
     16 C14         3.7639    6.6831   -0.0399 C.ar      1 <0>        -0.1172
     17 C15         4.8287    7.5579   -0.0015 C.ar      1 <0>        -0.0186
     18 C16         5.8731    7.4227   -0.8999 C.ar      1 <0>        -0.6564
     19 C17         5.8613    6.4058   -1.8389 C.ar      1 <0>        -0.0231
     20 C18         4.8071    5.5187   -1.8868 C.ar      1 <0>        -0.1232
     21 S1          7.2254    8.5511   -0.8473 S.o2      1 <0>         2.4979
     22 O2          7.2594    9.0140    0.4957 O.2       1 <0>        -0.9354
     23 O3          8.3212    7.8294   -1.3928 O.2       1 <0>        -0.9364
     24 C19         6.7496    9.9011   -1.9617 C.3       1 <0>        -0.6499
     25 H1          0.8909    5.3681   -2.0895 H         1 <0>         0.0813
     26 H2          2.2820    4.9524   -3.1191 H         1 <0>         0.0740
     27 H3          1.3208    3.6619   -2.3583 H         1 <0>         0.0787
     28 H4          2.5031    1.1749   -0.1181 H         1 <0>         0.1214
     29 H5          0.6087   -0.3923   -0.1901 H         1 <0>         0.1262
     30 H6         -1.6994    0.4580   -0.1457 H         1 <0>         0.1250
     31 H7         -2.1265    2.8770   -0.0107 H         1 <0>         0.1270
     32 H8         -0.2455    4.4604    0.0618 H         1 <0>         0.1249
     33 H9          5.0577    2.3263    2.9292 H         1 <0>         0.0581
     34 H10         6.3527    3.2100    2.0863 H         1 <0>         0.0727
     35 H11         5.1062    4.1046    2.9886 H         1 <0>         0.0795
     36 H12         4.1762    2.7797   -0.8502 H         1 <0>         0.0799
     37 H13         5.8513    3.1955   -0.4149 H         1 <0>         0.0649
     38 H14         5.1641    1.6313    0.0844 H         1 <0>         0.0662
     39 H15         2.9473    6.7930    0.6584 H         1 <0>         0.1368
     40 H16         4.8455    8.3540    0.7281 H         1 <0>         0.1450
     41 H17         6.6804    6.3068   -2.5358 H         1 <0>         0.1458
     42 H18         4.7996    4.7256   -2.6198 H         1 <0>         0.1367
     43 H19         5.8277   10.3596   -1.6039 H         1 <0>         0.1320
     44 H20         7.5421   10.6491   -1.9853 H         1 <0>         0.1341
     45 H21         6.5931    9.5057   -2.9653 H         1 <0>         0.1319
@<TRIPOS>BOND
     1    1    2 1
     2    1   25 1
     3    1   26 1
     4    1   27 1
     5    2    3 2
     6    2   15 1
     7    3    4 1
     8    3   10 1
     9    4    9 ar
    10    4    5 ar
    11    5    6 ar
    12    5   28 1
    13    6    7 ar
    14    6   29 1
    15    7    8 ar
    16    7   30 1
    17    8    9 ar
    18    8   31 1
    19    9   32 1
    20   10   11 2
    21   10   12 am
    22   12   13 1
    23   12   14 1
    24   13   33 1
    25   13   34 1
    26   13   35 1
    27   14   36 1
    28   14   37 1
    29   14   38 1
    30   15   20 ar
    31   15   16 ar
    32   16   17 ar
    33   16   39 1
    34   17   18 ar
    35   17   40 1
    36   18   19 ar
    37   18   21 1
    38   19   20 ar
    39   19   41 1
    40   20   42 1
    41   21   22 2
    42   21   23 2
    43   21   24 1
    44   24   43 1
    45   24   44 1
    46   24   45 1
@<TRIPOS>MOLECULE
ZINC03814770
   48    49     0     0     0
SMALL
USER_CHARGES

@<TRIPOS>ATOM
      1 C1         -0.7089   -3.4736   -5.3477 C.3       1 <0>        -0.1530
      2 C2         -0.1085   -2.6413   -4.2130 C.3       1 <0>         0.0624
      3 O1         -1.1118   -2.3841   -3.2285 O.3       1 <0>        -0.3465
      4 C3         -0.7428   -1.6563   -2.1530 C.2       1 <0>         0.5004
      5 O2          0.4008   -1.2515   -2.0554 O.2       1 <0>        -0.4863
      6 C4         -1.6839   -1.3645   -1.1412 C.2       1 <0>        -0.1365
      7 C5         -1.3111   -0.6290   -0.0545 C.2       1 <0>         0.0596
      8 C6          0.1078   -0.2684    0.1418 C.ar      1 <0>        -0.0607
      9 C7          0.5039    1.0706    0.0950 C.ar      1 <0>        -0.0701
     10 C8          1.8292    1.4014    0.2792 C.ar      1 <0>        -0.1518
     11 C9          2.7686    0.4082    0.5111 C.ar      1 <0>         0.1092
     12 C10         2.3813   -0.9225    0.5581 C.ar      1 <0>        -0.1492
     13 C11         1.0588   -1.2649    0.3753 C.ar      1 <0>        -0.0396
     14 F1          4.0662    0.7381    0.6914 F         1 <0>        -0.1379
     15 C12        -2.3270   -0.1930    0.9267 C.ar      1 <0>        -0.0040
     16 C13        -2.6557    1.1593    1.0421 C.ar      1 <0>        -0.1202
     17 C14        -3.6091    1.5585    1.9555 C.ar      1 <0>        -0.0175
     18 C15        -4.2308    0.6238    2.7647 C.ar      1 <0>        -0.6536
     19 C16        -3.9054   -0.7171    2.6599 C.ar      1 <0>        -0.0170
     20 C17        -2.9583   -1.1309    1.7465 C.ar      1 <0>        -0.1187
     21 S1         -5.4426    1.1434    3.9335 S.o2      1 <0>         2.4982
     22 O3         -5.9707    2.3485    3.3968 O.2       1 <0>        -0.9348
     23 O4         -6.2758    0.0077    4.1211 O.2       1 <0>        -0.9336
     24 C18        -4.5092    1.4908    5.4496 C.3       1 <0>        -0.6501
     25 C19        -3.1000   -1.8657   -1.2620 C.3       1 <0>        -0.0864
     26 C20        -3.9329   -0.8549   -2.0529 C.3       1 <0>         0.0841
     27 O5         -5.2441   -1.3815   -2.2664 O.3       1 <0>        -0.5699
     28 H1          0.0564   -3.6698   -6.0987 H         1 <0>         0.0807
     29 H2         -1.0776   -4.4188   -4.9492 H         1 <0>         0.0675
     30 H3         -1.5332   -2.9253   -5.8036 H         1 <0>         0.0669
     31 H4          0.2602   -1.6961   -4.6115 H         1 <0>         0.0678
     32 H5          0.7159   -3.1896   -3.7571 H         1 <0>         0.0684
     33 H6         -0.2263    1.8447   -0.0896 H         1 <0>         0.1310
     34 H7          2.1365    2.4361    0.2432 H         1 <0>         0.1384
     35 H8          3.1173   -1.6919    0.7387 H         1 <0>         0.1376
     36 H9          0.7582   -2.3015    0.4128 H         1 <0>         0.1272
     37 H10        -2.1680    1.8903    0.4143 H         1 <0>         0.1369
     38 H11        -3.8677    2.6034    2.0424 H         1 <0>         0.1488
     39 H12        -4.3944   -1.4414    3.2945 H         1 <0>         0.1494
     40 H13        -2.7058   -2.1778    1.6652 H         1 <0>         0.1400
     41 H14        -3.7763    2.2735    5.2538 H         1 <0>         0.1322
     42 H15        -5.1943    1.8216    6.2302 H         1 <0>         0.1347
     43 H16        -3.9963    0.5861    5.7758 H         1 <0>         0.1324
     44 H17        -3.1031   -2.8242   -1.7809 H         1 <0>         0.0968
     45 H18        -3.5277   -1.9897   -0.2671 H         1 <0>         0.0902
     46 H19        -4.0026    0.0769   -1.4916 H         1 <0>         0.0451
     47 H20        -3.4566   -0.6649   -3.0147 H         1 <0>         0.0482
     48 H21        -5.8285   -0.7923   -2.7628 H         1 <0>         0.3836
@<TRIPOS>BOND
     1    1    2 1
     2    1   28 1
     3    1   29 1
     4    1   30 1
     5    2    3 1
     6    2   31 1
     7    2   32 1
     8    3    4 1
     9    4    5 2
    10    4    6 1
    11    6    7 2
    12    6   25 1
    13    7    8 1
    14    7   15 1
    15    8   13 ar
    16    8    9 ar
    17    9   10 ar
    18    9   33 1
    19   10   11 ar
    20   10   34 1
    21   11   12 ar
    22   11   14 1
    23   12   13 ar
    24   12   35 1
    25   13   36 1
    26   15   20 ar
    27   15   16 ar
    28   16   17 ar
    29   16   37 1
    30   17   18 ar
    31   17   38 1
    32   18   19 ar
    33   18   21 1
    34   19   20 ar
    35   19   39 1
    36   20   40 1
    37   21   22 2
    38   21   23 2
    39   21   24 1
    40   24   41 1
    41   24   42 1
    42   24   43 1
    43   25   26 1
    44   25   44 1
    45   25   45 1
    46   26   27 1
    47   26   46 1
    48   26   47 1
    49   27   48 1
@<TRIPOS>MOLECULE
ZINC03814771
   45    47     0     0     0
SMALL
USER_CHARGES

@<TRIPOS>ATOM
      1 C1         -0.9617    3.3683    2.0075 C.3       1 <0>        -0.1652
      2 C2         -0.8242    3.2805    0.4862 C.3       1 <0>         0.1038
      3 C3          0.6514    3.4620    0.0598 C.3       1 <0>        -0.1148
      4 C4          1.1442    2.0250    0.0020 C.2       1 <0>        -0.2056
      5 C5          2.4408    1.6039   -0.0465 C.2       1 <0>         0.0744
      6 C6          2.7468    0.1597   -0.0989 C.ar      1 <0>        -0.0809
      7 C7          2.4280   -0.6643    0.9834 C.ar      1 <0>        -0.0393
      8 C8          2.7110   -2.0121    0.9268 C.ar      1 <0>        -0.1501
      9 C9          3.3210   -2.5485   -0.1970 C.ar      1 <0>         0.1143
     10 C10         3.6445   -1.7345   -1.2719 C.ar      1 <0>        -0.1547
     11 C11         3.3614   -0.3863   -1.2286 C.ar      1 <0>        -0.0635
     12 F1          3.6017   -3.8692   -0.2446 F         1 <0>        -0.1358
     13 C12         3.5395    2.5927   -0.0467 C.ar      1 <0>        -0.0073
     14 C13         3.6931    3.4703   -1.1220 C.ar      1 <0>        -0.1191
     15 C14         4.7183    4.3931   -1.1139 C.ar      1 <0>        -0.0198
     16 C15         5.5989    4.4443   -0.0476 C.ar      1 <0>        -0.6532
     17 C16         5.4554    3.5744    1.0190 C.ar      1 <0>        -0.0191
     18 C17         4.4321    2.6495    1.0258 C.ar      1 <0>        -0.1137
     19 S1          6.9093    5.6222   -0.0484 S.o2      1 <0>         2.4982
     20 O1          6.4418    6.6842   -0.8686 O.2       1 <0>        -0.9346
     21 O2          7.2003    5.8418    1.3251 O.2       1 <0>        -0.9345
     22 C18         8.2969    4.7753   -0.8534 C.3       1 <0>        -0.6498
     23 C19        -0.0144    1.2129    0.0087 C.2       1 <0>         0.5106
     24 O3          0.0021   -0.0041    0.0020 O.2       1 <0>        -0.4425
     25 O4         -1.1380    1.9557    0.0176 O.3       1 <0>        -0.3261
     26 C20        -1.7155    4.3203   -0.1959 C.3       1 <0>        -0.1451
     27 H1         -0.6139    4.3435    2.3481 H         1 <0>         0.0829
     28 H2         -2.0075    3.2380    2.2858 H         1 <0>         0.0756
     29 H3         -0.3619    2.5858    2.4723 H         1 <0>         0.0622
     30 H4          1.2044    4.0333    0.8054 H         1 <0>         0.1035
     31 H5          0.7180    3.9359   -0.9195 H         1 <0>         0.1047
     32 H6          1.9572   -0.2467    1.8611 H         1 <0>         0.1298
     33 H7          2.4613   -2.6507    1.7611 H         1 <0>         0.1402
     34 H8          4.1196   -2.1577   -2.1447 H         1 <0>         0.1403
     35 H9          3.6144    0.2469   -2.0661 H         1 <0>         0.1334
     36 H10         3.0090    3.4286   -1.9566 H         1 <0>         0.1376
     37 H11         4.8364    5.0745   -1.9434 H         1 <0>         0.1486
     38 H12         6.1464    3.6195    1.8477 H         1 <0>         0.1485
     39 H13         4.3216    1.9707    1.8585 H         1 <0>         0.1377
     40 H14         8.0105    4.4901   -1.8657 H         1 <0>         0.1323
     41 H15         9.1566    5.4441   -0.8938 H         1 <0>         0.1350
     42 H16         8.5573    3.8828   -0.2844 H         1 <0>         0.1324
     43 H17        -1.6446    4.2061   -1.2776 H         1 <0>         0.0706
     44 H18        -2.7491    4.1748    0.1178 H         1 <0>         0.0740
     45 H19        -1.3877    5.3209    0.0860 H         1 <0>         0.0839
@<TRIPOS>BOND
     1    1    2 1
     2    1   27 1
     3    1   28 1
     4    1   29 1
     5    2   25 1
     6    2    3 1
     7    2   26 1
     8    3    4 1
     9    3   30 1
    10    3   31 1
    11    4    5 2
    12    4   23 1
    13    5    6 1
    14    5   13 1
    15    6   11 ar
    16    6    7 ar
    17    7    8 ar
    18    7   32 1
    19    8    9 ar
    20    8   33 1
    21    9   10 ar
    22    9   12 1
    23   10   11 ar
    24   10   34 1
    25   11   35 1
    26   13   18 ar
    27   13   14 ar
    28   14   15 ar
    29   14   36 1
    30   15   16 ar
    31   15   37 1
    32   16   17 ar
    33   16   19 1
    34   17   18 ar
    35   17   38 1
    36   18   39 1
    37   19   20 2
    38   19   21 2
    39   19   22 1
    40   22   40 1
    41   22   41 1
    42   22   42 1
    43   23   24 2
    44   23   25 1
    45   26   43 1
    46   26   44 1
    47   26   45 1
@<TRIPOS>MOLECULE
ZINC03814772
   40    42     0     0     0
SMALL
USER_CHARGES

@<TRIPOS>ATOM
      1 C1          2.5710   -7.2651   -0.6348 C.3       1 <0>        -0.6504
      2 S1          1.3111   -6.4634   -1.6646 S.o2      1 <0>         2.4990
      3 O1          0.0226   -6.9698   -1.3445 O.2       1 <0>        -0.9366
      4 O2          1.7499   -6.4005   -3.0147 O.2       1 <0>        -0.9368
      5 C2          1.2828   -4.7871   -1.1226 C.ar      1 <0>        -0.6580
      6 C3          2.1107   -3.8550   -1.7219 C.ar      1 <0>        -0.0225
      7 C4          2.0933   -2.5408   -1.3008 C.ar      1 <0>        -0.1269
      8 C5          1.2392   -2.1535   -0.2700 C.ar      1 <0>         0.0159
      9 C6          0.4108   -3.0977    0.3334 C.ar      1 <0>        -0.1114
     10 C7          0.4330   -4.4082   -0.0990 C.ar      1 <0>        -0.0221
     11 C8          1.2164   -0.7425    0.1873 C.ar      1 <0>        -0.0904
     12 C9          2.4042   -0.0911    0.4951 C.ar      1 <0>        -0.0153
     13 C10         2.3756    1.2363    0.9243 C.ar      1 <0>        -0.0593
     14 C11         1.1531    1.9052    1.0429 C.ar      1 <0>        -0.0208
     15 C12        -0.0231    1.2568    0.7370 C.ar      1 <0>        -0.1947
     16 C13        -0.0023   -0.0639    0.3094 C.ar      1 <0>         0.1732
     17 O3         -1.1640   -0.6978    0.0099 O.3       1 <0>        -0.2437
     18 C14        -2.3222    0.0026    0.1298 C.ar      1 <0>         0.0699
     19 C15        -3.0160   -0.0021    1.3315 C.ar      1 <0>        -0.1215
     20 C16        -4.1907    0.7147    1.4521 C.ar      1 <0>        -0.1056
     21 C17        -4.6807    1.4279    0.3736 C.ar      1 <0>        -0.1110
     22 C18        -3.9940    1.4300   -0.8266 C.ar      1 <0>        -0.1052
     23 C19        -2.8161    0.7192   -0.9510 C.ar      1 <0>        -0.1211
     24 C20         3.5967    1.9129    1.2429 C.1       1 <0>         0.2527
     25 N1          4.5654    2.4497    1.4957 N.1       1 <0>        -0.4096
     26 H1          2.2872   -7.1854    0.4145 H         1 <0>         0.1317
     27 H2          2.6507   -8.3165   -0.9108 H         1 <0>         0.1334
     28 H3          3.5323   -6.7750   -0.7894 H         1 <0>         0.1317
     29 H4          2.7722   -4.1564   -2.5207 H         1 <0>         0.1451
     30 H5          2.7407   -1.8141   -1.7689 H         1 <0>         0.1362
     31 H6         -0.2501   -2.8038    1.1355 H         1 <0>         0.1346
     32 H7         -0.2113   -5.1400    0.3654 H         1 <0>         0.1445
     33 H8          3.3466   -0.6102    0.4021 H         1 <0>         0.1461
     34 H9          1.1313    2.9326    1.3752 H         1 <0>         0.1414
     35 H10        -0.9644    1.7789    0.8259 H         1 <0>         0.1443
     36 H11        -2.6360   -0.5625    2.1728 H         1 <0>         0.1330
     37 H12        -4.7290    0.7147    2.3884 H         1 <0>         0.1333
     38 H13        -5.6016    1.9840    0.4686 H         1 <0>         0.1308
     39 H14        -4.3787    1.9881   -1.6673 H         1 <0>         0.1332
     40 H15        -2.2803    0.7208   -1.8887 H         1 <0>         0.1328
@<TRIPOS>BOND
     1    1    2 1
     2    1   26 1
     3    1   27 1
     4    1   28 1
     5    2    3 2
     6    2    4 2
     7    2    5 1
     8    5   10 ar
     9    5    6 ar
    10    6    7 ar
    11    6   29 1
    12    7    8 ar
    13    7   30 1
    14    8    9 ar
    15    8   11 1
    16    9   10 ar
    17    9   31 1
    18   10   32 1
    19   11   16 ar
    20   11   12 ar
    21   12   13 ar
    22   12   33 1
    23   13   14 ar
    24   13   24 1
    25   14   15 ar
    26   14   34 1
    27   15   16 ar
    28   15   35 1
    29   16   17 1
    30   17   18 1
    31   18   23 ar
    32   18   19 ar
    33   19   20 ar
    34   19   36 1
    35   20   21 ar
    36   20   37 1
    37   21   22 ar
    38   21   38 1
    39   22   23 ar
    40   22   39 1
    41   23   40 1
    42   24   25 3
@<TRIPOS>MOLECULE
ZINC03814773
   38    40     0     0     0
SMALL
USER_CHARGES

@<TRIPOS>ATOM
      1 C1         -2.3267    1.8461   -1.0938 C.3       1 <0>        -0.6493
      2 S1         -1.0153    1.2905    0.0297 S.o2      1 <0>         2.4973
      3 O1         -0.9965   -0.1288    0.0961 O.2       1 <0>        -0.9336
      4 O2          0.1795    2.0201   -0.2139 O.2       1 <0>        -0.9340
      5 C2         -1.5402    1.8086    1.6299 C.ar      1 <0>        -0.6492
      6 C3         -1.0970    3.0142    2.1435 C.ar      1 <0>        -0.0196
      7 C4         -1.5091    3.4280    3.3937 C.ar      1 <0>        -0.1035
      8 C5         -2.3651    2.6227    4.1445 C.ar      1 <0>        -0.0093
      9 C6         -2.8040    1.4057    3.6236 C.ar      1 <0>        -0.1147
     10 C7         -2.3894    1.0054    2.3699 C.ar      1 <0>        -0.0214
     11 C8         -2.8069    3.0585    5.4898 C.2       1 <0>        -0.0325
     12 C9         -4.1634    3.3668    5.7298 C.2       1 <0>         0.1008
     13 N1         -4.5563    3.7499    6.9126 N.2       1 <0>        -0.2016
     14 N2         -3.6532    3.8673    7.9737 N.am      1 <0>        -0.5083
     15 H1         -3.9795    4.1632    8.8714 H         1 <0>         0.4511
     16 C10        -2.3471    3.5854    7.7978 C.2       1 <0>         0.4884
     17 O3         -1.5642    3.6897    8.7289 O.2       1 <0>        -0.5074
     18 C11        -1.8922    3.1623    6.5288 C.2       1 <0>         0.0560
     19 O4         -0.5823    2.8671    6.3277 O.3       1 <0>        -0.2205
     20 C12        -0.0704    1.7762    6.9561 C.ar      1 <0>         0.1114
     21 C13        -0.9031    0.9420    7.6882 C.ar      1 <0>        -0.1534
     22 C14        -0.3823   -0.1696    8.3216 C.ar      1 <0>        -0.1136
     23 C15         0.9720   -0.4453    8.2357 C.ar      1 <0>         0.0756
     24 C16         1.8052    0.3894    7.5103 C.ar      1 <0>        -0.1132
     25 C17         1.2864    1.4986    6.8710 C.ar      1 <0>        -0.1047
     26 F1          1.4807   -1.5300    8.8600 F         1 <0>        -0.1356
     27 H2         -3.2704    1.3811   -0.8088 H         1 <0>         0.1324
     28 H3         -2.4226    2.9302   -1.0322 H         1 <0>         0.1327
     29 H4         -2.0750    1.5611   -2.1153 H         1 <0>         0.1348
     30 H5         -0.4303    3.6348    1.5631 H         1 <0>         0.1506
     31 H6         -1.1657    4.3713    3.7920 H         1 <0>         0.1380
     32 H7         -3.4672    0.7780    4.2003 H         1 <0>         0.1390
     33 H8         -2.7289    0.0633    1.9653 H         1 <0>         0.1482
     34 H9         -4.8816    3.2844    4.9273 H         1 <0>         0.2066
     35 H10        -1.9587    1.1592    7.7590 H         1 <0>         0.1245
     36 H11        -1.0309   -0.8216    8.8878 H         1 <0>         0.1417
     37 H12         2.8612    0.1729    7.4439 H         1 <0>         0.1493
     38 H13         1.9365    2.1493    6.3050 H         1 <0>         0.1470
@<TRIPOS>BOND
     1    1    2 1
     2    1   27 1
     3    1   28 1
     4    1   29 1
     5    2    3 2
     6    2    4 2
     7    2    5 1
     8    5   10 ar
     9    5    6 ar
    10    6    7 ar
    11    6   30 1
    12    7    8 ar
    13    7   31 1
    14    8    9 ar
    15    8   11 1
    16    9   10 ar
    17    9   32 1
    18   10   33 1
    19   11   18 2
    20   11   12 1
    21   12   13 2
    22   12   34 1
    23   13   14 1
    24   14   15 1
    25   14   16 am
    26   16   17 2
    27   16   18 1
    28   18   19 1
    29   19   20 1
    30   20   25 ar
    31   20   21 ar
    32   21   22 ar
    33   21   35 1
    34   22   23 ar
    35   22   36 1
    36   23   24 ar
    37   23   26 1
    38   24   25 ar
    39   24   37 1
    40   25   38 1
@<TRIPOS>MOLECULE
ZINC03814773
   38    40     0     0     0
SMALL
USER_CHARGES

@<TRIPOS>ATOM
      1 C1         -2.3267    1.8461   -1.0938 C.3       1 <0>        -0.6493
      2 S1         -1.0153    1.2905    0.0297 S.o2      1 <0>         2.4973
      3 O1         -0.9965   -0.1288    0.0961 O.2       1 <0>        -0.9336
      4 O2          0.1795    2.0201   -0.2139 O.2       1 <0>        -0.9340
      5 C2         -1.5402    1.8086    1.6299 C.ar      1 <0>        -0.6492
      6 C3         -1.0970    3.0142    2.1435 C.ar      1 <0>        -0.0196
      7 C4         -1.5091    3.4280    3.3937 C.ar      1 <0>        -0.1035
      8 C5         -2.3651    2.6227    4.1445 C.ar      1 <0>        -0.0093
      9 C6         -2.8040    1.4057    3.6236 C.ar      1 <0>        -0.1147
     10 C7         -2.3894    1.0054    2.3699 C.ar      1 <0>        -0.0214
     11 C8         -2.8069    3.0585    5.4898 C.2       1 <0>        -0.0325
     12 C9         -4.1634    3.3668    5.7298 C.2       1 <0>         0.1008
     13 N1         -4.5563    3.7499    6.9126 N.2       1 <0>        -0.2016
     14 N2         -3.6532    3.8673    7.9737 N.am      1 <0>        -0.5083
     15 H1         -3.9795    4.1632    8.8714 H         1 <0>         0.4511
     16 C10        -2.3471    3.5854    7.7978 C.2       1 <0>         0.4884
     17 O3         -1.5642    3.6897    8.7289 O.2       1 <0>        -0.5074
     18 C11        -1.8922    3.1623    6.5288 C.2       1 <0>         0.0560
     19 O4         -0.5823    2.8671    6.3277 O.3       1 <0>        -0.2205
     20 C12        -0.0704    1.7762    6.9561 C.ar      1 <0>         0.1114
     21 C13        -0.9031    0.9420    7.6882 C.ar      1 <0>        -0.1534
     22 C14        -0.3823   -0.1696    8.3216 C.ar      1 <0>        -0.1136
     23 C15         0.9720   -0.4453    8.2357 C.ar      1 <0>         0.0756
     24 C16         1.8052    0.3894    7.5103 C.ar      1 <0>        -0.1132
     25 C17         1.2864    1.4986    6.8710 C.ar      1 <0>        -0.1047
     26 F1          1.4807   -1.5300    8.8600 F         1 <0>        -0.1356
     27 H2         -3.2704    1.3811   -0.8088 H         1 <0>         0.1324
     28 H3         -2.4226    2.9302   -1.0322 H         1 <0>         0.1327
     29 H4         -2.0750    1.5611   -2.1153 H         1 <0>         0.1348
     30 H5         -0.4303    3.6348    1.5631 H         1 <0>         0.1506
     31 H6         -1.1657    4.3713    3.7920 H         1 <0>         0.1380
     32 H7         -3.4672    0.7780    4.2003 H         1 <0>         0.1390
     33 H8         -2.7289    0.0633    1.9653 H         1 <0>         0.1482
     34 H9         -4.8816    3.2844    4.9273 H         1 <0>         0.2066
     35 H10        -1.9587    1.1592    7.7590 H         1 <0>         0.1245
     36 H11        -1.0309   -0.8216    8.8878 H         1 <0>         0.1417
     37 H12         2.8612    0.1729    7.4439 H         1 <0>         0.1493
     38 H13         1.9365    2.1493    6.3050 H         1 <0>         0.1470
@<TRIPOS>BOND
     1    1    2 1
     2    1   27 1
     3    1   28 1
     4    1   29 1
     5    2    3 2
     6    2    4 2
     7    2    5 1
     8    5   10 ar
     9    5    6 ar
    10    6    7 ar
    11    6   30 1
    12    7    8 ar
    13    7   31 1
    14    8    9 ar
    15    8   11 1
    16    9   10 ar
    17    9   32 1
    18   10   33 1
    19   11   18 2
    20   11   12 1
    21   12   13 2
    22   12   34 1
    23   13   14 1
    24   14   15 1
    25   14   16 am
    26   16   17 2
    27   16   18 1
    28   18   19 1
    29   19   20 1
    30   20   25 ar
    31   20   21 ar
    32   21   22 ar
    33   21   35 1
    34   22   23 ar
    35   22   36 1
    36   23   24 ar
    37   23   26 1
    38   24   25 ar
    39   24   37 1
    40   25   38 1
@<TRIPOS>MOLECULE
ZINC03814774
   45    47     0     0     0
SMALL
USER_CHARGES

@<TRIPOS>ATOM
      1 C1          5.7022    0.9899    3.2890 C.3       1 <0>         0.0610
      2 N1          5.2864    0.8145    1.8952 N.am      1 <0>        -0.4771
      3 C2          3.9768    0.8190    1.5770 C.2       1 <0>         0.5478
      4 O1          3.1424    0.9683    2.4445 O.2       1 <0>        -0.5135
      5 C3          3.5491    0.6386    0.1433 C.3       1 <0>        -0.0361
      6 C4          2.0451    0.6821    0.0584 C.2       1 <0>         0.2229
      7 N2          1.3350    1.7568   -0.1274 N.2       1 <0>        -0.4526
      8 C5          0.0284    1.4194   -0.1488 C.2       1 <0>         0.0655
      9 C6         -0.0390    0.0538    0.0368 C.2       1 <0>        -0.0051
     10 O2          1.2347   -0.3795    0.1632 O.3       1 <0>        -0.1793
     11 C7         -1.2615   -0.7712    0.0869 C.ar      1 <0>         0.0397
     12 C8         -2.3407   -0.3790    0.8824 C.ar      1 <0>        -0.1054
     13 C9         -3.4820   -1.1526    0.9207 C.ar      1 <0>        -0.0188
     14 C10        -3.5554   -2.3202    0.1817 C.ar      1 <0>        -0.6511
     15 C11        -2.4882   -2.7176   -0.6044 C.ar      1 <0>        -0.0203
     16 C12        -1.3427   -1.9512   -0.6565 C.ar      1 <0>        -0.1151
     17 S1         -5.0146   -3.3060    0.2425 S.o2      1 <0>         2.4987
     18 O3         -6.0538   -2.3953    0.5740 O.2       1 <0>        -0.9330
     19 O4         -5.0315   -4.0054   -0.9944 O.2       1 <0>        -0.9341
     20 C13        -4.7383   -4.4639    1.6112 C.3       1 <0>        -0.6501
     21 C14        -1.1163    2.3400   -0.3415 C.ar      1 <0>        -0.0309
     22 C15        -2.1764    1.9742   -1.1707 C.ar      1 <0>        -0.0677
     23 C16        -3.2425    2.8326   -1.3427 C.ar      1 <0>        -0.1505
     24 C17        -3.2563    4.0610   -0.7016 C.ar      1 <0>         0.1115
     25 C18        -2.2027    4.4313    0.1187 C.ar      1 <0>        -0.1529
     26 C19        -1.1346    3.5776    0.3012 C.ar      1 <0>        -0.0555
     27 F1         -4.3001    4.9004   -0.8773 F         1 <0>        -0.1350
     28 O5          6.2605    0.6403    0.8824 O.3       1 <0>        -0.3272
     29 H1          4.8206    1.1084    3.9190 H         1 <0>         0.1068
     30 H2          6.2653    0.1148    3.6131 H         1 <0>         0.0729
     31 H3          6.3299    1.8771    3.3720 H         1 <0>         0.0733
     32 H4          3.9060   -0.3236   -0.2240 H         1 <0>         0.1313
     33 H5          3.9707    1.4388   -0.4651 H         1 <0>         0.1446
     34 H6         -2.2831    0.5299    1.4630 H         1 <0>         0.1396
     35 H7         -4.3187   -0.8485    1.5321 H         1 <0>         0.1514
     36 H8         -2.5523   -3.6303   -1.1783 H         1 <0>         0.1503
     37 H9         -0.5104   -2.2627   -1.2702 H         1 <0>         0.1392
     38 H10        -4.5903   -3.9053    2.5354 H         1 <0>         0.1326
     39 H11        -5.6052   -5.1163    1.7159 H         1 <0>         0.1350
     40 H12        -3.8533   -5.0659    1.4049 H         1 <0>         0.1324
     41 H13        -2.1644    1.0189   -1.6743 H         1 <0>         0.1324
     42 H14        -4.0658    2.5485   -1.9813 H         1 <0>         0.1423
     43 H15        -2.2177    5.3901    0.6157 H         1 <0>         0.1418
     44 H16        -0.3137    3.8674    0.9405 H         1 <0>         0.1389
     45 H17         7.1714    0.6512    1.2067 H         1 <0>         0.3990
@<TRIPOS>BOND
     1    1    2 1
     2    1   29 1
     3    1   30 1
     4    1   31 1
     5    2    3 am
     6    2   28 1
     7    3    4 2
     8    3    5 1
     9    5    6 1
    10    5   32 1
    11    5   33 1
    12    6   10 1
    13    6    7 2
    14    7    8 1
    15    8    9 2
    16    8   21 1
    17    9   10 1
    18    9   11 1
    19   11   16 ar
    20   11   12 ar
    21   12   13 ar
    22   12   34 1
    23   13   14 ar
    24   13   35 1
    25   14   15 ar
    26   14   17 1
    27   15   16 ar
    28   15   36 1
    29   16   37 1
    30   17   18 2
    31   17   19 2
    32   17   20 1
    33   20   38 1
    34   20   39 1
    35   20   40 1
    36   21   26 ar
    37   21   22 ar
    38   22   23 ar
    39   22   41 1
    40   23   24 ar
    41   23   42 1
    42   24   25 ar
    43   24   27 1
    44   25   26 ar
    45   25   43 1
    46   26   44 1
    47   28   45 1
@<TRIPOS>MOLECULE
ZINC03814775
   66    70     0     0     0
SMALL
USER_CHARGES

@<TRIPOS>ATOM
      1 C1          8.7406    0.7600    2.7421 C.3       1 <0>         0.0135
      2 O1          9.1542   -0.1859    1.7539 O.3       1 <0>        -0.3666
      3 C2          8.6046    0.0513    0.4563 C.3       1 <0>         0.1682
      4 C3          8.8358    1.5125    0.0592 C.3       1 <0>        -0.1920
      5 C4         10.3410    1.7761   -0.0333 C.3       1 <0>         0.0665
      6 O2         10.9238    0.8757   -0.9777 O.3       1 <0>        -0.3796
      7 C5         10.7801   -0.5039   -0.6340 C.3       1 <0>         0.0638
      8 C6          9.2925   -0.8590   -0.5657 C.3       1 <0>        -0.1416
      9 C7          7.1258   -0.2382    0.4746 C.ar      1 <0>        -0.1770
     10 C8          6.5413   -0.7751    1.6066 C.ar      1 <0>        -0.0380
     11 C9          5.1851   -1.0362    1.6280 C.ar      1 <0>        -0.2164
     12 C10         4.4096   -0.7702    0.5084 C.ar      1 <0>         0.1628
     13 C11         4.9962   -0.2322   -0.6271 C.ar      1 <0>        -0.1823
     14 C12         6.3542    0.0334   -0.6428 C.ar      1 <0>         0.1529
     15 F1          6.9272    0.5580   -1.7480 F         1 <0>        -0.1234
     16 O3          3.0761   -1.0315    0.5266 O.3       1 <0>        -0.3038
     17 C13         2.5400   -1.5854    1.7299 C.3       1 <0>         0.1595
     18 C14         1.0584   -1.8061    1.5647 C.2       1 <0>         0.1991
     19 N1          0.5079   -2.8959    1.1142 N.2       1 <0>        -0.4349
     20 C15        -0.8323   -2.7369    1.1037 C.2       1 <0>         0.0616
     21 C16        -1.0920   -1.4682    1.5799 C.2       1 <0>         0.0118
     22 O4          0.1066   -0.9106    1.8596 O.3       1 <0>        -0.1765
     23 C17        -2.4177   -0.8413    1.7452 C.ar      1 <0>         0.0344
     24 C18        -3.5620   -1.6360    1.8468 C.ar      1 <0>        -0.1180
     25 C19        -4.7972   -1.0433    2.0069 C.ar      1 <0>        -0.0182
     26 C20        -4.9056    0.3354    2.0554 C.ar      1 <0>        -0.6502
     27 C21        -3.7770    1.1290    1.9496 C.ar      1 <0>        -0.0191
     28 C22        -2.5347    0.5499    1.7949 C.ar      1 <0>        -0.1148
     29 S1         -6.4885    1.0840    2.2522 S.o2      1 <0>         2.4979
     30 O5         -7.2718    0.1052    2.9213 O.2       1 <0>        -0.9326
     31 O6         -6.2225    2.3396    2.8619 O.2       1 <0>        -0.9335
     32 C23        -7.1024    1.3273    0.5626 C.3       1 <0>        -0.6494
     33 C24        -1.8347   -3.7356    0.6647 C.ar      1 <0>        -0.0381
     34 C25        -1.7318   -5.0615    1.0849 C.ar      1 <0>        -0.0529
     35 C26        -2.6707   -5.9866    0.6777 C.ar      1 <0>        -0.1526
     36 C27        -3.7087   -5.6026   -0.1561 C.ar      1 <0>         0.1161
     37 C28        -3.8120   -4.2877   -0.5809 C.ar      1 <0>        -0.1541
     38 C29        -2.8811   -3.3541   -0.1748 C.ar      1 <0>        -0.0674
     39 F2         -4.6228   -6.5133   -0.5564 F         1 <0>        -0.1329
     40 H1          9.1789    1.7329    2.5197 H         1 <0>         0.0475
     41 H2          7.6536    0.8410    2.7350 H         1 <0>         0.0506
     42 H3          9.0738    0.4275    3.7252 H         1 <0>         0.0906
     43 H4          8.3722    1.7047   -0.9084 H         1 <0>         0.0960
     44 H5          8.3967    2.1682    0.8111 H         1 <0>         0.0802
     45 H6         10.7976    1.6229    0.9445 H         1 <0>         0.0554
     46 H7         10.5112    2.8029   -0.3571 H         1 <0>         0.0960
     47 H8         11.2424   -0.6869    0.3360 H         1 <0>         0.0608
     48 H9         11.2664   -1.1196   -1.3907 H         1 <0>         0.0973
     49 H10         9.1800   -1.8994   -0.2606 H         1 <0>         0.0849
     50 H11         8.8381   -0.7147   -1.5459 H         1 <0>         0.0900
     51 H12         7.1451   -0.9862    2.4769 H         1 <0>         0.1465
     52 H13         4.7290   -1.4515    2.5146 H         1 <0>         0.1389
     53 H14         4.3939   -0.0209   -1.4983 H         1 <0>         0.1477
     54 H15         2.7148   -0.8966    2.5564 H         1 <0>         0.1014
     55 H16         3.0278   -2.5371    1.9407 H         1 <0>         0.1165
     56 H17        -3.4793   -2.7120    1.8047 H         1 <0>         0.1478
     57 H18        -5.6823   -1.6566    2.0897 H         1 <0>         0.1526
     58 H19        -3.8690    2.2044    1.9879 H         1 <0>         0.1511
     59 H20        -1.6547    1.1705    1.7122 H         1 <0>         0.1404
     60 H21        -7.1721    0.3632    0.0590 H         1 <0>         0.1330
     61 H22        -8.0881    1.7912    0.5975 H         1 <0>         0.1357
     62 H23        -6.4157    1.9739    0.0162 H         1 <0>         0.1326
     63 H24        -0.9206   -5.3627    1.7311 H         1 <0>         0.1399
     64 H25        -2.5942   -7.0126    1.0058 H         1 <0>         0.1440
     65 H26        -4.6224   -3.9934   -1.2312 H         1 <0>         0.1444
     66 H27        -2.9622   -2.3296   -0.5067 H         1 <0>         0.1362
@<TRIPOS>BOND
     1    1    2 1
     2    1   40 1
     3    1   41 1
     4    1   42 1
     5    2    3 1
     6    3    8 1
     7    3    4 1
     8    3    9 1
     9    4    5 1
    10    4   43 1
    11    4   44 1
    12    5    6 1
    13    5   45 1
    14    5   46 1
    15    6    7 1
    16    7    8 1
    17    7   47 1
    18    7   48 1
    19    8   49 1
    20    8   50 1
    21    9   14 ar
    22    9   10 ar
    23   10   11 ar
    24   10   51 1
    25   11   12 ar
    26   11   52 1
    27   12   13 ar
    28   12   16 1
    29   13   14 ar
    30   13   53 1
    31   14   15 1
    32   16   17 1
    33   17   18 1
    34   17   54 1
    35   17   55 1
    36   18   22 1
    37   18   19 2
    38   19   20 1
    39   20   21 2
    40   20   33 1
    41   21   22 1
    42   21   23 1
    43   23   28 ar
    44   23   24 ar
    45   24   25 ar
    46   24   56 1
    47   25   26 ar
    48   25   57 1
    49   26   27 ar
    50   26   29 1
    51   27   28 ar
    52   27   58 1
    53   28   59 1
    54   29   30 2
    55   29   31 2
    56   29   32 1
    57   32   60 1
    58   32   61 1
    59   32   62 1
    60   33   38 ar
    61   33   34 ar
    62   34   35 ar
    63   34   63 1
    64   35   36 ar
    65   35   64 1
    66   36   37 ar
    67   36   39 1
    68   37   38 ar
    69   37   65 1
    70   38   66 1
@<TRIPOS>MOLECULE
ZINC03814776
   67    71     0     0     0
SMALL
USER_CHARGES

@<TRIPOS>ATOM
      1 C1          7.9637   -6.2032    3.8887 C.3       1 <0>         0.0112
      2 O1          8.5501   -6.8312    2.7468 O.3       1 <0>        -0.3669
      3 C2          9.2338   -5.9292    1.8745 C.3       1 <0>         0.1684
      4 C3         10.2668   -5.1267    2.6716 C.3       1 <0>        -0.1916
      5 C4         11.3157   -6.0846    3.2424 C.3       1 <0>         0.0669
      6 O2         11.9253   -6.8126    2.1745 O.3       1 <0>        -0.3799
      7 C5         11.0150   -7.6184    1.4234 C.3       1 <0>         0.0638
      8 C6          9.9540   -6.7221    0.7795 C.3       1 <0>        -0.1407
      9 C7          8.2407   -4.9871    1.2443 C.ar      1 <0>        -0.1801
     10 C8          6.8864   -5.1705    1.4535 C.ar      1 <0>        -0.0403
     11 C9          5.9741   -4.3051    0.8817 C.ar      1 <0>        -0.2171
     12 C10         6.4161   -3.2570    0.0869 C.ar      1 <0>         0.1657
     13 C11         7.7745   -3.0735   -0.1231 C.ar      1 <0>        -0.1846
     14 C12         8.6856   -3.9392    0.4560 C.ar      1 <0>         0.1518
     15 F1         10.0094   -3.7616    0.2528 F         1 <0>        -0.1245
     16 O3          5.5192   -2.4080   -0.4803 O.3       1 <0>        -0.3020
     17 C13         4.1362   -2.6574   -0.2209 C.3       1 <0>         0.1443
     18 C14         3.2983   -1.6226   -0.9266 C.2       1 <0>         0.0815
     19 C15         3.7863   -0.5792   -1.7139 C.2       1 <0>        -0.2104
     20 C16         2.7155    0.1314   -2.1788 C.2       1 <0>         0.1279
     21 N1          1.5895   -0.4581   -1.6791 N.pl3     1 <0>        -0.3284
     22 N2          1.9909   -1.5536   -0.9038 N.2       1 <0>        -0.2593
     23 C17         0.2703   -0.0453   -1.9060 C.ar      1 <0>         0.2024
     24 C18        -0.7085   -0.9810   -2.2136 C.ar      1 <0>        -0.1271
     25 C19        -2.0070   -0.5701   -2.4428 C.ar      1 <0>        -0.0043
     26 C20        -2.3351    0.7704   -2.3554 C.ar      1 <0>        -0.6601
     27 C21        -1.3628    1.7047   -2.0487 C.ar      1 <0>        -0.0052
     28 C22        -0.0613    1.3007   -1.8241 C.ar      1 <0>        -0.1379
     29 S1         -3.9943    1.2899   -2.6419 S.o2      1 <0>         2.4995
     30 O4         -4.7899    0.1590   -2.3144 O.2       1 <0>        -0.9324
     31 O5         -4.1252    2.5031   -1.9137 O.2       1 <0>        -0.9322
     32 C23        -4.0788    1.6184   -4.4239 C.3       1 <0>        -0.6499
     33 C24         2.7668    1.3205   -3.0571 C.ar      1 <0>        -0.0386
     34 C25         1.6965    1.6127   -3.9034 C.ar      1 <0>        -0.0938
     35 C26         1.7481    2.7255   -4.7171 C.ar      1 <0>        -0.1068
     36 C27         2.8631    3.5463   -4.7022 C.ar      1 <0>        -0.0216
     37 C28         3.9304    3.2583   -3.8683 C.ar      1 <0>        -0.1058
     38 C29         3.8880    2.1510   -3.0467 C.ar      1 <0>        -0.0719
     39 Cl1         2.9235    4.9416   -5.7334 Cl        1 <0>        -0.0582
     40 H1          7.3521   -6.9270    4.4273 H         1 <0>         0.0905
     41 H2          8.7517   -5.8337    4.5448 H         1 <0>         0.0468
     42 H3          7.3400   -5.3700    3.5649 H         1 <0>         0.0531
     43 H4         10.7520   -4.4042    2.0154 H         1 <0>         0.0962
     44 H5          9.7698   -4.6024    3.4878 H         1 <0>         0.0795
     45 H6         10.8360   -6.7812    3.9299 H         1 <0>         0.0553
     46 H7         12.0771   -5.5147    3.7750 H         1 <0>         0.0956
     47 H8         10.5313   -8.3351    2.0871 H         1 <0>         0.0606
     48 H9         11.5597   -8.1534    0.6455 H         1 <0>         0.0969
     49 H10         9.2333   -7.3389    0.2426 H         1 <0>         0.0844
     50 H11        10.4329   -6.0319    0.0851 H         1 <0>         0.0898
     51 H12         6.5416   -5.9885    2.0686 H         1 <0>         0.1458
     52 H13         4.9167   -4.4469    1.0496 H         1 <0>         0.1385
     53 H14         8.1209   -2.2562   -0.7383 H         1 <0>         0.1477
     54 H15         3.9524   -2.6036    0.8521 H         1 <0>         0.0918
     55 H16         3.8713   -3.6498   -0.5856 H         1 <0>         0.0922
     56 H17         4.8256   -0.3725   -1.9225 H         1 <0>         0.1654
     57 H18        -0.4537   -2.0286   -2.2780 H         1 <0>         0.1448
     58 H19        -2.7676   -1.2969   -2.6869 H         1 <0>         0.1548
     59 H20        -1.6214    2.7513   -1.9852 H         1 <0>         0.1552
     60 H21         0.6977    2.0309   -1.5853 H         1 <0>         0.1419
     61 H22        -3.8410    0.7074   -4.9730 H         1 <0>         0.1329
     62 H23        -5.0843    1.9482   -4.6852 H         1 <0>         0.1361
     63 H24        -3.3618    2.3971   -4.6841 H         1 <0>         0.1329
     64 H25         0.8279    0.9711   -3.9185 H         1 <0>         0.1332
     65 H26         0.9186    2.9550   -5.3695 H         1 <0>         0.1405
     66 H27         4.7978    3.9017   -3.8614 H         1 <0>         0.1434
     67 H28         4.7211    1.9272   -2.3970 H         1 <0>         0.1426
@<TRIPOS>BOND
     1    1    2 1
     2    1   40 1
     3    1   41 1
     4    1   42 1
     5    2    3 1
     6    3    8 1
     7    3    4 1
     8    3    9 1
     9    4    5 1
    10    4   43 1
    11    4   44 1
    12    5    6 1
    13    5   45 1
    14    5   46 1
    15    6    7 1
    16    7    8 1
    17    7   47 1
    18    7   48 1
    19    8   49 1
    20    8   50 1
    21    9   14 ar
    22    9   10 ar
    23   10   11 ar
    24   10   51 1
    25   11   12 ar
    26   11   52 1
    27   12   13 ar
    28   12   16 1
    29   13   14 ar
    30   13   53 1
    31   14   15 1
    32   16   17 1
    33   17   18 1
    34   17   54 1
    35   17   55 1
    36   18   22 2
    37   18   19 1
    38   19   20 2
    39   19   56 1
    40   20   21 1
    41   20   33 1
    42   21   22 1
    43   21   23 1
    44   23   28 ar
    45   23   24 ar
    46   24   25 ar
    47   24   57 1
    48   25   26 ar
    49   25   58 1
    50   26   27 ar
    51   26   29 1
    52   27   28 ar
    53   27   59 1
    54   28   60 1
    55   29   30 2
    56   29   31 2
    57   29   32 1
    58   32   61 1
    59   32   62 1
    60   32   63 1
    61   33   38 ar
    62   33   34 ar
    63   34   35 ar
    64   34   64 1
    65   35   36 ar
    66   35   65 1
    67   36   37 ar
    68   36   39 1
    69   37   38 ar
    70   37   66 1
    71   38   67 1
@<TRIPOS>MOLECULE
ZINC03814777
   53    56     0     0     0
SMALL
USER_CHARGES

@<TRIPOS>ATOM
      1 C1         -1.1292    1.8646   -1.3191 C.3       1 <0>         0.0263
      2 O1         -1.8372    2.2323   -0.1335 O.3       1 <0>        -0.3149
      3 C2         -1.6190    3.4824    0.3527 C.ar      1 <0>         0.1480
      4 C3         -0.7364    4.3355   -0.2958 C.ar      1 <0>        -0.2129
      5 C4         -0.5164    5.6086    0.1946 C.ar      1 <0>        -0.0577
      6 C5         -1.1665    6.0336    1.3369 C.ar      1 <0>        -0.1723
      7 C6         -2.0474    5.1823    1.9936 C.ar      1 <0>        -0.0488
      8 C7         -2.2730    3.9041    1.4990 C.ar      1 <0>        -0.1338
      9 S1         -2.8760    5.7235    3.4514 S.3       1 <0>        -0.0734
     10 C8         -2.2731    7.4168    3.6959 C.3       1 <0>        -0.0334
     11 C9         -2.9125    8.0047    4.9274 C.2       1 <0>         0.0960
     12 C10        -4.1087    8.7222    4.9595 C.2       1 <0>        -0.2188
     13 C11        -4.3487    9.0790    6.2567 C.2       1 <0>         0.1325
     14 N1         -3.3143    8.5983    7.0078 N.pl3     1 <0>        -0.3281
     15 N2         -2.4351    7.9321    6.1445 N.2       1 <0>        -0.2513
     16 C12        -3.1604    8.7450    8.3924 C.ar      1 <0>         0.2019
     17 C13        -1.9285    9.1075    8.9209 C.ar      1 <0>        -0.1263
     18 C14        -1.7812    9.2565   10.2861 C.ar      1 <0>        -0.0044
     19 C15        -2.8561    9.0343   11.1272 C.ar      1 <0>        -0.6602
     20 C16        -4.0828    8.6681   10.6044 C.ar      1 <0>        -0.0059
     21 C17        -4.2378    8.5226    9.2397 C.ar      1 <0>        -0.1374
     22 S2         -2.6621    9.2178   12.8689 S.o2      1 <0>         2.5001
     23 O2         -1.5915   10.1399   13.0193 O.2       1 <0>        -0.9329
     24 O3         -3.9625    9.5332   13.3473 O.2       1 <0>        -0.9324
     25 C18        -2.1608    7.5768   13.4575 C.3       1 <0>        -0.6496
     26 C19        -5.5100    9.8486    6.7540 C.ar      1 <0>        -0.0410
     27 C20        -5.4017   10.6026    7.9231 C.ar      1 <0>        -0.0941
     28 C21        -6.4866   11.3222    8.3794 C.ar      1 <0>        -0.1049
     29 C22        -7.6843   11.2891    7.6853 C.ar      1 <0>        -0.0210
     30 C23        -7.7991   10.5384    6.5275 C.ar      1 <0>        -0.1065
     31 C24        -6.7195    9.8187    6.0590 C.ar      1 <0>        -0.0726
     32 Cl1        -9.0473   12.1919    8.2692 Cl        1 <0>        -0.0580
     33 H1         -1.3938    0.8448   -1.5988 H         1 <0>         0.1027
     34 H2         -0.0566    1.9241   -1.1349 H         1 <0>         0.0573
     35 H3         -1.3972    2.5443   -2.1279 H         1 <0>         0.0575
     36 H4         -0.2234    4.0048   -1.1868 H         1 <0>         0.1315
     37 H5          0.1680    6.2713   -0.3142 H         1 <0>         0.1300
     38 H6         -0.9899    7.0278    1.7202 H         1 <0>         0.1252
     39 H7         -2.9572    3.2404    2.0069 H         1 <0>         0.1364
     40 H8         -1.1903    7.4025    3.8203 H         1 <0>         0.1088
     41 H9         -2.5311    8.0232    2.8277 H         1 <0>         0.1147
     42 H10        -4.7352    8.9522    4.1104 H         1 <0>         0.1638
     43 H11        -1.0875    9.2769    8.2648 H         1 <0>         0.1447
     44 H12        -0.8245    9.5425   10.6974 H         1 <0>         0.1547
     45 H13        -4.9204    8.4952   11.2639 H         1 <0>         0.1553
     46 H14        -5.1959    8.2358    8.8320 H         1 <0>         0.1423
     47 H15        -1.2266    7.2879   12.9759 H         1 <0>         0.1330
     48 H16        -2.0188    7.6061   14.5378 H         1 <0>         0.1357
     49 H17        -2.9357    6.8505   13.2124 H         1 <0>         0.1330
     50 H18        -4.4694   10.6255    8.4677 H         1 <0>         0.1337
     51 H19        -6.4029   11.9091    9.2821 H         1 <0>         0.1418
     52 H20        -8.7358   10.5160    5.9903 H         1 <0>         0.1432
     53 H21        -6.8104    9.2329    5.1562 H         1 <0>         0.1426
@<TRIPOS>BOND
     1    1    2 1
     2    1   33 1
     3    1   34 1
     4    1   35 1
     5    2    3 1
     6    3    8 ar
     7    3    4 ar
     8    4    5 ar
     9    4   36 1
    10    5    6 ar
    11    5   37 1
    12    6    7 ar
    13    6   38 1
    14    7    8 ar
    15    7    9 1
    16    8   39 1
    17    9   10 1
    18   10   11 1
    19   10   40 1
    20   10   41 1
    21   11   15 2
    22   11   12 1
    23   12   13 2
    24   12   42 1
    25   13   14 1
    26   13   26 1
    27   14   15 1
    28   14   16 1
    29   16   21 ar
    30   16   17 ar
    31   17   18 ar
    32   17   43 1
    33   18   19 ar
    34   18   44 1
    35   19   20 ar
    36   19   22 1
    37   20   21 ar
    38   20   45 1
    39   21   46 1
    40   22   23 2
    41   22   24 2
    42   22   25 1
    43   25   47 1
    44   25   48 1
    45   25   49 1
    46   26   31 ar
    47   26   27 ar
    48   27   28 ar
    49   27   50 1
    50   28   29 ar
    51   28   51 1
    52   29   30 ar
    53   29   32 1
    54   30   31 ar
    55   30   52 1
    56   31   53 1
@<TRIPOS>MOLECULE
ZINC03814778
   37    40     0     0     0
SMALL
USER_CHARGES

@<TRIPOS>ATOM
      1 C1          7.9902   -3.1494    0.9182 C.3       1 <0>        -0.6501
      2 S1          7.0715   -4.0166   -0.3834 S.o2      1 <0>         2.4986
      3 O1          6.9361   -5.3922   -0.0534 O.2       1 <0>        -0.9336
      4 O2          7.5460   -3.6221   -1.6634 O.2       1 <0>        -0.9341
      5 C2          5.4354   -3.3690   -0.2911 C.ar      1 <0>        -0.6479
      6 C3          5.0925   -2.2554   -1.0377 C.ar      1 <0>        -0.0209
      7 C4          3.8137   -1.7431   -0.9704 C.ar      1 <0>        -0.1031
      8 C5          2.8638   -2.3510   -0.1461 C.ar      1 <0>         0.0105
      9 C6          3.2185   -3.4716    0.6087 C.ar      1 <0>        -0.1031
     10 C7          4.4997   -3.9760    0.5279 C.ar      1 <0>        -0.0213
     11 C8          1.4933   -1.8081   -0.0684 C.2       1 <0>         0.1249
     12 C9          0.4230   -2.6178   -0.3073 C.2       1 <0>        -0.0942
     13 S2         -0.9418   -1.4869   -0.0873 S.3       1 <0>         0.2015
     14 C10         0.0086   -0.0372    0.3019 C.2       1 <0>         0.2194
     15 N1          1.2926   -0.4811    0.2453 N.pl3     1 <0>        -0.3401
     16 N2          2.0703    0.6658    0.5542 N.2       1 <0>        -0.2955
     17 C11         1.2482    1.6586    0.7629 C.2       1 <0>         0.2389
     18 N3         -0.0034    1.2313    0.6093 N.2       1 <0>        -0.4897
     19 C12         0.3985   -4.0529   -0.6557 C.ar      1 <0>        -0.0184
     20 C13         1.2309   -4.5443   -1.6633 C.ar      1 <0>        -0.0820
     21 C14         1.2077   -5.8870   -1.9791 C.ar      1 <0>        -0.1141
     22 C15         0.3527   -6.7439   -1.3087 C.ar      1 <0>        -0.0971
     23 C16        -0.4793   -6.2625   -0.3134 C.ar      1 <0>        -0.1154
     24 C17        -0.4615   -4.9234    0.0170 C.ar      1 <0>        -0.0917
     25 H1          7.5300   -3.3529    1.8851 H         1 <0>         0.1323
     26 H2          9.0232   -3.4972    0.9272 H         1 <0>         0.1352
     27 H3          7.9696   -2.0769    0.7245 H         1 <0>         0.1324
     28 H4          5.8280   -1.7862   -1.6743 H         1 <0>         0.1487
     29 H5          3.5475   -0.8737   -1.5533 H         1 <0>         0.1328
     30 H6          2.4902   -3.9440    1.2512 H         1 <0>         0.1375
     31 H7          4.7742   -4.8446    1.1080 H         1 <0>         0.1497
     32 H8          1.5377    2.6671    1.0189 H         1 <0>         0.2398
     33 H9          1.8950   -3.8756   -2.1909 H         1 <0>         0.1253
     34 H10         1.8547   -6.2693   -2.7547 H         1 <0>         0.1320
     35 H11         0.3351   -7.7933   -1.5633 H         1 <0>         0.1301
     36 H12        -1.1439   -6.9369    0.2061 H         1 <0>         0.1325
     37 H13        -1.1109   -4.5491    0.7946 H         1 <0>         0.1302
@<TRIPOS>BOND
     1    1    2 1
     2    1   25 1
     3    1   26 1
     4    1   27 1
     5    2    3 2
     6    2    4 2
     7    2    5 1
     8    5   10 ar
     9    5    6 ar
    10    6    7 ar
    11    6   28 1
    12    7    8 ar
    13    7   29 1
    14    8    9 ar
    15    8   11 1
    16    9   10 ar
    17    9   30 1
    18   10   31 1
    19   11   15 1
    20   11   12 2
    21   12   13 1
    22   12   19 1
    23   13   14 1
    24   14   18 2
    25   14   15 1
    26   15   16 1
    27   16   17 2
    28   17   18 1
    29   17   32 1
    30   19   24 ar
    31   19   20 ar
    32   20   21 ar
    33   20   33 1
    34   21   22 ar
    35   21   34 1
    36   22   23 ar
    37   22   35 1
    38   23   24 ar
    39   23   36 1
    40   24   37 1
@<TRIPOS>MOLECULE
ZINC03814780
   44    47     0     0     0
SMALL
USER_CHARGES

@<TRIPOS>ATOM
      1 C1          4.0043    5.3042    6.0858 C.3       1 <0>         0.0231
      2 O1          3.0465    5.4740    7.1326 O.3       1 <0>        -0.3121
      3 C2          1.7946    4.9959    6.9069 C.ar      1 <0>         0.1490
      4 C3          1.5008    4.3734    5.6920 C.ar      1 <0>        -0.1918
      5 C4          0.2539    3.8860    5.4419 C.ar      1 <0>        -0.0758
      6 C5         -0.7525    4.0071    6.4102 C.ar      1 <0>        -0.0852
      7 C6         -0.4643    4.6371    7.6444 C.ar      1 <0>         0.0309
      8 C7          0.8275    5.1309    7.8786 C.ar      1 <0>        -0.1528
      9 C8         -1.4749    4.7609    8.6225 C.ar      1 <0>        -0.1332
     10 C9         -2.7184    4.2819    8.3902 C.ar      1 <0>        -0.0342
     11 C10        -3.0331    3.6488    7.1685 C.ar      1 <0>        -0.1617
     12 C11        -2.0527    3.5042    6.1789 C.ar      1 <0>         0.1533
     13 N1         -2.6450    2.8667    5.1233 N.pl3     1 <0>        -0.3378
     14 N2         -3.9791    2.6114    5.4633 N.2       1 <0>        -0.2189
     15 C12        -4.2182    3.0658    6.6610 C.2       1 <0>         0.0353
     16 C13        -5.5375    2.9845    7.3849 C.3       1 <0>         0.3585
     17 F1         -5.3746    2.2609    8.5712 F         1 <0>        -0.1835
     18 F2         -5.9857    4.2755    7.6839 F         1 <0>        -0.1832
     19 C14        -2.0240    2.5240    3.9159 C.ar      1 <0>         0.2011
     20 C15        -0.8546    1.7748    3.9230 C.ar      1 <0>        -0.1389
     21 C16        -0.2448    1.4381    2.7305 C.ar      1 <0>        -0.0085
     22 C17        -0.7975    1.8458    1.5303 C.ar      1 <0>        -0.6566
     23 C18        -1.9587    2.5967    1.5200 C.ar      1 <0>        -0.0044
     24 C19        -2.5763    2.9323    2.7089 C.ar      1 <0>        -0.1209
     25 S1         -0.0166    1.4136    0.0110 S.o2      1 <0>         2.5003
     26 O2          1.3534    1.2377    0.3447 O.2       1 <0>        -0.9324
     27 O3         -0.4155    2.4263   -0.9026 O.2       1 <0>        -0.9316
     28 C20        -0.7548   -0.1760   -0.4569 C.3       1 <0>        -0.6488
     29 H1          4.1298    4.2417    5.8770 H         1 <0>         0.0589
     30 H2          3.6544    5.8122    5.1872 H         1 <0>         0.0586
     31 H3          4.9594    5.7290    6.3948 H         1 <0>         0.1049
     32 H4          2.2717    4.2768    4.9418 H         1 <0>         0.1368
     33 H5          0.0407    3.4062    4.4981 H         1 <0>         0.1376
     34 H6          1.0626    5.6142    8.8153 H         1 <0>         0.1445
     35 H7         -1.2532    5.2417    9.5639 H         1 <0>         0.1408
     36 H8         -3.4799    4.3849    9.1491 H         1 <0>         0.1357
     37 H9         -6.2693    2.4834    6.7513 H         1 <0>         0.1360
     38 H10        -0.4225    1.4561    4.8601 H         1 <0>         0.1449
     39 H11         0.6646    0.8555    2.7354 H         1 <0>         0.1573
     40 H12        -2.3853    2.9176    0.5812 H         1 <0>         0.1567
     41 H13        -3.4853    3.5153    2.7001 H         1 <0>         0.1452
     42 H14        -0.5564   -0.9121    0.3221 H         1 <0>         0.1332
     43 H15        -1.8315   -0.0553   -0.5770 H         1 <0>         0.1335
     44 H16        -0.3202   -0.5157   -1.3970 H         1 <0>         0.1364
@<TRIPOS>BOND
     1    1    2 1
     2    1   29 1
     3    1   30 1
     4    1   31 1
     5    2    3 1
     6    3    8 ar
     7    3    4 ar
     8    4    5 ar
     9    4   32 1
    10    5    6 ar
    11    5   33 1
    12    6   12 ar
    13    6    7 ar
    14    7    8 ar
    15    7    9 ar
    16    8   34 1
    17    9   10 ar
    18    9   35 1
    19   10   11 ar
    20   10   36 1
    21   11   15 1
    22   11   12 ar
    23   12   13 1
    24   13   14 1
    25   13   19 1
    26   14   15 2
    27   15   16 1
    28   16   17 1
    29   16   18 1
    30   16   37 1
    31   19   24 ar
    32   19   20 ar
    33   20   21 ar
    34   20   38 1
    35   21   22 ar
    36   21   39 1
    37   22   23 ar
    38   22   25 1
    39   23   24 ar
    40   23   40 1
    41   24   41 1
    42   25   26 2
    43   25   27 2
    44   25   28 1
    45   28   42 1
    46   28   43 1
    47   28   44 1
@<TRIPOS>MOLECULE
ZINC03814781
   41    43     0     0     0
SMALL
USER_CHARGES

@<TRIPOS>ATOM
      1 C1         -3.6528    0.5822    0.0417 C.3       1 <0>        -0.0877
      2 C2         -2.1476    0.6537    0.0268 C.2       1 <0>         0.0758
      3 C3         -1.4299    1.7882    0.0312 C.2       1 <0>        -0.1100
      4 C4         -0.0170    1.4020    0.0098 C.ar      1 <0>        -0.0493
      5 C5          1.1831    2.1165    0.0021 C.ar      1 <0>        -0.0951
      6 C6          2.3829    1.4342   -0.0138 C.ar      1 <0>         0.0855
      7 C7          2.3985    0.0416   -0.0214 C.ar      1 <0>        -0.1837
      8 C8          1.2216   -0.6729   -0.0136 C.ar      1 <0>        -0.0991
      9 C9          0.0021   -0.0041    0.0020 C.ar      1 <0>         0.0773
     10 N1         -1.3101   -0.4279    0.0127 N.pl3     1 <0>        -0.4802
     11 C10        -1.7428   -1.8276    0.0090 C.3       1 <0>         0.1523
     12 C11        -1.8775   -2.3154    1.4285 C.ar      1 <0>        -0.0888
     13 C12        -0.7970   -2.8979    2.0645 C.ar      1 <0>        -0.0936
     14 C13        -0.9187   -3.3411    3.3680 C.ar      1 <0>        -0.0916
     15 C14        -2.1249   -3.2114    4.0326 C.ar      1 <0>        -0.0863
     16 C15        -3.2073   -2.6333    3.3941 C.ar      1 <0>        -0.0911
     17 C16        -3.0831   -2.1856    2.0923 C.ar      1 <0>        -0.0941
     18 Br1        -2.2939   -3.8236    5.8138 Br        1 <0>        -0.0547
     19 O1          3.5546    2.1246   -0.0213 O.3       1 <0>        -0.3207
     20 C17         4.7598    1.3570   -0.0368 C.3       1 <0>         0.0320
     21 C18        -1.9747    3.1932    0.0466 C.3       1 <0>        -0.0944
     22 C19        -2.1762    3.6694   -1.3690 C.2       1 <0>         0.4647
     23 O2         -1.9053    2.9424   -2.2952 O.co2     1 <0>        -0.6295
     24 H1         -4.0053    0.5597    1.0729 H         1 <0>         0.0688
     25 H2         -4.0631    1.4566   -0.4634 H         1 <0>         0.0875
     26 H3         -3.9787   -0.3213   -0.4735 H         1 <0>         0.0614
     27 H4          1.1724    3.1965    0.0079 H         1 <0>         0.1280
     28 H5          3.3426   -0.4827   -0.0332 H         1 <0>         0.1243
     29 H6          1.2454   -1.7526   -0.0200 H         1 <0>         0.1137
     30 H7         -2.7052   -1.9090   -0.4960 H         1 <0>         0.0976
     31 H8         -1.0047   -2.4346   -0.5153 H         1 <0>         0.0933
     32 H9          0.1435   -3.0028    1.5441 H         1 <0>         0.1308
     33 H10        -0.0733   -3.7921    3.8662 H         1 <0>         0.1327
     34 H11        -4.1491   -2.5315    3.9127 H         1 <0>         0.1339
     35 H12        -3.9280   -1.7339    1.5938 H         1 <0>         0.1341
     36 H13         4.7817    0.7332   -0.9304 H         1 <0>         0.0500
     37 H14         5.6183    2.0286   -0.0414 H         1 <0>         0.0930
     38 H15         4.7987    0.7236    0.8494 H         1 <0>         0.0490
     39 H16        -2.9285    3.2073    0.5739 H         1 <0>         0.0712
     40 H17        -1.2691    3.8510    0.5542 H         1 <0>         0.0719
     41 O3         -2.6568    4.9011   -1.6007 O.co2     1 <0>        -0.7787
@<TRIPOS>BOND
     1    1    2 1
     2    1   24 1
     3    1   25 1
     4    1   26 1
     5    2   10 1
     6    2    3 2
     7    3    4 1
     8    3   21 1
     9    4    9 ar
    10    4    5 ar
    11    5    6 ar
    12    5   27 1
    13    6    7 ar
    14    6   19 1
    15    7    8 ar
    16    7   28 1
    17    8    9 ar
    18    8   29 1
    19    9   10 1
    20   10   11 1
    21   11   12 1
    22   11   30 1
    23   11   31 1
    24   12   17 ar
    25   12   13 ar
    26   13   14 ar
    27   13   32 1
    28   14   15 ar
    29   14   33 1
    30   15   16 ar
    31   15   18 1
    32   16   17 ar
    33   16   34 1
    34   17   35 1
    35   19   20 1
    36   20   36 1
    37   20   37 1
    38   20   38 1
    39   21   22 1
    40   21   39 1
    41   21   40 1
    42   22   23 2
    43   22   41 1
@<TRIPOS>MOLECULE
ZINC03814783
   38    40     0     0     0
SMALL
USER_CHARGES

@<TRIPOS>ATOM
      1 C1         -1.2708    2.2176   -0.0019 C.3       1 <0>        -0.1071
      2 C2         -0.0275    1.3659   -0.0010 C.ar      1 <0>        -0.0177
      3 C3         -0.0171    0.0059   -0.0060 C.ar      1 <0>        -0.0946
      4 C4          1.3122   -0.4456   -0.0095 C.ar      1 <0>        -0.0541
      5 C5          1.7111   -1.7865   -0.0145 C.ar      1 <0>         0.0143
      6 C6          3.0037   -2.2830   -0.0177 C.ar      1 <0>        -0.1559
      7 C7          4.2063   -1.5940   -0.0167 C.ar      1 <0>        -0.0388
      8 C8          4.4589   -0.2331   -0.0127 C.ar      1 <0>        -0.1566
      9 C9          3.5595    0.8234   -0.0086 C.ar      1 <0>        -0.0076
     10 C10         2.1679    0.7548   -0.0063 C.ar      1 <0>        -0.0418
     11 C11         1.2881    1.8641   -0.0010 C.ar      1 <0>        -0.2532
     12 C12         1.6651    3.2306    0.0028 C.2       1 <0>         0.4765
     13 O1          1.9095    3.7978   -1.0470 O.2       1 <0>        -0.4502
     14 C13         1.7617    3.9677    1.2819 C.ar      1 <0>        -0.1579
     15 C14         1.5870    3.2961    2.4928 C.ar      1 <0>        -0.0601
     16 C15         1.6826    3.9885    3.6822 C.ar      1 <0>        -0.1357
     17 C16         1.9415    5.3477    3.6760 C.ar      1 <0>        -0.0948
     18 C17         2.1105    6.0205    2.4788 C.ar      1 <0>        -0.1372
     19 C18         2.0222    5.3389    1.2827 C.ar      1 <0>        -0.0669
     20 C19        -1.2387   -0.8765   -0.0075 C.3       1 <0>        -0.1102
     21 C20        -1.6479   -1.1655   -1.4289 C.2       1 <0>         0.4629
     22 O2         -1.0127   -0.7024   -2.3464 O.co2     1 <0>        -0.6261
     23 H1         -1.5739    2.4191    1.0256 H         1 <0>         0.0684
     24 H2         -1.0659    3.1590   -0.5115 H         1 <0>         0.0587
     25 H3         -2.0718    1.6906   -0.5203 H         1 <0>         0.0760
     26 H4          0.9184   -2.5200   -0.0157 H         1 <0>         0.1279
     27 H5          3.0865   -3.3598   -0.0211 H         1 <0>         0.1214
     28 H6          5.0872   -2.2190   -0.0190 H         1 <0>         0.1157
     29 H7          5.5024    0.0454   -0.0125 H         1 <0>         0.1188
     30 H8          3.9881    1.8147   -0.0056 H         1 <0>         0.1150
     31 H9          1.3808    2.2360    2.4988 H         1 <0>         0.1342
     32 H10         1.5510    3.4693    4.6200 H         1 <0>         0.1264
     33 H11         2.0117    5.8859    4.6097 H         1 <0>         0.1234
     34 H12         2.3117    7.0816    2.4808 H         1 <0>         0.1255
     35 H13         2.1539    5.8652    0.3488 H         1 <0>         0.1313
     36 H14        -1.0114   -1.8126    0.5026 H         1 <0>         0.0703
     37 H15        -2.0536   -0.3697    0.5093 H         1 <0>         0.0757
     38 O3         -2.7180   -1.9373   -1.6755 O.co2     1 <0>        -0.7760
@<TRIPOS>BOND
     1    1    2 1
     2    1   23 1
     3    1   24 1
     4    1   25 1
     5    2   11 ar
     6    2    3 ar
     7    3    4 ar
     8    3   20 1
     9    4   10 1
    10    4    5 ar
    11    5    6 ar
    12    5   26 1
    13    6    7 ar
    14    6   27 1
    15    7    8 ar
    16    7   28 1
    17    8    9 ar
    18    8   29 1
    19    9   10 ar
    20    9   30 1
    21   10   11 ar
    22   11   12 1
    23   12   13 2
    24   12   14 1
    25   14   19 ar
    26   14   15 ar
    27   15   16 ar
    28   15   31 1
    29   16   17 ar
    30   16   32 1
    31   17   18 ar
    32   17   33 1
    33   18   19 ar
    34   18   34 1
    35   19   35 1
    36   20   21 1
    37   20   36 1
    38   20   37 1
    39   21   22 2
    40   21   38 1
@<TRIPOS>MOLECULE
ZINC03814786
   33    34     0     0     0
SMALL
USER_CHARGES

@<TRIPOS>ATOM
      1 C1          3.6063    0.7381   -0.0347 C.3       1 <0>        -0.0803
      2 C2          2.0998    0.7013   -0.0182 C.2       1 <0>        -0.1083
      3 C3          1.2425    1.8043   -0.0023 C.2       1 <0>        -0.2004
      4 C4         -0.0317    1.3412    0.0099 C.2       1 <0>         0.1038
      5 N1         -0.0065   -0.0138    0.0023 N.pl3     1 <0>        -0.4139
      6 C5          1.3061   -0.4294   -0.0152 C.2       1 <0>        -0.0994
      7 C6          1.7752   -1.8170   -0.0277 C.2       1 <0>         0.4882
      8 O1          2.0667   -2.3704    1.0166 O.2       1 <0>        -0.4411
      9 C7          1.8946   -2.5453   -1.3086 C.ar      1 <0>        -0.1601
     10 C8          1.6626   -1.8830   -2.5159 C.ar      1 <0>        -0.0400
     11 C9          1.7806   -2.5664   -3.7076 C.ar      1 <0>        -0.1220
     12 C10         2.1174   -3.9101   -3.7083 C.ar      1 <0>        -0.0053
     13 C11         2.3436   -4.5739   -2.5137 C.ar      1 <0>        -0.1290
     14 C12         2.2342   -3.8999   -1.3158 C.ar      1 <0>        -0.0515
     15 Cl1         2.2570   -4.7656   -5.2124 Cl        1 <0>        -0.0668
     16 C13        -1.1803   -0.8904    0.0104 C.3       1 <0>         0.0701
     17 C14        -1.2739    2.1943    0.0233 C.3       1 <0>        -0.1064
     18 C15        -1.6277    2.5886   -1.3875 C.2       1 <0>         0.4660
     19 O2         -0.9416    2.2151   -2.3093 O.co2     1 <0>        -0.6252
     20 H1          3.9560    0.8403   -1.0620 H         1 <0>         0.0634
     21 H2          3.9555    1.5864    0.5541 H         1 <0>         0.0653
     22 H3          3.9969   -0.1857    0.3919 H         1 <0>         0.0518
     23 H4          1.5417    2.8420   -0.0004 H         1 <0>         0.1350
     24 H5          1.3956   -0.8365   -2.5164 H         1 <0>         0.1506
     25 H6          1.6061   -2.0541   -4.6422 H         1 <0>         0.1422
     26 H7          2.6065   -5.6214   -2.5205 H         1 <0>         0.1387
     27 H8          2.4111   -4.4183   -0.3850 H         1 <0>         0.1421
     28 H9         -1.4830   -1.1018   -1.0152 H         1 <0>         0.0770
     29 H10        -0.9333   -1.8238    0.5161 H         1 <0>         0.0742
     30 H11        -1.9981   -0.3977    0.5363 H         1 <0>         0.0883
     31 H12        -2.0977    1.6299    0.4602 H         1 <0>         0.0717
     32 H13        -1.0927    3.0907    0.6165 H         1 <0>         0.0911
     33 O3         -2.7051    3.3546   -1.6201 O.co2     1 <0>        -0.7702
@<TRIPOS>BOND
     1    1    2 1
     2    1   20 1
     3    1   21 1
     4    1   22 1
     5    2    6 2
     6    2    3 1
     7    3    4 2
     8    3   23 1
     9    4    5 1
    10    4   17 1
    11    5    6 1
    12    5   16 1
    13    6    7 1
    14    7    8 2
    15    7    9 1
    16    9   14 ar
    17    9   10 ar
    18   10   11 ar
    19   10   24 1
    20   11   12 ar
    21   11   25 1
    22   12   13 ar
    23   12   15 1
    24   13   14 ar
    25   13   26 1
    26   14   27 1
    27   16   28 1
    28   16   29 1
    29   16   30 1
    30   17   18 1
    31   17   31 1
    32   17   32 1
    33   18   19 2
    34   18   33 1
@<TRIPOS>MOLECULE
ZINC03814788
   32    33     0     0     0
SMALL
USER_CHARGES

@<TRIPOS>ATOM
      1 C1          0.6295   -5.3348   -2.1318 C.3       1 <0>        -0.1071
      2 C2          0.2580   -4.5093   -0.9270 C.ar      1 <0>        -0.0985
      3 C3          0.6271   -4.9298    0.3380 C.ar      1 <0>        -0.1134
      4 C4          0.2884   -4.1760    1.4441 C.ar      1 <0>        -0.1288
      5 C5         -0.4183   -2.9902    1.2848 C.ar      1 <0>         0.1506
      6 C6         -0.7919   -2.5735    0.0133 C.ar      1 <0>        -0.0415
      7 C7         -0.4506   -3.3330   -1.0886 C.ar      1 <0>        -0.0955
      8 C8         -1.5633   -1.2911   -0.1640 C.3       1 <0>        -0.1334
      9 C9         -0.6034   -0.1307   -0.2169 C.2       1 <0>         0.4621
     10 O1          0.5853   -0.3250   -0.1206 O.co2     1 <0>        -0.6275
     11 N1         -0.7572   -2.2219    2.4010 N.pl3     1 <0>        -0.6561
     12 C10        -1.2308   -2.8448    3.5621 C.ar      1 <0>         0.1977
     13 C11        -1.8797   -4.0711    3.4791 C.ar      1 <0>         0.0234
     14 C12        -2.3424   -4.6875    4.6297 C.ar      1 <0>         0.1306
     15 C13        -2.1692   -4.0778    5.8608 C.ar      1 <0>        -0.1918
     16 C14        -1.5278   -2.8536    5.9459 C.ar      1 <0>         0.1321
     17 C15        -1.0579   -2.2354    4.7992 C.ar      1 <0>         0.0194
     18 F1         -0.4317   -1.0412    4.8830 F         1 <0>        -0.1128
     19 F2         -1.3597   -2.2620    7.1488 F         1 <0>        -0.1147
     20 F3         -2.9684   -5.8821    4.5504 F         1 <0>        -0.1150
     21 F4         -2.0544   -4.6637    2.2776 F         1 <0>        -0.1039
     22 H1          1.6014   -5.0138   -2.5065 H         1 <0>         0.0667
     23 H2          0.6778   -6.3868   -1.8506 H         1 <0>         0.0611
     24 H3         -0.1222   -5.2008   -2.9098 H         1 <0>         0.0627
     25 H4          1.1805   -5.8491    0.4606 H         1 <0>         0.1193
     26 H5          0.5766   -4.5051    2.4315 H         1 <0>         0.1138
     27 H6         -0.7372   -3.0076   -2.0777 H         1 <0>         0.1214
     28 H7         -2.2468   -1.1593    0.6749 H         1 <0>         0.0731
     29 H8         -2.1322   -1.3347   -1.0927 H         1 <0>         0.0801
     30 H9         -0.6645   -1.2568    2.3717 H         1 <0>         0.4278
     31 H10        -2.5348   -4.5581    6.7563 H         1 <0>         0.1651
     32 O2         -1.0688    1.1189   -0.3711 O.co2     1 <0>        -0.7672
@<TRIPOS>BOND
     1    1    2 1
     2    1   22 1
     3    1   23 1
     4    1   24 1
     5    2    7 ar
     6    2    3 ar
     7    3    4 ar
     8    3   25 1
     9    4    5 ar
    10    4   26 1
    11    5    6 ar
    12    5   11 1
    13    6    7 ar
    14    6    8 1
    15    7   27 1
    16    8    9 1
    17    8   28 1
    18    8   29 1
    19    9   10 2
    20    9   32 1
    21   11   12 1
    22   11   30 1
    23   12   17 ar
    24   12   13 ar
    25   13   14 ar
    26   13   21 1
    27   14   15 ar
    28   14   20 1
    29   15   16 ar
    30   15   31 1
    31   16   17 ar
    32   16   19 1
    33   17   18 1
@<TRIPOS>MOLECULE
ZINC03814789
   40    42     0     0     0
SMALL
USER_CHARGES

@<TRIPOS>ATOM
      1 C1          3.0676    7.5016    4.6122 C.3       1 <0>        -0.1480
      2 C2          1.7356    7.6543    3.8749 C.3       1 <0>        -0.0797
      3 C3          1.9975    7.9651    2.4238 C.ar      1 <0>        -0.0805
      4 C4          2.0171    9.2686    1.9569 C.ar      1 <0>        -0.1132
      5 C5          2.2551    9.5710    0.6276 C.ar      1 <0>        -0.1333
      6 C6          2.4890    8.5848   -0.3156 C.ar      1 <0>        -0.0764
      7 C7          2.4739    7.2650    0.1331 C.ar      1 <0>        -0.0385
      8 C8          2.2297    6.9538    1.4952 C.ar      1 <0>         0.0754
      9 N1          2.2768    5.5900    1.6322 N.pl3     1 <0>        -0.5420
     10 H1          2.1396    5.1129    2.4655 H         1 <0>         0.4193
     11 C9          2.5390    5.0084    0.4542 C.2       1 <0>         0.1546
     12 C10         2.6682    5.9891   -0.5289 C.2       1 <0>        -0.2875
     13 C11         2.9439    5.6449   -1.8764 C.2       1 <0>         0.4009
     14 O1          3.1013    6.4926   -2.7311 O.2       1 <0>        -0.4751
     15 C12         3.0327    4.1659   -2.1969 C.3       1 <0>         0.0296
     16 O2          3.5076    3.4471   -1.0586 O.3       1 <0>        -0.3178
     17 C13         2.6940    3.5442    0.1178 C.3       1 <0>         0.1959
     18 C14         3.3729    2.8149    1.2789 C.3       1 <0>        -0.1167
     19 C15         4.7407    3.4456    1.5473 C.3       1 <0>        -0.1476
     20 C16         1.3204    2.9259   -0.1499 C.3       1 <0>        -0.1844
     21 C17         1.4897    1.4887   -0.5703 C.2       1 <0>         0.4670
     22 O3          2.5961    1.0396   -0.7549 O.co2     1 <0>        -0.6108
     23 H2          2.8781    7.2768    5.6618 H         1 <0>         0.0588
     24 H3          3.6397    6.6892    4.1642 H         1 <0>         0.0528
     25 H4          3.6337    8.4299    4.5359 H         1 <0>         0.0589
     26 H5          1.1634    8.4667    4.3230 H         1 <0>         0.0775
     27 H6          1.1695    6.7260    3.9512 H         1 <0>         0.0658
     28 H7          1.8404   10.0754    2.6527 H         1 <0>         0.1203
     29 H8          2.2592   10.6055    0.3174 H         1 <0>         0.1197
     30 H9          2.6746    8.8270   -1.3516 H         1 <0>         0.1350
     31 H10         3.6645    4.0275   -2.9595 H         1 <0>         0.1110
     32 H11         2.0445    3.7968   -2.4712 H         1 <0>         0.0871
     33 H12         2.7532    2.8975    2.1718 H         1 <0>         0.0630
     34 H13         3.5017    1.7635    1.0219 H         1 <0>         0.1162
     35 H14         5.3889    3.2881    0.6853 H         1 <0>         0.0676
     36 H15         4.6201    4.5150    1.7206 H         1 <0>         0.0418
     37 H16         5.1877    2.9831    2.4273 H         1 <0>         0.0533
     38 H17         0.8209    3.4804   -0.9444 H         1 <0>         0.0734
     39 H18         0.7187    2.9705    0.7579 H         1 <0>         0.0766
     40 O4          0.4114    0.7074   -0.7396 O.co2     1 <0>        -0.7700
@<TRIPOS>BOND
     1    1    2 1
     2    1   23 1
     3    1   24 1
     4    1   25 1
     5    2    3 1
     6    2   26 1
     7    2   27 1
     8    3    8 ar
     9    3    4 ar
    10    4    5 ar
    11    4   28 1
    12    5    6 ar
    13    5   29 1
    14    6    7 ar
    15    6   30 1
    16    7   12 1
    17    7    8 ar
    18    8    9 1
    19    9   10 1
    20    9   11 1
    21   11   17 1
    22   11   12 2
    23   12   13 1
    24   13   14 2
    25   13   15 1
    26   15   16 1
    27   15   31 1
    28   15   32 1
    29   16   17 1
    30   17   18 1
    31   17   20 1
    32   18   19 1
    33   18   33 1
    34   18   34 1
    35   19   35 1
    36   19   36 1
    37   19   37 1
    38   20   21 1
    39   20   38 1
    40   20   39 1
    41   21   22 2
    42   21   40 1
@<TRIPOS>MOLECULE
ZINC03814790
   42    44     0     0     0
SMALL
USER_CHARGES

@<TRIPOS>ATOM
      1 C1         -7.5394    3.3136   -0.0741 C.3       1 <0>        -0.1442
      2 C2         -7.4148    1.8833   -0.6028 C.3       1 <0>        -0.0829
      3 C3         -6.2442    1.7973   -1.5481 C.ar      1 <0>        -0.0766
      4 C4         -6.4104    1.9263   -2.9168 C.ar      1 <0>        -0.1210
      5 C5         -5.3469    1.8497   -3.7988 C.ar      1 <0>        -0.1389
      6 C6         -4.0499    1.6381   -3.3624 C.ar      1 <0>        -0.0829
      7 C7         -3.8611    1.5048   -1.9878 C.ar      1 <0>        -0.0422
      8 C8         -4.9491    1.5836   -1.0827 C.ar      1 <0>         0.0723
      9 N1         -4.4554    1.4178    0.1851 N.pl3     1 <0>        -0.5136
     10 H1         -4.9923    1.4260    0.9929 H         1 <0>         0.4329
     11 C9         -3.1239    1.2429    0.1525 C.2       1 <0>         0.2213
     12 C10        -2.6836    1.2787   -1.1662 C.2       1 <0>        -0.3173
     13 C11        -1.3209    1.1129   -1.5159 C.2       1 <0>         0.4312
     14 O1         -0.9571    1.1810   -2.6721 O.2       1 <0>        -0.4957
     15 C12        -0.3342    0.8477   -0.4001 C.3       1 <0>        -0.1575
     16 C13        -0.7921    1.5495    0.8784 C.3       1 <0>        -0.1029
     17 C14        -2.1714    1.0406    1.3069 C.3       1 <0>         0.0096
     18 C15        -2.6593    1.8295    2.5236 C.3       1 <0>        -0.1265
     19 C16        -1.7680    1.5144    3.7266 C.3       1 <0>        -0.1496
     20 C17        -2.0900   -0.4471    1.6547 C.3       1 <0>        -0.1536
     21 C18        -3.4399   -0.9288    2.1203 C.2       1 <0>         0.4721
     22 O2         -4.3940   -0.1888    2.0751 O.co2     1 <0>        -0.6461
     23 H2         -6.6255    3.5868    0.4535 H         1 <0>         0.0516
     24 H3         -7.6954    3.9972   -0.9086 H         1 <0>         0.0557
     25 H4         -8.3860    3.3757    0.6096 H         1 <0>         0.0570
     26 H5         -8.3286    1.6100   -1.1304 H         1 <0>         0.0741
     27 H6         -7.2588    1.1997    0.2317 H         1 <0>         0.0726
     28 H7         -7.4029    2.0924   -3.3088 H         1 <0>         0.1160
     29 H8         -5.5336    1.9577   -4.8570 H         1 <0>         0.1148
     30 H9         -3.2231    1.5795   -4.0547 H         1 <0>         0.1311
     31 H10        -0.2772   -0.1365   -0.2325 H         1 <0>         0.0894
     32 H11         0.6472    1.2247   -0.6880 H         1 <0>         0.0890
     33 H12        -0.0747    1.3517    1.6748 H         1 <0>         0.0824
     34 H13        -0.8424    2.6239    0.7015 H         1 <0>         0.0691
     35 H14        -2.6132    2.8968    2.3069 H         1 <0>         0.0529
     36 H15        -3.6879    1.5488    2.7501 H         1 <0>         0.0989
     37 H16        -2.1075    2.0865    4.5901 H         1 <0>         0.0502
     38 H17        -1.8244    0.4494    3.9515 H         1 <0>         0.0630
     39 H18        -0.7372    1.7829    3.4953 H         1 <0>         0.0509
     40 H19        -1.7878   -1.0107    0.7720 H         1 <0>         0.0713
     41 H20        -1.3578   -0.5951    2.4485 H         1 <0>         0.0837
     42 O3         -3.5824   -2.1799    2.5853 O.co2     1 <0>        -0.7617
@<TRIPOS>BOND
     1    1    2 1
     2    1   23 1
     3    1   24 1
     4    1   25 1
     5    2    3 1
     6    2   26 1
     7    2   27 1
     8    3    8 ar
     9    3    4 ar
    10    4    5 ar
    11    4   28 1
    12    5    6 ar
    13    5   29 1
    14    6    7 ar
    15    6   30 1
    16    7   12 1
    17    7    8 ar
    18    8    9 1
    19    9   10 1
    20    9   11 1
    21   11   17 1
    22   11   12 2
    23   12   13 1
    24   13   14 2
    25   13   15 1
    26   15   16 1
    27   15   31 1
    28   15   32 1
    29   16   17 1
    30   16   33 1
    31   16   34 1
    32   17   18 1
    33   17   20 1
    34   18   19 1
    35   18   35 1
    36   18   36 1
    37   19   37 1
    38   19   38 1
    39   19   39 1
    40   20   21 1
    41   20   40 1
    42   20   41 1
    43   21   22 2
    44   21   42 1
@<TRIPOS>MOLECULE
ZINC03814791
   44    46     0     0     0
SMALL
USER_CHARGES

@<TRIPOS>ATOM
      1 C1         -3.4808   -1.7310    1.4389 C.3       1 <0>        -0.1457
      2 C2         -2.2551   -0.8173    1.3757 C.3       1 <0>        -0.5760
      3 C3         -1.2993   -1.1666    2.5181 C.3       1 <0>        -0.1394
      4 S1         -1.4095   -1.0489   -0.2124 S.o2      1 <0>         2.5162
      5 O1         -2.1660   -0.4584   -1.2604 O.2       1 <0>        -0.9332
      6 O2         -0.9356   -2.3839   -0.3244 O.2       1 <0>        -0.9167
      7 C4          0.0464   -0.0631   -0.0981 C.2       1 <0>        -0.7862
      8 C5         -0.0536    1.3901    0.0084 C.ar      1 <0>         0.0881
      9 C6         -1.2871    2.0464    0.0301 C.ar      1 <0>        -0.1407
     10 C7         -1.3262    3.4084    0.1261 C.ar      1 <0>        -0.0482
     11 C8         -0.1541    4.1523    0.2134 C.ar      1 <0>        -0.0651
     12 C9          1.0762    3.5325    0.2002 C.ar      1 <0>        -0.0227
     13 C10         1.1421    2.1421    0.0975 C.ar      1 <0>        -0.1632
     14 C11         2.4199    1.4253    0.0787 C.2       1 <0>         0.5749
     15 O3          3.4699    2.0382    0.1533 O.2       1 <0>        -0.4899
     16 N1          2.4221    0.0816   -0.0227 N.am      1 <0>        -0.5427
     17 C12         1.2676   -0.6449   -0.1087 C.2       1 <0>         0.4937
     18 O4          1.3489   -1.9929   -0.2074 O.3       1 <0>        -0.4142
     19 C13         3.7055   -0.6246   -0.0410 C.3       1 <0>         0.1142
     20 C14         4.1936   -0.7429   -1.4618 C.ar      1 <0>        -0.1342
     21 C15         3.8463   -1.8437   -2.2225 C.ar      1 <0>        -0.1109
     22 C16         4.2900   -1.9499   -3.5274 C.ar      1 <0>        -0.1153
     23 C17         5.0897   -0.9605   -4.0682 C.ar      1 <0>        -0.1023
     24 C18         5.4413    0.1377   -3.3058 C.ar      1 <0>        -0.1182
     25 C19         4.9933    0.2465   -2.0026 C.ar      1 <0>        -0.0856
     26 Cl1        -0.2426    5.8813    0.3410 Cl        1 <0>        -0.0553
     27 H1         -3.1648   -2.7698    1.3435 H         1 <0>         0.0764
     28 H2         -3.9889   -1.5918    2.3931 H         1 <0>         0.0863
     29 H3         -4.1617   -1.4822    0.6249 H         1 <0>         0.0729
     30 H4         -2.5710    0.2215    1.4710 H         1 <0>         0.1380
     31 H5         -0.9833   -2.2054    2.4228 H         1 <0>         0.0767
     32 H6         -0.4261   -0.5157    2.4731 H         1 <0>         0.0669
     33 H7         -1.8074   -1.0274    3.4724 H         1 <0>         0.0804
     34 H8         -2.2046    1.4801   -0.0331 H         1 <0>         0.1453
     35 H9         -2.2803    3.9143    0.1386 H         1 <0>         0.1475
     36 H10         1.9816    4.1174    0.2684 H         1 <0>         0.1513
     37 H11         2.2526   -2.3275   -0.2883 H         1 <0>         0.4024
     38 H12         4.4346   -0.0686    0.5485 H         1 <0>         0.1292
     39 H13         3.5784   -1.6204    0.3837 H         1 <0>         0.1035
     40 H14         3.2252   -2.6188   -1.7986 H         1 <0>         0.1211
     41 H15         4.0156   -2.8080   -4.1229 H         1 <0>         0.1304
     42 H16         5.4400   -1.0456   -5.0863 H         1 <0>         0.1284
     43 H17         6.0664    0.9106   -3.7282 H         1 <0>         0.1287
     44 H18         5.2683    1.1043   -1.4069 H         1 <0>         0.1332
@<TRIPOS>BOND
     1    1    2 1
     2    1   27 1
     3    1   28 1
     4    1   29 1
     5    2    3 1
     6    2    4 1
     7    2   30 1
     8    3   31 1
     9    3   32 1
    10    3   33 1
    11    4    5 2
    12    4    6 2
    13    4    7 1
    14    7   17 2
    15    7    8 1
    16    8   13 ar
    17    8    9 ar
    18    9   10 ar
    19    9   34 1
    20   10   11 ar
    21   10   35 1
    22   11   12 ar
    23   11   26 1
    24   12   13 ar
    25   12   36 1
    26   13   14 1
    27   14   15 2
    28   14   16 am
    29   16   17 1
    30   16   19 1
    31   17   18 1
    32   18   37 1
    33   19   20 1
    34   19   38 1
    35   19   39 1
    36   20   25 ar
    37   20   21 ar
    38   21   22 ar
    39   21   40 1
    40   22   23 ar
    41   22   41 1
    42   23   24 ar
    43   23   42 1
    44   24   25 ar
    45   24   43 1
    46   25   44 1
@<TRIPOS>MOLECULE
ZINC03814793
   43    45     0     0     0
SMALL
USER_CHARGES

@<TRIPOS>ATOM
      1 C1          3.2295   -1.3981   -1.3227 C.3       1 <0>        -0.1524
      2 C2          1.8240   -1.9930   -1.4306 C.3       1 <0>        -0.1139
      3 C3          1.3809   -2.5065   -0.0592 C.3       1 <0>        -0.0881
      4 C4         -0.0436   -2.9915   -0.1406 C.2       1 <0>        -0.0810
      5 C5         -0.4273   -4.2662   -0.3415 C.2       1 <0>        -0.1144
      6 C6         -1.8899   -4.3478   -0.3661 C.ar      1 <0>        -0.0875
      7 C7         -2.7762   -5.4143   -0.5441 C.ar      1 <0>         0.0004
      8 C8         -4.1353   -5.1887   -0.5183 C.ar      1 <0>        -0.6576
      9 C9         -4.6362   -3.9110   -0.3179 C.ar      1 <0>        -0.0263
     10 C10        -3.7794   -2.8436   -0.1405 C.ar      1 <0>        -0.1113
     11 C11        -2.4045   -3.0499   -0.1626 C.ar      1 <0>        -0.0226
     12 C12        -1.2408   -2.1525   -0.0099 C.2       1 <0>        -0.0748
     13 C13        -1.2728   -0.8039    0.2050 C.2       1 <0>        -0.0149
     14 C14        -0.1045   -0.1242    0.7735 C.ar      1 <0>        -0.0844
     15 C15         0.4871   -0.6052    1.9491 C.ar      1 <0>        -0.0598
     16 C16         1.5844    0.0383    2.4768 C.ar      1 <0>        -0.1580
     17 C17         2.1045    1.1598    1.8470 C.ar      1 <0>         0.1124
     18 C18         1.5240    1.6421    0.6829 C.ar      1 <0>        -0.1538
     19 C19         0.4263    1.0093    0.1434 C.ar      1 <0>        -0.0667
     20 F1          3.1818    1.7852    2.3700 F         1 <0>        -0.1351
     21 S1         -5.2477   -6.5366   -0.7427 S.o2      1 <0>         2.5010
     22 O1         -4.5239   -7.6800   -0.3093 O.2       1 <0>        -0.9367
     23 O2         -6.4387   -6.1383   -0.0778 O.2       1 <0>        -0.9363
     24 C20        -5.5283   -6.6163   -2.5331 C.3       1 <0>        -0.6503
     25 H1          3.2412   -0.6320   -0.5474 H         1 <0>         0.0531
     26 H2          3.9385   -2.1853   -1.0663 H         1 <0>         0.0547
     27 H3          3.5100   -0.9532   -2.2774 H         1 <0>         0.0557
     28 H4          1.8326   -2.8185   -2.1423 H         1 <0>         0.0622
     29 H5          1.1299   -1.2254   -1.7728 H         1 <0>         0.0607
     30 H6          1.4487   -1.6994    0.6703 H         1 <0>         0.0922
     31 H7          2.0276   -3.3286    0.2474 H         1 <0>         0.0747
     32 H8          0.2431   -5.1031   -0.4700 H         1 <0>         0.1411
     33 H9         -2.3964   -6.4130   -0.7012 H         1 <0>         0.1440
     34 H10        -5.7041   -3.7503   -0.3003 H         1 <0>         0.1462
     35 H11        -4.1756   -1.8510    0.0148 H         1 <0>         0.1336
     36 H12        -2.1586   -0.2383   -0.0437 H         1 <0>         0.1409
     37 H13         0.0807   -1.4757    2.4426 H         1 <0>         0.1371
     38 H14         2.0412   -0.3311    3.3830 H         1 <0>         0.1412
     39 H15         1.9342    2.5159    0.1985 H         1 <0>         0.1402
     40 H16        -0.0242    1.3856   -0.7632 H         1 <0>         0.1376
     41 H17        -4.5799   -6.7873   -3.0422 H         1 <0>         0.1315
     42 H18        -6.2136   -7.4338   -2.7573 H         1 <0>         0.1337
     43 H19        -5.9602   -5.6759   -2.8754 H         1 <0>         0.1318
@<TRIPOS>BOND
     1    1    2 1
     2    1   25 1
     3    1   26 1
     4    1   27 1
     5    2    3 1
     6    2   28 1
     7    2   29 1
     8    3    4 1
     9    3   30 1
    10    3   31 1
    11    4   12 1
    12    4    5 2
    13    5    6 1
    14    5   32 1
    15    6   11 ar
    16    6    7 ar
    17    7    8 ar
    18    7   33 1
    19    8    9 ar
    20    8   21 1
    21    9   10 ar
    22    9   34 1
    23   10   11 ar
    24   10   35 1
    25   11   12 1
    26   12   13 2
    27   13   14 1
    28   13   36 1
    29   14   19 ar
    30   14   15 ar
    31   15   16 ar
    32   15   37 1
    33   16   17 ar
    34   16   38 1
    35   17   18 ar
    36   17   20 1
    37   18   19 ar
    38   18   39 1
    39   19   40 1
    40   21   22 2
    41   21   23 2
    42   21   24 1
    43   24   41 1
    44   24   42 1
    45   24   43 1
@<TRIPOS>MOLECULE
ZINC03814795
   41    44     0     0     0
SMALL
USER_CHARGES

@<TRIPOS>ATOM
      1 C1          9.6299    1.2860   -0.0789 C.ar      1 <0>        -0.1058
      2 C2          8.9338    0.0899   -0.0779 C.ar      1 <0>        -0.1214
      3 C3          7.5549    0.0905   -0.0649 C.ar      1 <0>        -0.0916
      4 C4          6.8601    1.3036   -0.0527 C.ar      1 <0>        -0.0781
      5 C5          7.5703    2.5078   -0.0592 C.ar      1 <0>        -0.1020
      6 C6          8.9492    2.4909   -0.0664 C.ar      1 <0>        -0.1217
      7 C7          5.3876    1.3129   -0.0393 C.2       1 <0>        -0.0167
      8 C8          4.7218    2.4833   -0.0276 C.2       1 <0>        -0.1296
      9 C9          3.2558    2.4926   -0.0143 C.2       1 <0>         0.3463
     10 N1          2.4914    1.4230   -0.0130 N.2       1 <0>        -0.4703
     11 C10         1.1891    1.7931    0.0003 C.ar      1 <0>         0.0553
     12 C11        -0.0126    1.0758    0.0080 C.ar      1 <0>         0.0106
     13 C12        -1.2039    1.7437    0.0172 C.ar      1 <0>        -0.0444
     14 C13        -1.2380    3.1311    0.0284 C.ar      1 <0>        -0.0556
     15 C14        -0.0667    3.8596    0.0218 C.ar      1 <0>        -0.0933
     16 C15         1.1538    3.1997    0.0077 C.ar      1 <0>         0.0897
     17 N2          2.4713    3.6206   -0.0017 N.pl3     1 <0>        -0.4377
     18 C16         2.9209    4.9465    0.0010 C.ar      1 <0>         0.1049
     19 C17         2.6676    5.7649    1.0940 C.ar      1 <0>        -0.1050
     20 C18         3.1171    7.0708    1.0959 C.ar      1 <0>        -0.1031
     21 C19         3.8093    7.5669    0.0063 C.ar      1 <0>        -0.1014
     22 C20         4.0586    6.7561   -1.0858 C.ar      1 <0>        -0.1034
     23 C21         3.6163    5.4477   -1.0916 C.ar      1 <0>        -0.1048
     24 N3         -2.4718    0.9799    0.0196 N.pl3     1 <0>         0.0312
     25 O1         -2.4492   -0.2379    0.0133 O.2       1 <0>        -0.1580
     26 O2         -3.5378    1.5691    0.0278 O.3       1 <0>        -0.1546
     27 H1         10.7098    1.2792   -0.0891 H         1 <0>         0.1257
     28 H2          9.4720   -0.8465   -0.0876 H         1 <0>         0.1280
     29 H3          7.0131   -0.8438   -0.0637 H         1 <0>         0.1299
     30 H4          7.0404    3.4489   -0.0540 H         1 <0>         0.1246
     31 H5          9.4992    3.4203   -0.0669 H         1 <0>         0.1263
     32 H6          4.8416    0.3811   -0.0388 H         1 <0>         0.1411
     33 H7          5.2678    3.4151   -0.0281 H         1 <0>         0.1401
     34 H8          0.0021   -0.0041    0.0020 H         1 <0>         0.1640
     35 H9         -2.1884    3.6441    0.0396 H         1 <0>         0.1624
     36 H10        -0.0995    4.9391    0.0278 H         1 <0>         0.1471
     37 H11         2.1229    5.3795    1.9433 H         1 <0>         0.1306
     38 H12         2.9243    7.7065    1.9474 H         1 <0>         0.1369
     39 H13         4.1562    8.5897    0.0085 H         1 <0>         0.1347
     40 H14         4.5994    7.1464   -1.9352 H         1 <0>         0.1372
     41 H15         3.8113    4.8149   -1.9448 H         1 <0>         0.1319
@<TRIPOS>BOND
     1    1    6 ar
     2    1    2 ar
     3    1   27 1
     4    2    3 ar
     5    2   28 1
     6    3    4 ar
     7    3   29 1
     8    4    5 ar
     9    4    7 1
    10    5    6 ar
    11    5   30 1
    12    6   31 1
    13    7    8 2
    14    7   32 1
    15    8    9 1
    16    8   33 1
    17    9   17 1
    18    9   10 2
    19   10   11 1
    20   11   16 ar
    21   11   12 ar
    22   12   13 ar
    23   12   34 1
    24   13   14 ar
    25   13   24 1
    26   14   15 ar
    27   14   35 1
    28   15   16 ar
    29   15   36 1
    30   16   17 1
    31   17   18 1
    32   18   23 ar
    33   18   19 ar
    34   19   20 ar
    35   19   37 1
    36   20   21 ar
    37   20   38 1
    38   21   22 ar
    39   21   39 1
    40   22   23 ar
    41   22   40 1
    42   23   41 1
    43   24   25 2
    44   24   26 1
@<TRIPOS>MOLECULE
ZINC03814795
   41    44     0     0     0
SMALL
USER_CHARGES

@<TRIPOS>ATOM
      1 C1          9.6299    1.2860   -0.0789 C.ar      1 <0>        -0.1058
      2 C2          8.9338    0.0899   -0.0779 C.ar      1 <0>        -0.1214
      3 C3          7.5549    0.0905   -0.0649 C.ar      1 <0>        -0.0916
      4 C4          6.8601    1.3036   -0.0527 C.ar      1 <0>        -0.0781
      5 C5          7.5703    2.5078   -0.0592 C.ar      1 <0>        -0.1020
      6 C6          8.9492    2.4909   -0.0664 C.ar      1 <0>        -0.1217
      7 C7          5.3876    1.3129   -0.0393 C.2       1 <0>        -0.0167
      8 C8          4.7218    2.4833   -0.0276 C.2       1 <0>        -0.1296
      9 C9          3.2558    2.4926   -0.0143 C.2       1 <0>         0.3463
     10 N1          2.4914    1.4230   -0.0130 N.2       1 <0>        -0.4703
     11 C10         1.1891    1.7931    0.0003 C.ar      1 <0>         0.0553
     12 C11        -0.0126    1.0758    0.0080 C.ar      1 <0>         0.0106
     13 C12        -1.2039    1.7437    0.0172 C.ar      1 <0>        -0.0444
     14 C13        -1.2380    3.1311    0.0284 C.ar      1 <0>        -0.0556
     15 C14        -0.0667    3.8596    0.0218 C.ar      1 <0>        -0.0933
     16 C15         1.1538    3.1997    0.0077 C.ar      1 <0>         0.0897
     17 N2          2.4713    3.6206   -0.0017 N.pl3     1 <0>        -0.4377
     18 C16         2.9209    4.9465    0.0010 C.ar      1 <0>         0.1049
     19 C17         2.6676    5.7649    1.0940 C.ar      1 <0>        -0.1050
     20 C18         3.1171    7.0708    1.0959 C.ar      1 <0>        -0.1031
     21 C19         3.8093    7.5669    0.0063 C.ar      1 <0>        -0.1014
     22 C20         4.0586    6.7561   -1.0858 C.ar      1 <0>        -0.1034
     23 C21         3.6163    5.4477   -1.0916 C.ar      1 <0>        -0.1048
     24 N3         -2.4718    0.9799    0.0196 N.pl3     1 <0>         0.0312
     25 O1         -2.4492   -0.2379    0.0133 O.2       1 <0>        -0.1580
     26 O2         -3.5378    1.5691    0.0278 O.3       1 <0>        -0.1546
     27 H1         10.7098    1.2792   -0.0891 H         1 <0>         0.1257
     28 H2          9.4720   -0.8465   -0.0876 H         1 <0>         0.1280
     29 H3          7.0131   -0.8438   -0.0637 H         1 <0>         0.1299
     30 H4          7.0404    3.4489   -0.0540 H         1 <0>         0.1246
     31 H5          9.4992    3.4203   -0.0669 H         1 <0>         0.1263
     32 H6          4.8416    0.3811   -0.0388 H         1 <0>         0.1411
     33 H7          5.2678    3.4151   -0.0281 H         1 <0>         0.1401
     34 H8          0.0021   -0.0041    0.0020 H         1 <0>         0.1640
     35 H9         -2.1884    3.6441    0.0396 H         1 <0>         0.1624
     36 H10        -0.0995    4.9391    0.0278 H         1 <0>         0.1471
     37 H11         2.1229    5.3795    1.9433 H         1 <0>         0.1306
     38 H12         2.9243    7.7065    1.9474 H         1 <0>         0.1369
     39 H13         4.1562    8.5897    0.0085 H         1 <0>         0.1347
     40 H14         4.5994    7.1464   -1.9352 H         1 <0>         0.1372
     41 H15         3.8113    4.8149   -1.9448 H         1 <0>         0.1319
@<TRIPOS>BOND
     1    1    6 ar
     2    1    2 ar
     3    1   27 1
     4    2    3 ar
     5    2   28 1
     6    3    4 ar
     7    3   29 1
     8    4    5 ar
     9    4    7 1
    10    5    6 ar
    11    5   30 1
    12    6   31 1
    13    7    8 2
    14    7   32 1
    15    8    9 1
    16    8   33 1
    17    9   17 1
    18    9   10 2
    19   10   11 1
    20   11   16 ar
    21   11   12 ar
    22   12   13 ar
    23   12   34 1
    24   13   14 ar
    25   13   24 1
    26   14   15 ar
    27   14   35 1
    28   15   16 ar
    29   15   36 1
    30   16   17 1
    31   17   18 1
    32   18   23 ar
    33   18   19 ar
    34   19   20 ar
    35   19   37 1
    36   20   21 ar
    37   20   38 1
    38   21   22 ar
    39   21   39 1
    40   22   23 ar
    41   22   40 1
    42   23   41 1
    43   24   25 2
    44   24   26 1
@<TRIPOS>MOLECULE
ZINC03814799
   37    39     0     0     0
SMALL
USER_CHARGES

@<TRIPOS>ATOM
      1 C1         -5.5871    0.6754   -1.7777 C.3       1 <0>        -0.6492
      2 S1         -5.1912    0.8969   -0.0213 S.o2      1 <0>         2.4971
      3 O1         -4.8967   -0.3584    0.5760 O.2       1 <0>        -0.9329
      4 O2         -6.1214    1.7858    0.5818 O.2       1 <0>        -0.9304
      5 C2         -3.6612    1.7707   -0.0088 C.ar      1 <0>        -0.6466
      6 C3         -3.6665    3.1638   -0.0011 C.ar      1 <0>        -0.0315
      7 C4         -2.5002    3.8682    0.0092 C.ar      1 <0>        -0.1161
      8 C5         -1.2758    3.1848    0.0120 C.ar      1 <0>         0.0115
      9 C6         -1.2683    1.7677   -0.0021 C.ar      1 <0>        -0.0611
     10 C7         -2.4910    1.0746   -0.0063 C.ar      1 <0>         0.0168
     11 C8         -0.0436    1.0758    0.0060 C.ar      1 <0>        -0.0618
     12 C9          1.1324    1.7599    0.0162 C.ar      1 <0>        -0.0905
     13 C10         1.1529    3.1612    0.0240 C.ar      1 <0>         0.0424
     14 C11        -0.0462    3.8862    0.0220 C.ar      1 <0>        -0.0955
     15 C12        -0.0275    5.3592    0.0307 C.2       1 <0>         0.4410
     16 O3          0.0664    5.9724   -1.0155 O.2       1 <0>        -0.4175
     17 C13        -0.1227    6.0912    1.3094 C.ar      1 <0>        -0.1858
     18 C14        -0.1211    5.3922    2.5196 C.ar      1 <0>        -0.0357
     19 C15        -0.2040    6.0810    3.7102 C.ar      1 <0>        -0.1638
     20 C16        -0.3008    7.4646    3.7086 C.ar      1 <0>         0.1411
     21 C17        -0.3091    8.1632    2.5105 C.ar      1 <0>        -0.1647
     22 C18        -0.2206    7.4854    1.3140 C.ar      1 <0>        -0.0251
     23 F1         -0.3870    8.1344    4.8787 F         1 <0>        -0.1284
     24 C19         2.4053    3.8555    0.0336 C.1       1 <0>         0.2299
     25 N1          3.3989    4.4062    0.0412 N.1       1 <0>        -0.3742
     26 H1         -4.7932    0.1053   -2.2601 H         1 <0>         0.1330
     27 H2         -6.5301    0.1371   -1.8725 H         1 <0>         0.1361
     28 H3         -5.6760    1.6509   -2.2559 H         1 <0>         0.1337
     29 H4         -4.6081    3.6927   -0.0036 H         1 <0>         0.1494
     30 H5         -2.5187    4.9481    0.0147 H         1 <0>         0.1368
     31 H6         -2.5023   -0.0054   -0.0128 H         1 <0>         0.1580
     32 H7         -0.0367   -0.0041   -0.0002 H         1 <0>         0.1524
     33 H8          2.0646    1.2145    0.0178 H         1 <0>         0.1484
     34 H9         -0.0502    4.3145    2.5219 H         1 <0>         0.1408
     35 H10        -0.1976    5.5422    4.6462 H         1 <0>         0.1471
     36 H11        -0.3848    9.2405    2.5153 H         1 <0>         0.1476
     37 H12        -0.2264    8.0304    0.3817 H         1 <0>         0.1476
@<TRIPOS>BOND
     1    1    2 1
     2    1   26 1
     3    1   27 1
     4    1   28 1
     5    2    3 2
     6    2    4 2
     7    2    5 1
     8    5   10 ar
     9    5    6 ar
    10    6    7 ar
    11    6   29 1
    12    7    8 ar
    13    7   30 1
    14    8   14 ar
    15    8    9 ar
    16    9   10 ar
    17    9   11 ar
    18   10   31 1
    19   11   12 ar
    20   11   32 1
    21   12   13 ar
    22   12   33 1
    23   13   14 ar
    24   13   24 1
    25   14   15 1
    26   15   16 2
    27   15   17 1
    28   17   22 ar
    29   17   18 ar
    30   18   19 ar
    31   18   34 1
    32   19   20 ar
    33   19   35 1
    34   20   21 ar
    35   20   23 1
    36   21   22 ar
    37   21   36 1
    38   22   37 1
    39   24   25 3
@<TRIPOS>MOLECULE
ZINC03814800
   41    43     0     0     0
SMALL
USER_CHARGES

@<TRIPOS>ATOM
      1 C1         -3.0859    5.3721    5.4847 C.3       1 <0>        -0.1370
      2 C2         -3.6501    3.9534    5.5828 C.3       1 <0>        -0.0822
      3 C3         -2.6748    2.8832    5.1859 C.2       1 <0>        -0.0150
      4 C4         -2.6184    2.3772    6.4442 C.2       1 <0>        -0.1463
      5 C5         -3.5632    3.3590    6.9591 C.2       1 <0>         0.4003
      6 O1         -4.0626    3.5976    8.0393 O.2       1 <0>        -0.4067
      7 C6         -1.8765    1.2522    7.0606 C.ar      1 <0>        -0.0373
      8 C7         -2.1445   -0.0598    6.6714 C.ar      1 <0>        -0.0992
      9 C8         -1.4461   -1.1028    7.2445 C.ar      1 <0>        -0.1177
     10 C9         -0.4903   -0.8498    8.2121 C.ar      1 <0>        -0.1106
     11 C10        -0.2240    0.4492    8.6064 C.ar      1 <0>        -0.1169
     12 C11        -0.9116    1.5009    8.0361 C.ar      1 <0>        -0.0963
     13 C12        -2.0246    2.5244    3.9199 C.ar      1 <0>         0.0177
     14 C13        -2.2979    1.2926    3.3122 C.ar      1 <0>        -0.1145
     15 C14        -1.6832    0.9640    2.1231 C.ar      1 <0>        -0.0201
     16 C15        -0.7978    1.8475    1.5296 C.ar      1 <0>        -0.6536
     17 C16        -0.5178    3.0650    2.1262 C.ar      1 <0>        -0.0205
     18 C17        -1.1277    3.4120    3.3126 C.ar      1 <0>        -0.1159
     19 S1         -0.0172    1.4168    0.0098 S.o2      1 <0>         2.4982
     20 O2          0.0021   -0.0041    0.0020 O.2       1 <0>        -0.9346
     21 O3          1.1953    2.1578    0.0022 O.2       1 <0>        -0.9347
     22 C18        -1.1345    2.0336   -1.2793 C.3       1 <0>        -0.6496
     23 C19        -5.0271    3.8082    4.9317 C.3       1 <0>        -0.1346
     24 H1         -2.7861    5.5736    4.4563 H         1 <0>         0.0749
     25 H2         -3.8495    6.0886    5.7876 H         1 <0>         0.0766
     26 H3         -2.2201    5.4649    6.1404 H         1 <0>         0.0644
     27 H4         -2.8941   -0.2588    5.9198 H         1 <0>         0.1219
     28 H5         -1.6494   -2.1190    6.9404 H         1 <0>         0.1277
     29 H6          0.0504   -1.6698    8.6613 H         1 <0>         0.1261
     30 H7          0.5233    0.6406    9.3623 H         1 <0>         0.1277
     31 H8         -0.7026    2.5146    8.3444 H         1 <0>         0.1231
     32 H9         -2.9886    0.6024    3.7736 H         1 <0>         0.1363
     33 H10        -1.8930    0.0147    1.6528 H         1 <0>         0.1484
     34 H11         0.1772    3.7466    1.6586 H         1 <0>         0.1487
     35 H12        -0.9113    4.3639    3.7746 H         1 <0>         0.1387
     36 H13        -2.1080    1.5544   -1.1761 H         1 <0>         0.1322
     37 H14        -1.2479    3.1127   -1.1759 H         1 <0>         0.1323
     38 H15        -0.7188    1.8043   -2.2605 H         1 <0>         0.1347
     39 H16        -5.4644    2.8511    5.2161 H         1 <0>         0.0636
     40 H17        -5.6750    4.6178    5.2675 H         1 <0>         0.0759
     41 H18        -4.9228    3.8521    3.8476 H         1 <0>         0.0739
@<TRIPOS>BOND
     1    1    2 1
     2    1   24 1
     3    1   25 1
     4    1   26 1
     5    2    5 1
     6    2    3 1
     7    2   23 1
     8    3    4 2
     9    3   13 1
    10    4    5 1
    11    4    7 1
    12    5    6 2
    13    7   12 ar
    14    7    8 ar
    15    8    9 ar
    16    8   27 1
    17    9   10 ar
    18    9   28 1
    19   10   11 ar
    20   10   29 1
    21   11   12 ar
    22   11   30 1
    23   12   31 1
    24   13   18 ar
    25   13   14 ar
    26   14   15 ar
    27   14   32 1
    28   15   16 ar
    29   15   33 1
    30   16   17 ar
    31   16   19 1
    32   17   18 ar
    33   17   34 1
    34   18   35 1
    35   19   20 2
    36   19   21 2
    37   19   22 1
    38   22   36 1
    39   22   37 1
    40   22   38 1
    41   23   39 1
    42   23   40 1
    43   23   41 1
@<TRIPOS>MOLECULE
ZINC03814801
   41    43     0     0     0
SMALL
USER_CHARGES

@<TRIPOS>ATOM
      1 C1         -4.0965    2.3614    7.9967 C.3       1 <0>        -0.1358
      2 C2         -3.5965    3.3933    6.9837 C.3       1 <0>        -0.0871
      3 C3         -2.2211    3.1074    6.4542 C.2       1 <0>         0.0282
      4 C4         -2.6806    2.8863    5.1963 C.2       1 <0>        -0.1885
      5 C5         -4.0622    3.1461    5.5776 C.2       1 <0>         0.4047
      6 O1         -5.1319    3.1580    5.0042 O.2       1 <0>        -0.4105
      7 C6         -2.0245    2.5243    3.9178 C.ar      1 <0>         0.0330
      8 C7         -2.2971    1.2973    3.3139 C.ar      1 <0>        -0.1194
      9 C8         -1.6828    0.9656    2.1238 C.ar      1 <0>        -0.0200
     10 C9         -0.7978    1.8475    1.5296 C.ar      1 <0>        -0.6580
     11 C10        -0.5190    3.0638    2.1269 C.ar      1 <0>        -0.0209
     12 C11        -1.1315    3.4091    3.3142 C.ar      1 <0>        -0.1219
     13 S1         -0.0172    1.4168    0.0098 S.o2      1 <0>         2.4997
     14 O2          0.0021   -0.0041    0.0020 O.2       1 <0>        -0.9360
     15 O3          1.1953    2.1578    0.0022 O.2       1 <0>        -0.9363
     16 C12        -1.1345    2.0336   -1.2793 C.3       1 <0>        -0.6500
     17 C13        -0.8866    3.0784    7.0646 C.ar      1 <0>        -0.0541
     18 C14        -0.5826    2.1292    8.0483 C.ar      1 <0>        -0.0915
     19 C15         0.6752    2.1048    8.6115 C.ar      1 <0>        -0.1178
     20 C16         1.6327    3.0234    8.2165 C.ar      1 <0>        -0.1042
     21 C17         1.3388    3.9692    7.2491 C.ar      1 <0>        -0.1170
     22 C18         0.0882    4.0036    6.6707 C.ar      1 <0>        -0.0911
     23 C19        -3.7912    4.8363    7.4534 C.3       1 <0>        -0.1341
     24 H1         -3.4206    2.3343    8.8514 H         1 <0>         0.0757
     25 H2         -5.0962    2.6369    8.3327 H         1 <0>         0.0763
     26 H3         -4.1289    1.3780    7.5278 H         1 <0>         0.0639
     27 H4         -2.9875    0.6079    3.7770 H         1 <0>         0.1344
     28 H5         -1.8929    0.0154    1.6553 H         1 <0>         0.1468
     29 H6          0.1761    3.7464    1.6606 H         1 <0>         0.1466
     30 H7         -0.9165    4.3608    3.7772 H         1 <0>         0.1330
     31 H8         -2.1080    1.5544   -1.1761 H         1 <0>         0.1322
     32 H9         -1.2479    3.1127   -1.1759 H         1 <0>         0.1320
     33 H10        -0.7188    1.8043   -2.2605 H         1 <0>         0.1342
     34 H11        -1.3301    1.4152    8.3613 H         1 <0>         0.1276
     35 H12         0.9129    1.3704    9.3668 H         1 <0>         0.1296
     36 H13         2.6148    3.0019    8.6654 H         1 <0>         0.1275
     37 H14         2.0918    4.6819    6.9466 H         1 <0>         0.1298
     38 H15        -0.1392    4.7415    5.9157 H         1 <0>         0.1251
     39 H16        -3.6185    5.5164    6.6193 H         1 <0>         0.0630
     40 H17        -4.8091    4.9643    7.8217 H         1 <0>         0.0757
     41 H18        -3.0848    5.0563    8.2538 H         1 <0>         0.0754
@<TRIPOS>BOND
     1    1    2 1
     2    1   24 1
     3    1   25 1
     4    1   26 1
     5    2    5 1
     6    2    3 1
     7    2   23 1
     8    3    4 2
     9    3   17 1
    10    4    5 1
    11    4    7 1
    12    5    6 2
    13    7   12 ar
    14    7    8 ar
    15    8    9 ar
    16    8   27 1
    17    9   10 ar
    18    9   28 1
    19   10   11 ar
    20   10   13 1
    21   11   12 ar
    22   11   29 1
    23   12   30 1
    24   13   14 2
    25   13   15 2
    26   13   16 1
    27   16   31 1
    28   16   32 1
    29   16   33 1
    30   17   22 ar
    31   17   18 ar
    32   18   19 ar
    33   18   34 1
    34   19   20 ar
    35   19   35 1
    36   20   21 ar
    37   20   36 1
    38   21   22 ar
    39   21   37 1
    40   22   38 1
    41   23   39 1
    42   23   40 1
    43   23   41 1
@<TRIPOS>MOLECULE
ZINC03814802
   38    40     0     0     0
SMALL
USER_CHARGES

@<TRIPOS>ATOM
      1 C1          3.2297    4.0671    5.8636 C.3       1 <0>        -0.1106
      2 C2          1.7271    3.9641    5.9158 C.ar      1 <0>         0.1452
      3 C3          1.0019    4.9280    6.5929 C.ar      1 <0>        -0.1769
      4 C4         -0.3778    4.8296    6.6384 C.ar      1 <0>        -0.0287
      5 C5         -0.9873    3.7496    5.9919 C.ar      1 <0>        -0.1236
      6 C6         -0.1854    2.8173    5.3356 C.ar      1 <0>         0.1370
      7 N1          1.1244    2.9564    5.3149 N.ar      1 <0>        -0.4795
      8 C7         -2.4611    3.5954    6.0096 C.ar      1 <0>         0.1993
      9 C8         -3.1208    3.0664    4.8887 C.ar      1 <0>        -0.0911
     10 C9         -4.5098    2.9354    4.9248 C.ar      1 <0>        -0.0431
     11 C10        -5.1790    3.3258    6.0743 C.ar      1 <0>        -0.0904
     12 C11        -4.4593    3.8386    7.1406 C.ar      1 <0>         0.1306
     13 N2         -3.1486    3.9583    7.0834 N.ar      1 <0>        -0.4561
     14 Cl1        -6.9060    3.1793    6.1739 Cl        1 <0>        -0.0406
     15 C12        -2.3559    2.6599    3.6857 C.ar      1 <0>         0.0099
     16 C13        -2.5610    1.4034    3.1177 C.ar      1 <0>        -0.1284
     17 C14        -1.8458    1.0302    1.9981 C.ar      1 <0>        -0.0104
     18 C15        -0.9267    1.9002    1.4394 C.ar      1 <0>        -0.6687
     19 C16        -0.7149    3.1461    2.0020 C.ar      1 <0>        -0.0089
     20 C17        -1.4284    3.5324    3.1183 C.ar      1 <0>        -0.1191
     21 S1         -0.0172    1.4168    0.0098 S.o2      1 <0>         2.6998
     22 O1          0.0021   -0.0041    0.0020 O.2       1 <0>        -0.9596
     23 O2          1.1718    2.1948    0.0027 O.2       1 <0>        -0.9583
     24 N3         -0.8975    1.8855   -1.3122 N.pl3     1 <0>        -1.2499
     25 H1          3.6599    3.5373    6.7135 H         1 <0>         0.0829
     26 H2          3.5924    3.6225    4.9369 H         1 <0>         0.0820
     27 H3          3.5235    5.1160    5.9027 H         1 <0>         0.0784
     28 H4          1.5070    5.7483    7.0810 H         1 <0>         0.1418
     29 H5         -0.9687    5.5683    7.1596 H         1 <0>         0.1427
     30 H6         -0.6422    1.9758    4.8359 H         1 <0>         0.1564
     31 H7         -5.0499    2.5365    4.0788 H         1 <0>         0.1539
     32 H8         -4.9817    4.1461    8.0345 H         1 <0>         0.1737
     33 H9         -3.2780    0.7232    3.5532 H         1 <0>         0.1402
     34 H10        -2.0035    0.0570    1.5574 H         1 <0>         0.1501
     35 H11         0.0073    3.8193    1.5644 H         1 <0>         0.1472
     36 H12        -1.2654    4.5070    3.5541 H         1 <0>         0.1338
     37 H13        -1.7474    2.3376   -1.1935 H         1 <0>         0.4167
     38 H14        -0.5632    1.7079   -2.2053 H         1 <0>         0.4222
@<TRIPOS>BOND
     1    1    2 1
     2    1   25 1
     3    1   26 1
     4    1   27 1
     5    2    7 ar
     6    2    3 ar
     7    3    4 ar
     8    3   28 1
     9    4    5 ar
    10    4   29 1
    11    5    6 ar
    12    5    8 1
    13    6    7 ar
    14    6   30 1
    15    8   13 ar
    16    8    9 ar
    17    9   10 ar
    18    9   15 1
    19   10   11 ar
    20   10   31 1
    21   11   12 ar
    22   11   14 1
    23   12   13 ar
    24   12   32 1
    25   15   20 ar
    26   15   16 ar
    27   16   17 ar
    28   16   33 1
    29   17   18 ar
    30   17   34 1
    31   18   19 ar
    32   18   21 1
    33   19   20 ar
    34   19   35 1
    35   20   36 1
    36   21   22 2
    37   21   23 2
    38   21   24 1
    39   24   37 1
    40   24   38 1
@<TRIPOS>MOLECULE
ZINC03814803
   43    46     0     0     0
SMALL
USER_CHARGES

@<TRIPOS>ATOM
      1 C1          2.6921   -4.7584   -5.2818 C.3       1 <0>        -0.6511
      2 S1          3.3886   -4.0838   -3.7487 S.o2      1 <0>         2.4974
      3 O1          4.1753   -2.9350   -4.0325 O.2       1 <0>        -0.9321
      4 O2          3.9044   -5.1338   -2.9420 O.2       1 <0>        -0.9339
      5 C2          2.0014   -3.4688   -2.8533 C.ar      1 <0>        -0.6520
      6 C3          1.3273   -4.2964   -1.9734 C.ar      1 <0>        -0.0163
      7 C4          0.2396   -3.8205   -1.2700 C.ar      1 <0>        -0.1271
      8 C5         -0.1793   -2.5028   -1.4472 C.ar      1 <0>         0.0035
      9 C6          0.5009   -1.6748   -2.3389 C.ar      1 <0>        -0.1179
     10 C7          1.5903   -2.1603   -3.0333 C.ar      1 <0>        -0.0145
     11 C8         -1.3474   -1.9857   -0.6950 C.ar      1 <0>        -0.0886
     12 C9         -2.5495   -2.6952   -0.6744 C.ar      1 <0>        -0.0441
     13 C10        -3.6122   -2.1704    0.0436 C.ar      1 <0>        -0.0900
     14 C11        -3.4540   -0.9685    0.7143 C.ar      1 <0>         0.1299
     15 N1         -2.3089   -0.3182    0.6860 N.ar      1 <0>        -0.4558
     16 C12        -1.2638   -0.7745    0.0095 C.ar      1 <0>         0.1976
     17 C13         0.0021   -0.0041    0.0020 C.ar      1 <0>        -0.1207
     18 C14        -0.0169    1.3944    0.0097 C.ar      1 <0>        -0.0290
     19 C15         1.1925    2.0671    0.0018 C.ar      1 <0>        -0.1748
     20 C16         2.3703    1.3418   -0.0138 C.ar      1 <0>         0.1776
     21 N2          2.3570    0.0229   -0.0208 N.ar      1 <0>        -0.4724
     22 C17         1.2313   -0.6612   -0.0132 C.ar      1 <0>         0.1376
     23 C18         3.6896    2.0701   -0.0225 C.3       1 <0>        -0.1155
     24 C19         3.6748    3.5541   -0.3943 C.3       1 <0>        -0.1723
     25 C20         4.2370    2.5241   -1.3772 C.3       1 <0>        -0.1571
     26 Cl1        -5.1296   -3.0117    0.1018 Cl        1 <0>        -0.0411
     27 H1          2.1791   -3.9662   -5.8272 H         1 <0>         0.1317
     28 H2          3.4947   -5.1630   -5.8984 H         1 <0>         0.1345
     29 H3          1.9839   -5.5512   -5.0411 H         1 <0>         0.1320
     30 H4          1.6528   -5.3172   -1.8369 H         1 <0>         0.1489
     31 H5         -0.2863   -4.4678   -0.5838 H         1 <0>         0.1386
     32 H6          0.1781   -0.6543   -2.4836 H         1 <0>         0.1319
     33 H7          2.1201   -1.5187   -3.7218 H         1 <0>         0.1457
     34 H8         -2.6488   -3.6307   -1.2050 H         1 <0>         0.1536
     35 H9         -4.2824   -0.5602    1.2741 H         1 <0>         0.1735
     36 H10        -0.9515    1.9355    0.0171 H         1 <0>         0.1432
     37 H11         1.2165    3.1468    0.0073 H         1 <0>         0.1429
     38 H12         1.2610   -1.7408   -0.0193 H         1 <0>         0.1579
     39 H13         4.4101    1.7465    0.7287 H         1 <0>         0.1250
     40 H14         2.7109    4.0037   -0.6326 H         1 <0>         0.0993
     41 H15         4.3859    4.2069    0.1120 H         1 <0>         0.1042
     42 H16         5.3177    2.4996   -1.5171 H         1 <0>         0.1039
     43 H17         3.6431    2.2956   -2.2622 H         1 <0>         0.0958
@<TRIPOS>BOND
     1    1    2 1
     2    1   27 1
     3    1   28 1
     4    1   29 1
     5    2    3 2
     6    2    4 2
     7    2    5 1
     8    5   10 ar
     9    5    6 ar
    10    6    7 ar
    11    6   30 1
    12    7    8 ar
    13    7   31 1
    14    8    9 ar
    15    8   11 1
    16    9   10 ar
    17    9   32 1
    18   10   33 1
    19   11   16 ar
    20   11   12 ar
    21   12   13 ar
    22   12   34 1
    23   13   14 ar
    24   13   26 1
    25   14   15 ar
    26   14   35 1
    27   15   16 ar
    28   16   17 1
    29   17   22 ar
    30   17   18 ar
    31   18   19 ar
    32   18   36 1
    33   19   20 ar
    34   19   37 1
    35   20   21 ar
    36   20   23 1
    37   21   22 ar
    38   22   38 1
    39   23   25 1
    40   23   24 1
    41   23   39 1
    42   24   25 1
    43   24   40 1
    44   24   41 1
    45   25   42 1
    46   25   43 1
@<TRIPOS>MOLECULE
ZINC03814804
   39    41     0     0     0
SMALL
USER_CHARGES

@<TRIPOS>ATOM
      1 C1         -6.0634    3.2386   -1.3132 C.3       1 <0>        -0.1116
      2 C2         -4.8641    3.7994   -0.5934 C.ar      1 <0>        -0.1404
      3 C3         -3.6473    3.1412   -0.6432 C.ar      1 <0>        -0.0359
      4 C4         -2.5644    3.6967    0.0450 C.ar      1 <0>        -0.1095
      5 C5         -2.7492    4.8904    0.7416 C.ar      1 <0>         0.1238
      6 N1         -3.9255    5.4825    0.7560 N.ar      1 <0>        -0.4738
      7 C6         -4.9663    4.9794    0.1204 C.ar      1 <0>         0.1131
      8 C7         -1.2405    3.0311    0.0293 C.ar      1 <0>         0.1962
      9 C8         -0.0698    3.8063    0.0222 C.ar      1 <0>        -0.0876
     10 C9          1.1664    3.1587    0.0074 C.ar      1 <0>        -0.0444
     11 C10         1.1843    1.7726    0.0003 C.ar      1 <0>        -0.0894
     12 C11        -0.0126    1.0758    0.0080 C.ar      1 <0>         0.1293
     13 N2         -1.1687    1.7074    0.0169 N.ar      1 <0>        -0.4554
     14 Cl1         2.6947    0.9171   -0.0187 Cl        1 <0>        -0.0408
     15 C12        -0.1456    5.2868    0.0299 C.ar      1 <0>         0.0033
     16 C13        -0.9597    5.9505   -0.8866 C.ar      1 <0>        -0.1174
     17 C14        -1.0300    7.3286   -0.8715 C.ar      1 <0>        -0.0149
     18 C15        -0.2868    8.0518    0.0440 C.ar      1 <0>        -0.6520
     19 C16         0.5269    7.3988    0.9524 C.ar      1 <0>        -0.0165
     20 C17         0.6015    6.0208    0.9500 C.ar      1 <0>        -0.1269
     21 S1         -0.3765    9.8115    0.0528 S.o2      1 <0>         2.4979
     22 O1         -1.6539   10.1122   -0.4922 O.2       1 <0>        -0.9325
     23 O2         -0.0511   10.1845    1.3848 O.2       1 <0>        -0.9339
     24 C18         0.9304   10.3505   -1.0839 C.3       1 <0>        -0.6509
     25 H1         -6.0959    3.6345   -2.3282 H         1 <0>         0.0758
     26 H2         -5.9899    2.1516   -1.3494 H         1 <0>         0.0710
     27 H3         -6.9718    3.5238   -0.7827 H         1 <0>         0.0736
     28 H4         -3.5383    2.2200   -1.1962 H         1 <0>         0.1418
     29 H5         -1.9205    5.3331    1.2742 H         1 <0>         0.1564
     30 H6         -5.9133    5.4972    0.1583 H         1 <0>         0.1606
     31 H7          2.0868    3.7237    0.0013 H         1 <0>         0.1538
     32 H8          0.0021   -0.0041    0.0020 H         1 <0>         0.1736
     33 H9         -1.5370    5.3871   -1.6048 H         1 <0>         0.1320
     34 H10        -1.6633    7.8437   -1.5786 H         1 <0>         0.1460
     35 H11         1.1051    7.9686    1.6647 H         1 <0>         0.1489
     36 H12         1.2376    5.5122    1.6592 H         1 <0>         0.1386
     37 H13         0.7400    9.9421   -2.0763 H         1 <0>         0.1316
     38 H14         0.9412   11.4393   -1.1350 H         1 <0>         0.1344
     39 H15         1.8954    9.9942   -0.7233 H         1 <0>         0.1320
@<TRIPOS>BOND
     1    1    2 1
     2    1   25 1
     3    1   26 1
     4    1   27 1
     5    2    7 ar
     6    2    3 ar
     7    3    4 ar
     8    3   28 1
     9    4    5 ar
    10    4    8 1
    11    5    6 ar
    12    5   29 1
    13    6    7 ar
    14    7   30 1
    15    8   13 ar
    16    8    9 ar
    17    9   10 ar
    18    9   15 1
    19   10   11 ar
    20   10   31 1
    21   11   12 ar
    22   11   14 1
    23   12   13 ar
    24   12   32 1
    25   15   20 ar
    26   15   16 ar
    27   16   17 ar
    28   16   33 1
    29   17   18 ar
    30   17   34 1
    31   18   19 ar
    32   18   21 1
    33   19   20 ar
    34   19   35 1
    35   20   36 1
    36   21   22 2
    37   21   23 2
    38   21   24 1
    39   24   37 1
    40   24   38 1
    41   24   39 1
@<TRIPOS>MOLECULE
ZINC03814805
   39    41     0     0     0
SMALL
USER_CHARGES

@<TRIPOS>ATOM
      1 C1         -0.3884    5.3872    7.6015 C.3       1 <0>        -0.1136
      2 C2          0.3012    4.2910    6.8309 C.ar      1 <0>        -0.0050
      3 C3          1.6502    4.3743    6.5314 C.ar      1 <0>        -0.1763
      4 C4          2.2505    3.3497    5.8229 C.ar      1 <0>         0.1161
      5 N1          1.5583    2.2976    5.4298 N.ar      1 <0>        -0.4818
      6 C5          0.2746    2.1711    5.6955 C.ar      1 <0>         0.1366
      7 C6         -0.4050    3.1636    6.4005 C.ar      1 <0>        -0.1111
      8 C7         -1.8507    3.0230    6.6943 C.ar      1 <0>         0.1971
      9 C8         -2.7511    2.7497    5.6522 C.ar      1 <0>        -0.0857
     10 C9         -4.1076    2.6160    5.9522 C.ar      1 <0>        -0.0462
     11 C10        -4.5087    2.7648    7.2707 C.ar      1 <0>        -0.0878
     12 C11        -3.5623    3.0392    8.2439 C.ar      1 <0>         0.1261
     13 N2         -2.2866    3.1614    7.9386 N.ar      1 <0>        -0.4501
     14 Cl1        -6.1840    2.6090    7.6985 Cl        1 <0>        -0.0416
     15 C12        -2.2686    2.5996    4.2586 C.ar      1 <0>         0.0064
     16 C13        -2.5367    1.4310    3.5473 C.ar      1 <0>        -0.1249
     17 C14        -2.0846    1.2968    2.2504 C.ar      1 <0>        -0.0175
     18 C15        -1.3666    2.3190    1.6560 C.ar      1 <0>        -0.6526
     19 C16        -1.0927    3.4785    2.3588 C.ar      1 <0>        -0.0172
     20 C17        -1.5446    3.6263    3.6544 C.ar      1 <0>        -0.1158
     21 S1         -0.7926    2.1403   -0.0002 S.o2      1 <0>         2.4980
     22 O1         -0.6692    0.7378   -0.1920 O.2       1 <0>        -0.9338
     23 O2          0.3466    2.9857   -0.0823 O.2       1 <0>        -0.9340
     24 C18        -2.1330    2.7964   -1.0315 C.3       1 <0>        -0.6506
     25 H1         -0.4108    5.1284    8.6601 H         1 <0>         0.0878
     26 H2          0.1549    6.3226    7.4675 H         1 <0>         0.0718
     27 H3         -1.4080    5.5034    7.2342 H         1 <0>         0.0653
     28 H4          2.2275    5.2306    6.8474 H         1 <0>         0.1413
     29 H5          3.3029    3.4115    5.5880 H         1 <0>         0.1612
     30 H6         -0.2573    1.2929    5.3605 H         1 <0>         0.1520
     31 H7         -4.8272    2.4014    5.1760 H         1 <0>         0.1529
     32 H8         -3.8755    3.1547    9.2711 H         1 <0>         0.1729
     33 H9         -3.0968    0.6322    4.0105 H         1 <0>         0.1375
     34 H10        -2.2913    0.3917    1.6985 H         1 <0>         0.1481
     35 H11        -0.5277    4.2714    1.8914 H         1 <0>         0.1454
     36 H12        -1.3340    4.5339    4.2007 H         1 <0>         0.1309
     37 H13        -3.0418    2.2209   -0.8554 H         1 <0>         0.1320
     38 H14        -2.3096    3.8413   -0.7764 H         1 <0>         0.1316
     39 H15        -1.8532    2.7212   -2.0822 H         1 <0>         0.1344
@<TRIPOS>BOND
     1    1    2 1
     2    1   25 1
     3    1   26 1
     4    1   27 1
     5    2    7 ar
     6    2    3 ar
     7    3    4 ar
     8    3   28 1
     9    4    5 ar
    10    4   29 1
    11    5    6 ar
    12    6    7 ar
    13    6   30 1
    14    7    8 1
    15    8   13 ar
    16    8    9 ar
    17    9   10 ar
    18    9   15 1
    19   10   11 ar
    20   10   31 1
    21   11   12 ar
    22   11   14 1
    23   12   13 ar
    24   12   32 1
    25   15   20 ar
    26   15   16 ar
    27   16   17 ar
    28   16   33 1
    29   17   18 ar
    30   17   34 1
    31   18   19 ar
    32   18   21 1
    33   19   20 ar
    34   19   35 1
    35   20   36 1
    36   21   22 2
    37   21   23 2
    38   21   24 1
    39   24   37 1
    40   24   38 1
    41   24   39 1
@<TRIPOS>MOLECULE
ZINC03814806
   39    41     0     0     0
SMALL
USER_CHARGES

@<TRIPOS>ATOM
      1 C1         -0.0345    1.0198    1.5806 C.3       1 <0>        -0.1196
      2 C2         -0.0147    1.9641    0.4064 C.ar      1 <0>         0.1683
      3 C3         -1.2045    2.2746   -0.2508 C.ar      1 <0>        -0.1087
      4 C4         -1.1675    3.1567   -1.3350 C.ar      1 <0>        -0.0422
      5 C5          0.0573    3.6770   -1.7163 C.ar      1 <0>        -0.1780
      6 C6          1.1936    3.3156   -1.0159 C.ar      1 <0>         0.1198
      7 N1          1.1271    2.4847    0.0066 N.ar      1 <0>        -0.4830
      8 C7         -2.4880    1.6836    0.1959 C.ar      1 <0>         0.1994
      9 C8         -3.5809    2.5194    0.4762 C.ar      1 <0>        -0.0874
     10 C9         -4.7803    1.9416    0.8950 C.ar      1 <0>        -0.0456
     11 C10        -4.8402    0.5620    1.0164 C.ar      1 <0>        -0.0882
     12 C11        -3.7199   -0.1971    0.7218 C.ar      1 <0>         0.1272
     13 N2         -2.5990    0.3687    0.3231 N.ar      1 <0>        -0.4513
     14 Cl1        -6.3075   -0.2080    1.5341 Cl        1 <0>        -0.0411
     15 C12        -3.4630    3.9898    0.3294 C.ar      1 <0>         0.0092
     16 C13        -2.4642    4.6832    1.0112 C.ar      1 <0>        -0.1147
     17 C14        -2.3563    6.0514    0.8670 C.ar      1 <0>        -0.0181
     18 C15        -3.2433    6.7362    0.0559 C.ar      1 <0>        -0.6545
     19 C16        -4.2397    6.0541   -0.6190 C.ar      1 <0>        -0.0188
     20 C17        -4.3541    4.6852   -0.4866 C.ar      1 <0>        -0.1258
     21 S1         -3.1039    8.4840   -0.1177 S.o2      1 <0>         2.4978
     22 O1         -1.7356    8.7662    0.1415 O.2       1 <0>        -0.9342
     23 O2         -3.6744    8.7690   -1.3876 O.2       1 <0>        -0.9348
     24 C18        -4.1437    9.1680    1.2020 C.3       1 <0>        -0.6502
     25 H1         -0.2743    1.5736    2.4883 H         1 <0>         0.0742
     26 H2         -0.7881    0.2499    1.4150 H         1 <0>         0.0949
     27 H3          0.9446    0.5528    1.6879 H         1 <0>         0.0815
     28 H4         -2.0708    3.4216   -1.8645 H         1 <0>         0.1333
     29 H5          0.1247    4.3582   -2.5517 H         1 <0>         0.1414
     30 H6          2.1507    3.7198   -1.3109 H         1 <0>         0.1616
     31 H7         -5.6410    2.5544    1.1188 H         1 <0>         0.1527
     32 H8         -3.7673   -1.2719    0.8166 H         1 <0>         0.1741
     33 H9         -1.7736    4.1501    1.6479 H         1 <0>         0.1314
     34 H10        -1.5803    6.5891    1.3915 H         1 <0>         0.1461
     35 H11        -4.9297    6.5939   -1.2506 H         1 <0>         0.1477
     36 H12        -5.1326    4.1538   -1.0137 H         1 <0>         0.1369
     37 H13        -3.7736    8.8280    2.1693 H         1 <0>         0.1320
     38 H14        -4.1112   10.2568    1.1628 H         1 <0>         0.1347
     39 H15        -5.1712    8.8301    1.0670 H         1 <0>         0.1321
@<TRIPOS>BOND
     1    1    2 1
     2    1   25 1
     3    1   26 1
     4    1   27 1
     5    2    7 ar
     6    2    3 ar
     7    3    4 ar
     8    3    8 1
     9    4    5 ar
    10    4   28 1
    11    5    6 ar
    12    5   29 1
    13    6    7 ar
    14    6   30 1
    15    8   13 ar
    16    8    9 ar
    17    9   10 ar
    18    9   15 1
    19   10   11 ar
    20   10   31 1
    21   11   12 ar
    22   11   14 1
    23   12   13 ar
    24   12   32 1
    25   15   20 ar
    26   15   16 ar
    27   16   17 ar
    28   16   33 1
    29   17   18 ar
    30   17   34 1
    31   18   19 ar
    32   18   21 1
    33   19   20 ar
    34   19   35 1
    35   20   36 1
    36   21   22 2
    37   21   23 2
    38   21   24 1
    39   24   37 1
    40   24   38 1
    41   24   39 1
@<TRIPOS>MOLECULE
ZINC03814807
   37    39     0     0     0
SMALL
USER_CHARGES

@<TRIPOS>ATOM
      1 C1          3.6758   -4.3020   -7.1844 C.3       1 <0>        -0.6502
      2 S1          4.1007   -2.7343   -6.3767 S.o2      1 <0>         2.4994
      3 O1          3.4181   -1.6586   -7.0062 O.2       1 <0>        -0.9367
      4 O2          5.5011   -2.6669   -6.1450 O.2       1 <0>        -0.9368
      5 C2          3.3840   -2.8433   -4.7708 C.ar      1 <0>        -0.6599
      6 C3          4.1170   -3.3763   -3.7247 C.ar      1 <0>        -0.0220
      7 C4          3.5637   -3.4648   -2.4650 C.ar      1 <0>        -0.1243
      8 C5          2.2573   -3.0140   -2.2457 C.ar      1 <0>         0.0268
      9 C6          1.5212   -2.4815   -3.3098 C.ar      1 <0>        -0.1212
     10 C7          2.0911   -2.3952   -4.5623 C.ar      1 <0>        -0.0212
     11 C8          1.6593   -3.1050   -0.9060 C.2       1 <0>        -0.1033
     12 C9          1.2485   -2.1626   -0.0210 C.2       1 <0>        -0.0466
     13 C10         0.8349   -3.2108    0.9257 C.2       1 <0>        -0.1186
     14 C11         0.2850   -3.2148    2.1359 C.2       1 <0>        -0.1488
     15 C12         1.2892   -4.2770   -0.0359 C.3       1 <0>        -0.0543
     16 C13         1.2212   -0.6821   -0.0132 C.ar      1 <0>        -0.0345
     17 C14         0.0021   -0.0041    0.0020 C.ar      1 <0>        -0.1005
     18 C15        -0.0166    1.3755    0.0096 C.ar      1 <0>        -0.1189
     19 C16         1.1703    2.0864    0.0021 C.ar      1 <0>        -0.1131
     20 C17         2.3826    1.4198   -0.0130 C.ar      1 <0>        -0.1180
     21 C18         2.4146    0.0404   -0.0207 C.ar      1 <0>        -0.0987
     22 H1          2.5916   -4.4036   -7.2328 H         1 <0>         0.1316
     23 H2          4.0873   -4.3140   -8.1936 H         1 <0>         0.1337
     24 H3          4.0932   -5.1304   -6.6120 H         1 <0>         0.1317
     25 H4          5.1253   -3.7235   -3.8955 H         1 <0>         0.1453
     26 H5          4.1370   -3.8806   -1.6497 H         1 <0>         0.1353
     27 H6          0.5109   -2.1351   -3.1496 H         1 <0>         0.1334
     28 H7          1.5259   -1.9803   -5.3837 H         1 <0>         0.1448
     29 H8          0.0482   -2.2812    2.6246 H         1 <0>         0.1103
     30 H9          0.0750   -4.1516    2.6306 H         1 <0>         0.1147
     31 H10         2.1392   -4.8616    0.3160 H         1 <0>         0.0990
     32 H11         0.4815   -4.8902   -0.4355 H         1 <0>         0.0988
     33 H12        -0.9251   -0.5579    0.0075 H         1 <0>         0.1236
     34 H13        -0.9598    1.9016    0.0169 H         1 <0>         0.1263
     35 H14         1.1504    3.1662    0.0077 H         1 <0>         0.1249
     36 H15         3.3057    1.9803   -0.0188 H         1 <0>         0.1262
     37 H16         3.3616   -0.4788   -0.0322 H         1 <0>         0.1218
@<TRIPOS>BOND
     1    1    2 1
     2    1   22 1
     3    1   23 1
     4    1   24 1
     5    2    3 2
     6    2    4 2
     7    2    5 1
     8    5   10 ar
     9    5    6 ar
    10    6    7 ar
    11    6   25 1
    12    7    8 ar
    13    7   26 1
    14    8    9 ar
    15    8   11 1
    16    9   10 ar
    17    9   27 1
    18   10   28 1
    19   11   15 1
    20   11   12 2
    21   12   13 1
    22   12   16 1
    23   13   14 2
    24   13   15 1
    25   14   29 1
    26   14   30 1
    27   15   31 1
    28   15   32 1
    29   16   21 ar
    30   16   17 ar
    31   17   18 ar
    32   17   33 1
    33   18   19 ar
    34   18   34 1
    35   19   20 ar
    36   19   35 1
    37   20   21 ar
    38   20   36 1
    39   21   37 1
@<TRIPOS>MOLECULE
ZINC03814808
   45    48     0     0     0
SMALL
USER_CHARGES

@<TRIPOS>ATOM
      1 C1          5.0731   -4.2883   -6.5679 C.3       1 <0>        -0.6497
      2 S1          4.1476   -2.7399   -6.3770 S.o2      1 <0>         2.4981
      3 O1          3.0461   -2.7142   -7.2743 O.2       1 <0>        -0.9346
      4 O2          5.0442   -1.6403   -6.2989 O.2       1 <0>        -0.9346
      5 C2          3.4204   -2.8417   -4.7752 C.ar      1 <0>        -0.6533
      6 C3          4.1084   -2.3589   -3.6752 C.ar      1 <0>        -0.0199
      7 C4          3.5473   -2.4349   -2.4185 C.ar      1 <0>        -0.1146
      8 C5          2.2773   -3.0025   -2.2565 C.ar      1 <0>         0.0187
      9 C6          1.5906   -3.4931   -3.3741 C.ar      1 <0>        -0.1155
     10 C7          2.1645   -3.4043   -4.6241 C.ar      1 <0>        -0.0203
     11 C8          1.6719   -3.0881   -0.9221 C.2       1 <0>        -0.0115
     12 C9          1.2476   -2.1636   -0.0210 C.2       1 <0>        -0.1450
     13 C10         0.8348   -3.1813    0.9381 C.2       1 <0>         0.4051
     14 O3          0.3389   -3.1809    2.0459 O.2       1 <0>        -0.4061
     15 C11         1.2860   -4.2259   -0.0323 C.3       1 <0>        -0.0837
     16 C12         2.4442   -5.1144    0.4490 C.3       1 <0>        -0.1044
     17 C13         1.7753   -6.4845    0.7296 C.3       1 <0>        -0.1248
     18 C14         0.7286   -6.5958   -0.4074 C.3       1 <0>        -0.1223
     19 C15         0.1944   -5.1565   -0.5735 C.3       1 <0>        -0.1071
     20 C16         1.2206   -0.6820   -0.0132 C.ar      1 <0>        -0.0375
     21 C17         0.0021   -0.0041    0.0020 C.ar      1 <0>        -0.0961
     22 C18        -0.0166    1.3757    0.0096 C.ar      1 <0>        -0.1170
     23 C19         1.1703    2.0864    0.0021 C.ar      1 <0>        -0.1104
     24 C20         2.3822    1.4194   -0.0130 C.ar      1 <0>        -0.1177
     25 C21         2.4137    0.0399   -0.0207 C.ar      1 <0>        -0.0990
     26 H1          4.3886   -5.1329   -6.4888 H         1 <0>         0.1323
     27 H2          5.5579   -4.3038   -7.5441 H         1 <0>         0.1348
     28 H3          5.8289   -4.3587   -5.7857 H         1 <0>         0.1322
     29 H4          5.0879   -1.9219   -3.8019 H         1 <0>         0.1485
     30 H5          4.0855   -2.0582   -1.5613 H         1 <0>         0.1364
     31 H6          0.6126   -3.9361   -3.2573 H         1 <0>         0.1381
     32 H7          1.6347   -3.7784   -5.4876 H         1 <0>         0.1486
     33 H8          3.2008   -5.2110   -0.3297 H         1 <0>         0.0826
     34 H9          2.8828   -4.7095    1.3611 H         1 <0>         0.0743
     35 H10         1.2876   -6.4836    1.7044 H         1 <0>         0.0734
     36 H11         2.5051   -7.2913    0.6627 H         1 <0>         0.0751
     37 H12        -0.0772   -7.2709   -0.1192 H         1 <0>         0.0736
     38 H13         1.2012   -6.9360   -1.3288 H         1 <0>         0.0711
     39 H14        -0.7238   -5.0296    0.0001 H         1 <0>         0.0776
     40 H15         0.0097   -4.9441   -1.6265 H         1 <0>         0.0779
     41 H16        -0.9251   -0.5578    0.0075 H         1 <0>         0.1232
     42 H17        -0.9598    1.9018    0.0169 H         1 <0>         0.1277
     43 H18         1.1506    3.1662    0.0077 H         1 <0>         0.1261
     44 H19         3.3056    1.9796   -0.0188 H         1 <0>         0.1277
     45 H20         3.3604   -0.4797   -0.0322 H         1 <0>         0.1219
@<TRIPOS>BOND
     1    1    2 1
     2    1   26 1
     3    1   27 1
     4    1   28 1
     5    2    3 2
     6    2    4 2
     7    2    5 1
     8    5   10 ar
     9    5    6 ar
    10    6    7 ar
    11    6   29 1
    12    7    8 ar
    13    7   30 1
    14    8    9 ar
    15    8   11 1
    16    9   10 ar
    17    9   31 1
    18   10   32 1
    19   11   15 1
    20   11   12 2
    21   12   13 1
    22   12   20 1
    23   13   14 2
    24   13   15 1
    25   15   19 1
    26   15   16 1
    27   16   17 1
    28   16   33 1
    29   16   34 1
    30   17   18 1
    31   17   35 1
    32   17   36 1
    33   18   19 1
    34   18   37 1
    35   18   38 1
    36   19   39 1
    37   19   40 1
    38   20   25 ar
    39   20   21 ar
    40   21   22 ar
    41   21   41 1
    42   22   23 ar
    43   22   42 1
    44   23   24 ar
    45   23   43 1
    46   24   25 ar
    47   24   44 1
    48   25   45 1
@<TRIPOS>MOLECULE
ZINC03814809
   36    38     0     0     0
SMALL
USER_CHARGES

@<TRIPOS>ATOM
      1 C1         -1.8378    1.8592    2.3374 C.3       1 <0>        -0.6658
      2 S1         -1.4705    2.3157    0.6206 S.o2      1 <0>         2.5998
      3 O1         -1.1451    3.6966    0.5403 O.2       1 <0>        -0.9394
      4 O2         -2.4349    1.7467   -0.2542 O.2       1 <0>        -0.9409
      5 N1         -0.0587    1.5274    0.2634 N.pl3     1 <0>        -1.0495
      6 C2          0.0007    0.1394    0.3365 C.ar      1 <0>         0.2553
      7 C3         -1.1037   -0.6234   -0.0233 C.ar      1 <0>        -0.1888
      8 C4         -1.0530   -2.0002    0.0463 C.ar      1 <0>         0.0199
      9 C5          0.1124   -2.6377    0.4798 C.ar      1 <0>        -0.2193
     10 C6          1.2301   -1.8652    0.8430 C.ar      1 <0>         0.0410
     11 C7          1.1741   -0.4890    0.7668 C.ar      1 <0>        -0.1835
     12 S2          2.5774    0.4769    1.2170 S.3       1 <0>         0.0920
     13 C8          3.2587    0.9841   -0.3267 C.ar      1 <0>         0.0973
     14 C9          4.3365    1.8661   -0.3490 C.ar      1 <0>        -0.0631
     15 C10         4.8651    2.2516   -1.5681 C.ar      1 <0>        -0.0392
     16 C11         4.2892    1.7492   -2.7292 C.ar      1 <0>        -0.0840
     17 C12         3.2181    0.8823   -2.6326 C.ar      1 <0>         0.1360
     18 N2          2.7381    0.5276   -1.4555 N.ar      1 <0>        -0.4510
     19 Cl1         4.9100    2.2061   -4.2846 Cl        1 <0>        -0.0327
     20 Cl2         5.0117    2.4679    1.1328 Cl        1 <0>        -0.0207
     21 C13        -0.0617   -4.0958    0.4740 C.2       1 <0>         0.4082
     22 O3          0.7738   -4.9134    0.7985 O.2       1 <0>        -0.4395
     23 C14        -1.4598   -4.4015   -0.0054 C.3       1 <0>        -0.1622
     24 C15        -2.1022   -3.0356   -0.2828 C.3       1 <0>        -0.0894
     25 H1         -1.0209    2.1831    2.9822 H         1 <0>         0.1370
     26 H2         -2.7627    2.3428    2.6520 H         1 <0>         0.1399
     27 H3         -1.9507    0.7775    2.4095 H         1 <0>         0.1329
     28 H4          0.7258    2.0332   -0.0007 H         1 <0>         0.4296
     29 H5         -2.0068   -0.1356   -0.3590 H         1 <0>         0.1752
     30 H6          2.1345   -2.3502    1.1794 H         1 <0>         0.1446
     31 H7          5.7033    2.9309   -1.6167 H         1 <0>         0.1634
     32 H8          2.7678    0.4892   -3.5322 H         1 <0>         0.1771
     33 H9         -1.4136   -4.9659   -0.8296 H         1 <0>         0.1007
     34 H10        -2.0163   -4.9321    0.7672 H         1 <0>         0.1124
     35 H11        -2.9772   -2.8972    0.3523 H         1 <0>         0.1035
     36 H12        -2.3854   -2.9612   -1.3328 H         1 <0>         0.1032
@<TRIPOS>BOND
     1    1    2 1
     2    1   25 1
     3    1   26 1
     4    1   27 1
     5    2    3 2
     6    2    4 2
     7    2    5 1
     8    5    6 1
     9    5   28 1
    10    6   11 ar
    11    6    7 ar
    12    7    8 ar
    13    7   29 1
    14    8   24 1
    15    8    9 ar
    16    9   10 ar
    17    9   21 1
    18   10   11 ar
    19   10   30 1
    20   11   12 1
    21   12   13 1
    22   13   18 ar
    23   13   14 ar
    24   14   15 ar
    25   14   20 1
    26   15   16 ar
    27   15   31 1
    28   16   17 ar
    29   16   19 1
    30   17   18 ar
    31   17   32 1
    32   21   22 2
    33   21   23 1
    34   23   24 1
    35   23   33 1
    36   23   34 1
    37   24   35 1
    38   24   36 1
@<TRIPOS>MOLECULE
ZINC03814812
   41    44     0     0     0
SMALL
USER_CHARGES

@<TRIPOS>ATOM
      1 C1          0.7036    4.8684    8.5028 C.3       1 <0>        -0.0656
      2 C2         -0.5844    4.3690    7.9004 C.2       1 <0>        -0.1354
      3 C3         -0.8009    3.8537    6.6910 C.2       1 <0>         0.0133
      4 N1         -2.0612    3.4481    6.3122 N.pl3     1 <0>        -0.4160
      5 C4         -2.6787    2.8853    5.1906 C.2       1 <0>         0.0143
      6 C5         -4.0145    2.7255    5.5007 C.2       1 <0>         0.1164
      7 N2         -4.2014    3.1772    6.7538 N.2       1 <0>        -0.4289
      8 C6         -3.0661    3.6031    7.2308 C.2       1 <0>         0.1851
      9 S1         -2.2191    4.3246    8.6183 S.3       1 <0>         0.1414
     10 C7         -5.0555    2.1583    4.6125 C.ar      1 <0>        -0.0169
     11 C8         -5.0071    2.3926    3.2384 C.ar      1 <0>        -0.0983
     12 C9         -5.9770    1.8575    2.4156 C.ar      1 <0>        -0.1198
     13 C10        -7.0018    1.0989    2.9523 C.ar      1 <0>        -0.1083
     14 C11        -7.0582    0.8674    4.3151 C.ar      1 <0>        -0.1195
     15 C12        -6.0912    1.3927    5.1476 C.ar      1 <0>        -0.0843
     16 C13        -2.0249    2.5245    3.9186 C.ar      1 <0>         0.0406
     17 C14        -2.2977    1.2951    3.3129 C.ar      1 <0>        -0.1097
     18 C15        -1.6829    0.9648    2.1234 C.ar      1 <0>        -0.0166
     19 C16        -0.7978    1.8475    1.5296 C.ar      1 <0>        -0.6571
     20 C17        -0.5184    3.0644    2.1265 C.ar      1 <0>        -0.0170
     21 C18        -1.1299    3.4107    3.3131 C.ar      1 <0>        -0.1325
     22 S2         -0.0172    1.4168    0.0098 S.o2      1 <0>         2.4985
     23 O1          0.0021   -0.0041    0.0020 O.2       1 <0>        -0.9344
     24 O2          1.1953    2.1578    0.0022 O.2       1 <0>        -0.9362
     25 C19        -1.1345    2.0336   -1.2793 C.3       1 <0>        -0.6497
     26 H1          0.8207    5.9293    8.2819 H         1 <0>         0.0900
     27 H2          0.6802    4.7225    9.5827 H         1 <0>         0.0866
     28 H3          1.5415    4.3145    8.0794 H         1 <0>         0.0901
     29 H4          0.0222    3.7533    5.9990 H         1 <0>         0.1735
     30 H5         -4.2098    2.9880    2.8188 H         1 <0>         0.1219
     31 H6         -5.9383    2.0348    1.3510 H         1 <0>         0.1264
     32 H7         -7.7608    0.6853    2.3048 H         1 <0>         0.1256
     33 H8         -7.8609    0.2747    4.7283 H         1 <0>         0.1279
     34 H9         -6.1361    1.2111    6.2112 H         1 <0>         0.1291
     35 H10        -2.9880    0.6051    3.7754 H         1 <0>         0.1389
     36 H11        -1.8931    0.0151    1.6540 H         1 <0>         0.1493
     37 H12         0.1767    3.7464    1.6596 H         1 <0>         0.1474
     38 H13        -0.9141    4.3625    3.7758 H         1 <0>         0.1302
     39 H14        -2.1080    1.5544   -1.1761 H         1 <0>         0.1330
     40 H15        -1.2479    3.1127   -1.1759 H         1 <0>         0.1321
     41 H16        -0.7188    1.8043   -2.2605 H         1 <0>         0.1347
@<TRIPOS>BOND
     1    1    2 1
     2    1   26 1
     3    1   27 1
     4    1   28 1
     5    2    9 1
     6    2    3 2
     7    3    4 1
     8    3   29 1
     9    4    8 1
    10    4    5 1
    11    5    6 2
    12    5   16 1
    13    6    7 1
    14    6   10 1
    15    7    8 2
    16    8    9 1
    17   10   15 ar
    18   10   11 ar
    19   11   12 ar
    20   11   30 1
    21   12   13 ar
    22   12   31 1
    23   13   14 ar
    24   13   32 1
    25   14   15 ar
    26   14   33 1
    27   15   34 1
    28   16   21 ar
    29   16   17 ar
    30   17   18 ar
    31   17   35 1
    32   18   19 ar
    33   18   36 1
    34   19   20 ar
    35   19   22 1
    36   20   21 ar
    37   20   37 1
    38   21   38 1
    39   22   23 2
    40   22   24 2
    41   22   25 1
    42   25   39 1
    43   25   40 1
    44   25   41 1
@<TRIPOS>MOLECULE
ZINC03814812
   42    45     0     0     0
SMALL
USER_CHARGES

@<TRIPOS>ATOM
      1 C1          0.7036    4.8684    8.5028 C.3       1 <0>        -0.0830
      2 C2         -0.5844    4.3690    7.9004 C.2       1 <0>        -0.0857
      3 C3         -0.8009    3.8537    6.6910 C.2       1 <0>        -0.0043
      4 N1         -2.0612    3.4481    6.3122 N.pl3     1 <0>        -0.3626
      5 C4         -2.6787    2.8853    5.1906 C.2       1 <0>         0.0931
      6 C5         -4.0145    2.7255    5.5007 C.2       1 <0>         0.1520
      7 C6         -3.0661    3.6031    7.2308 C.cat     1 <0>         0.2001
      8 S1         -2.2191    4.3246    8.6183 S.3       1 <0>         0.2745
      9 C7         -5.0555    2.1583    4.6125 C.ar      1 <0>        -0.0733
     10 C8         -5.0071    2.3926    3.2384 C.ar      1 <0>        -0.0757
     11 C9         -5.9770    1.8575    2.4156 C.ar      1 <0>        -0.1108
     12 C10        -7.0018    1.0989    2.9523 C.ar      1 <0>        -0.0780
     13 C11        -7.0582    0.8674    4.3151 C.ar      1 <0>        -0.1097
     14 C12        -6.0912    1.3927    5.1476 C.ar      1 <0>        -0.0901
     15 C13        -2.0249    2.5245    3.9186 C.ar      1 <0>        -0.0080
     16 C14        -2.2977    1.2951    3.3129 C.ar      1 <0>        -0.0959
     17 C15        -1.6829    0.9648    2.1234 C.ar      1 <0>        -0.0154
     18 C16        -0.7978    1.8475    1.5296 C.ar      1 <0>        -0.6348
     19 C17        -0.5184    3.0644    2.1265 C.ar      1 <0>        -0.0154
     20 C18        -1.1299    3.4107    3.3131 C.ar      1 <0>        -0.1147
     21 S2         -0.0172    1.4168    0.0098 S.o2      1 <0>         2.4925
     22 O1          0.0021   -0.0041    0.0020 O.2       1 <0>        -0.9258
     23 O2          1.1953    2.1578    0.0022 O.2       1 <0>        -0.9270
     24 C19        -1.1345    2.0336   -1.2793 C.3       1 <0>        -0.6470
     25 H1          0.8207    5.9293    8.2819 H         1 <0>         0.1093
     26 H2          0.6802    4.7225    9.5827 H         1 <0>         0.1014
     27 H3          1.5415    4.3145    8.0794 H         1 <0>         0.1092
     28 H4          0.0222    3.7533    5.9990 H         1 <0>         0.2068
     29 H5         -4.2098    2.9880    2.8188 H         1 <0>         0.1324
     30 H6         -5.9383    2.0348    1.3510 H         1 <0>         0.1403
     31 H7         -7.7608    0.6853    2.3048 H         1 <0>         0.1395
     32 H8         -7.8609    0.2747    4.7283 H         1 <0>         0.1404
     33 H9         -6.1361    1.2111    6.2112 H         1 <0>         0.1280
     34 H10        -2.9880    0.6051    3.7754 H         1 <0>         0.1435
     35 H11        -1.8931    0.0151    1.6540 H         1 <0>         0.1584
     36 H12         0.1767    3.7464    1.6596 H         1 <0>         0.1573
     37 H13        -0.9141    4.3625    3.7758 H         1 <0>         0.1363
     38 H14        -2.1080    1.5544   -1.1761 H         1 <0>         0.1339
     39 H15        -1.2479    3.1127   -1.1759 H         1 <0>         0.1336
     40 H16        -0.7188    1.8043   -2.2605 H         1 <0>         0.1406
     41 N2         -4.2002    3.1772    6.7531 N.pl3     1 <0>        -0.4487
     42 H17        -5.0961    3.1851    7.2546 H         1 <0>         0.4829
@<TRIPOS>BOND
     1    1    2 1
     2    1   25 1
     3    1   26 1
     4    1   27 1
     5    2    8 1
     6    2    3 2
     7    3    4 1
     8    3   28 1
     9    4    7 1
    10    4    5 1
    11    5    6 2
    12    5   15 1
    13    6    9 1
    14    6   41 1
    15    7    8 1
    16    7   41 2
    17    9   14 ar
    18    9   10 ar
    19   10   11 ar
    20   10   29 1
    21   11   12 ar
    22   11   30 1
    23   12   13 ar
    24   12   31 1
    25   13   14 ar
    26   13   32 1
    27   14   33 1
    28   15   20 ar
    29   15   16 ar
    30   16   17 ar
    31   16   34 1
    32   17   18 ar
    33   17   35 1
    34   18   19 ar
    35   18   21 1
    36   19   20 ar
    37   19   36 1
    38   20   37 1
    39   21   22 2
    40   21   23 2
    41   21   24 1
    42   24   38 1
    43   24   39 1
    44   24   40 1
    45   41   42 1
@<TRIPOS>MOLECULE
ZINC03814814
   36    39     0     0     0
SMALL
USER_CHARGES

@<TRIPOS>ATOM
      1 C1          2.0824    8.3056   -1.2159 C.3       1 <0>        -0.1462
      2 S1          3.1435    7.4977    0.0138 S.3       1 <0>        -0.1111
      3 C2          2.6005    5.8215    0.0098 C.ar      1 <0>        -0.0738
      4 C3          3.2061    4.8941    0.8511 C.ar      1 <0>        -0.0960
      5 C4          2.7845    3.5824    0.8504 C.ar      1 <0>        -0.0882
      6 C5          1.7469    3.1841    0.0029 C.ar      1 <0>        -0.0280
      7 C6          1.1446    4.1176   -0.8453 C.ar      1 <0>        -0.0639
      8 C7          1.5676    5.4288   -0.8350 C.ar      1 <0>        -0.1287
      9 C8          1.2926    1.7805   -0.0007 C.2       1 <0>         0.0388
     10 C9         -0.0162    1.3420    0.0094 C.2       1 <0>         0.1017
     11 N1          0.0021   -0.0041    0.0020 N.2       1 <0>        -0.4279
     12 C10         1.2374   -0.4164   -0.0120 C.2       1 <0>         0.1796
     13 N2          2.1065    0.6438   -0.0146 N.pl3     1 <0>        -0.4239
     14 C11         3.4519    0.3479   -0.0285 C.2       1 <0>         0.0270
     15 C12         3.8726   -0.9160   -0.0387 C.2       1 <0>        -0.1718
     16 S2          2.3316   -1.8185   -0.0292 S.3       1 <0>         0.1357
     17 C13        -1.2242    2.1989    0.0200 C.ar      1 <0>        -0.0129
     18 C14        -1.2219    3.4038    0.7228 C.ar      1 <0>        -0.0960
     19 C15        -2.3485    4.2004    0.7241 C.ar      1 <0>        -0.1199
     20 C16        -3.4827    3.8007    0.0401 C.ar      1 <0>        -0.1111
     21 C17        -3.4928    2.6042   -0.6544 C.ar      1 <0>        -0.1209
     22 C18        -2.3706    1.8015   -0.6680 C.ar      1 <0>        -0.0871
     23 H1          2.2241    7.8303   -2.1865 H         1 <0>         0.0855
     24 H2          1.0393    8.2111   -0.9139 H         1 <0>         0.0864
     25 H3          2.3461    9.3609   -1.2861 H         1 <0>         0.1118
     26 H4          4.0081    5.2025    1.5055 H         1 <0>         0.1334
     27 H5          3.2554    2.8627    1.5037 H         1 <0>         0.1255
     28 H6          0.3456    3.8124   -1.5047 H         1 <0>         0.1312
     29 H7          1.0995    6.1517   -1.4866 H         1 <0>         0.1299
     30 H8          4.1744    1.1505   -0.0310 H         1 <0>         0.1740
     31 H9          4.8834   -1.2962   -0.0494 H         1 <0>         0.2197
     32 H10        -0.3388    3.7144    1.2614 H         1 <0>         0.1233
     33 H11        -2.3465    5.1357    1.2642 H         1 <0>         0.1251
     34 H12        -4.3636    4.4253    0.0481 H         1 <0>         0.1241
     35 H13        -4.3811    2.2976   -1.1868 H         1 <0>         0.1265
     36 H14        -2.3798    0.8677   -1.2106 H         1 <0>         0.1282
@<TRIPOS>BOND
     1    1    2 1
     2    1   23 1
     3    1   24 1
     4    1   25 1
     5    2    3 1
     6    3    8 ar
     7    3    4 ar
     8    4    5 ar
     9    4   26 1
    10    5    6 ar
    11    5   27 1
    12    6    7 ar
    13    6    9 1
    14    7    8 ar
    15    7   28 1
    16    8   29 1
    17    9   13 1
    18    9   10 2
    19   10   11 1
    20   10   17 1
    21   11   12 2
    22   12   16 1
    23   12   13 1
    24   13   14 1
    25   14   15 2
    26   14   30 1
    27   15   16 1
    28   15   31 1
    29   17   22 ar
    30   17   18 ar
    31   18   19 ar
    32   18   32 1
    33   19   20 ar
    34   19   33 1
    35   20   21 ar
    36   20   34 1
    37   21   22 ar
    38   21   35 1
    39   22   36 1
@<TRIPOS>MOLECULE
ZINC03814814
   37    40     0     0     0
SMALL
USER_CHARGES

@<TRIPOS>ATOM
      1 C1          2.0824    8.3056   -1.2159 C.3       1 <0>        -0.1536
      2 S1          3.1435    7.4977    0.0138 S.3       1 <0>        -0.0801
      3 C2          2.6005    5.8215    0.0098 C.ar      1 <0>        -0.0512
      4 C3          3.2061    4.8941    0.8511 C.ar      1 <0>        -0.0985
      5 C4          2.7845    3.5824    0.8504 C.ar      1 <0>        -0.0677
      6 C5          1.7469    3.1841    0.0029 C.ar      1 <0>        -0.0819
      7 C6          1.1446    4.1176   -0.8453 C.ar      1 <0>        -0.0465
      8 C7          1.5676    5.4288   -0.8350 C.ar      1 <0>        -0.1335
      9 C8          1.2926    1.7805   -0.0007 C.2       1 <0>         0.1209
     10 C9         -0.0162    1.3420    0.0094 C.2       1 <0>         0.1338
     11 C10         1.2374   -0.4164   -0.0120 C.cat     1 <0>         0.1981
     12 N1          2.1065    0.6438   -0.0146 N.pl3     1 <0>        -0.3732
     13 C11         3.4519    0.3479   -0.0285 C.2       1 <0>         0.0148
     14 C12         3.8726   -0.9160   -0.0387 C.2       1 <0>        -0.1262
     15 S2          2.3316   -1.8185   -0.0292 S.3       1 <0>         0.2737
     16 C13        -1.2242    2.1989    0.0200 C.ar      1 <0>        -0.0682
     17 C14        -1.2219    3.4038    0.7228 C.ar      1 <0>        -0.0734
     18 C15        -2.3485    4.2004    0.7241 C.ar      1 <0>        -0.1110
     19 C16        -3.4827    3.8007    0.0401 C.ar      1 <0>        -0.0814
     20 C17        -3.4928    2.6042   -0.6544 C.ar      1 <0>        -0.1113
     21 C18        -2.3706    1.8015   -0.6680 C.ar      1 <0>        -0.0934
     22 H1          2.2241    7.8303   -2.1865 H         1 <0>         0.0893
     23 H2          1.0393    8.2111   -0.9139 H         1 <0>         0.0897
     24 H3          2.3461    9.3609   -1.2861 H         1 <0>         0.1187
     25 H4          4.0081    5.2025    1.5055 H         1 <0>         0.1430
     26 H5          3.2554    2.8627    1.5037 H         1 <0>         0.1308
     27 H6          0.3456    3.8124   -1.5047 H         1 <0>         0.1350
     28 H7          1.0995    6.1517   -1.4866 H         1 <0>         0.1383
     29 H8          4.1744    1.1505   -0.0310 H         1 <0>         0.2077
     30 H9          4.8834   -1.2962   -0.0494 H         1 <0>         0.2461
     31 H10        -0.3388    3.7144    1.2614 H         1 <0>         0.1340
     32 H11        -2.3465    5.1357    1.2642 H         1 <0>         0.1387
     33 H12        -4.3636    4.4253    0.0481 H         1 <0>         0.1376
     34 H13        -4.3811    2.2976   -1.1868 H         1 <0>         0.1388
     35 H14        -2.3798    0.8677   -1.2106 H         1 <0>         0.1268
     36 N2          0.0033   -0.0032    0.0020 N.pl3     1 <0>        -0.4462
     37 H15        -0.8257   -0.6091    0.0067 H         1 <0>         0.4816
@<TRIPOS>BOND
     1    1    2 1
     2    1   22 1
     3    1   23 1
     4    1   24 1
     5    2    3 1
     6    3    8 ar
     7    3    4 ar
     8    4    5 ar
     9    4   25 1
    10    5    6 ar
    11    5   26 1
    12    6    7 ar
    13    6    9 1
    14    7    8 ar
    15    7   27 1
    16    8   28 1
    17    9   12 1
    18    9   10 2
    19   10   16 1
    20   10   36 1
    21   11   15 1
    22   11   12 1
    23   11   36 2
    24   12   13 1
    25   13   14 2
    26   13   29 1
    27   14   15 1
    28   14   30 1
    29   16   21 ar
    30   16   17 ar
    31   17   18 ar
    32   17   31 1
    33   18   19 ar
    34   18   32 1
    35   19   20 ar
    36   19   33 1
    37   20   21 ar
    38   20   34 1
    39   21   35 1
    40   36   37 1
@<TRIPOS>MOLECULE
ZINC03814815
   41    44     0     0     0
SMALL
USER_CHARGES

@<TRIPOS>ATOM
      1 C1         -4.6527    4.7136   10.5471 C.3       1 <0>        -0.0653
      2 C2         -4.3247    4.1739    9.1788 C.2       1 <0>        -0.1360
      3 C3         -3.1961    4.2881    8.4801 C.2       1 <0>         0.0156
      4 N1         -3.0797    3.7221    7.2300 N.pl3     1 <0>        -0.4181
      5 C4         -2.1145    3.6136    6.2238 C.2       1 <0>         0.0530
      6 C5         -2.6804    2.8862    5.1959 C.2       1 <0>         0.0809
      7 N2         -3.9320    2.5600    5.5651 N.2       1 <0>        -0.4240
      8 C6         -4.1704    3.0450    6.7507 C.2       1 <0>         0.1795
      9 S1         -5.3482    3.2159    8.0724 S.3       1 <0>         0.1380
     10 C7         -2.0245    2.5243    3.9179 C.ar      1 <0>         0.0508
     11 C8         -2.2972    1.2971    3.3139 C.ar      1 <0>        -0.1099
     12 C9         -1.6828    0.9655    2.1237 C.ar      1 <0>        -0.0220
     13 C10        -0.7978    1.8475    1.5296 C.ar      1 <0>        -0.6570
     14 C11        -0.5190    3.0639    2.1268 C.ar      1 <0>        -0.0217
     15 C12        -1.1314    3.4092    3.3141 C.ar      1 <0>        -0.1194
     16 S2         -0.0172    1.4168    0.0098 S.o2      1 <0>         2.4995
     17 O1          0.0021   -0.0041    0.0020 O.2       1 <0>        -0.9364
     18 O2          1.1953    2.1578    0.0022 O.2       1 <0>        -0.9368
     19 C13        -1.1345    2.0336   -1.2793 C.3       1 <0>        -0.6505
     20 C14        -0.7502    4.1734    6.2539 C.ar      1 <0>        -0.0305
     21 C15        -0.5387    5.4845    6.6890 C.ar      1 <0>        -0.1068
     22 C16         0.7404    5.9991    6.7203 C.ar      1 <0>        -0.1153
     23 C17         1.8117    5.2245    6.3109 C.ar      1 <0>        -0.1059
     24 C18         1.6092    3.9274    5.8729 C.ar      1 <0>        -0.1124
     25 C19         0.3364    3.3973    5.8420 C.ar      1 <0>        -0.0876
     26 H1         -5.0832    5.7103   10.4509 H         1 <0>         0.0896
     27 H2         -5.3696    4.0537   11.0357 H         1 <0>         0.0864
     28 H3         -3.7425    4.7670   11.1444 H         1 <0>         0.0896
     29 H4         -2.3621    4.8316    8.8991 H         1 <0>         0.1732
     30 H5         -2.9876    0.6077    3.7769 H         1 <0>         0.1396
     31 H6         -1.8928    0.0154    1.6552 H         1 <0>         0.1468
     32 H7          0.1761    3.7464    1.6605 H         1 <0>         0.1461
     33 H8         -0.9161    4.3608    3.7773 H         1 <0>         0.1347
     34 H9         -2.1080    1.5544   -1.1761 H         1 <0>         0.1323
     35 H10        -1.2479    3.1127   -1.1759 H         1 <0>         0.1318
     36 H11        -0.7188    1.8043   -2.2605 H         1 <0>         0.1334
     37 H12        -1.3743    6.0916    7.0045 H         1 <0>         0.1193
     38 H13         0.9060    7.0106    7.0605 H         1 <0>         0.1284
     39 H14         2.8107    5.6342    6.3336 H         1 <0>         0.1284
     40 H15         2.4500    3.3288    5.5549 H         1 <0>         0.1316
     41 H16         0.1800    2.3846    5.5007 H         1 <0>         0.1267
@<TRIPOS>BOND
     1    1    2 1
     2    1   26 1
     3    1   27 1
     4    1   28 1
     5    2    9 1
     6    2    3 2
     7    3    4 1
     8    3   29 1
     9    4    8 1
    10    4    5 1
    11    5    6 2
    12    5   20 1
    13    6    7 1
    14    6   10 1
    15    7    8 2
    16    8    9 1
    17   10   15 ar
    18   10   11 ar
    19   11   12 ar
    20   11   30 1
    21   12   13 ar
    22   12   31 1
    23   13   14 ar
    24   13   16 1
    25   14   15 ar
    26   14   32 1
    27   15   33 1
    28   16   17 2
    29   16   18 2
    30   16   19 1
    31   19   34 1
    32   19   35 1
    33   19   36 1
    34   20   25 ar
    35   20   21 ar
    36   21   22 ar
    37   21   37 1
    38   22   23 ar
    39   22   38 1
    40   23   24 ar
    41   23   39 1
    42   24   25 ar
    43   24   40 1
    44   25   41 1
@<TRIPOS>MOLECULE
ZINC03814815
   42    45     0     0     0
SMALL
USER_CHARGES

@<TRIPOS>ATOM
      1 C1         -4.6527    4.7136   10.5471 C.3       1 <0>        -0.0825
      2 C2         -4.3247    4.1739    9.1788 C.2       1 <0>        -0.0875
      3 C3         -3.1961    4.2881    8.4801 C.2       1 <0>        -0.0013
      4 N1         -3.0797    3.7221    7.2300 N.pl3     1 <0>        -0.3671
      5 C4         -2.1145    3.6136    6.2238 C.2       1 <0>         0.1322
      6 C5         -2.6804    2.8862    5.1959 C.2       1 <0>         0.1155
      7 C6         -4.1704    3.0450    6.7507 C.cat     1 <0>         0.2007
      8 S1         -5.3482    3.2159    8.0724 S.3       1 <0>         0.2716
      9 C7         -2.0245    2.5243    3.9179 C.ar      1 <0>        -0.0083
     10 C8         -2.2972    1.2971    3.3139 C.ar      1 <0>        -0.1156
     11 C9         -1.6828    0.9655    2.1237 C.ar      1 <0>        -0.0141
     12 C10        -0.7978    1.8475    1.5296 C.ar      1 <0>        -0.6339
     13 C11        -0.5190    3.0639    2.1268 C.ar      1 <0>        -0.0141
     14 C12        -1.1314    3.4092    3.3141 C.ar      1 <0>        -0.0963
     15 S2         -0.0172    1.4168    0.0098 S.o2      1 <0>         2.4930
     16 O1          0.0021   -0.0041    0.0020 O.2       1 <0>        -0.9262
     17 O2          1.1953    2.1578    0.0022 O.2       1 <0>        -0.9256
     18 C13        -1.1345    2.0336   -1.2793 C.3       1 <0>        -0.6473
     19 C14        -0.7502    4.1734    6.2539 C.ar      1 <0>        -0.0765
     20 C15        -0.5387    5.4845    6.6890 C.ar      1 <0>        -0.0896
     21 C16         0.7404    5.9991    6.7203 C.ar      1 <0>        -0.1121
     22 C17         1.8117    5.2245    6.3109 C.ar      1 <0>        -0.0783
     23 C18         1.6092    3.9274    5.8729 C.ar      1 <0>        -0.1102
     24 C19         0.3364    3.3973    5.8420 C.ar      1 <0>        -0.0742
     25 H1         -5.0832    5.7103   10.4509 H         1 <0>         0.1088
     26 H2         -5.3696    4.0537   11.0357 H         1 <0>         0.1010
     27 H3         -3.7425    4.7670   11.1444 H         1 <0>         0.1086
     28 H4         -2.3621    4.8316    8.8991 H         1 <0>         0.2066
     29 H5         -2.9876    0.6077    3.7769 H         1 <0>         0.1383
     30 H6         -1.8928    0.0154    1.6552 H         1 <0>         0.1583
     31 H7          0.1761    3.7464    1.6605 H         1 <0>         0.1587
     32 H8         -0.9161    4.3608    3.7773 H         1 <0>         0.1448
     33 H9         -2.1080    1.5544   -1.1761 H         1 <0>         0.1333
     34 H10        -1.2479    3.1127   -1.1759 H         1 <0>         0.1337
     35 H11        -0.7188    1.8043   -2.2605 H         1 <0>         0.1407
     36 H12        -1.3743    6.0916    7.0045 H         1 <0>         0.1256
     37 H13         0.9060    7.0106    7.0605 H         1 <0>         0.1392
     38 H14         2.8107    5.6342    6.3336 H         1 <0>         0.1393
     39 H15         2.4500    3.3288    5.5549 H         1 <0>         0.1414
     40 H16         0.1800    2.3846    5.5007 H         1 <0>         0.1315
     41 N2         -3.9311    2.5607    5.5658 N.pl3     1 <0>        -0.4450
     42 H17        -4.5940    2.0156    5.0023 H         1 <0>         0.4825
@<TRIPOS>BOND
     1    1    2 1
     2    1   25 1
     3    1   26 1
     4    1   27 1
     5    2    8 1
     6    2    3 2
     7    3    4 1
     8    3   28 1
     9    4    7 1
    10    4    5 1
    11    5    6 2
    12    5   19 1
    13    6    9 1
    14    6   41 1
    15    7    8 1
    16    7   41 2
    17    9   14 ar
    18    9   10 ar
    19   10   11 ar
    20   10   29 1
    21   11   12 ar
    22   11   30 1
    23   12   13 ar
    24   12   15 1
    25   13   14 ar
    26   13   31 1
    27   14   32 1
    28   15   16 2
    29   15   17 2
    30   15   18 1
    31   18   33 1
    32   18   34 1
    33   18   35 1
    34   19   24 ar
    35   19   20 ar
    36   20   21 ar
    37   20   36 1
    38   21   22 ar
    39   21   37 1
    40   22   23 ar
    41   22   38 1
    42   23   24 ar
    43   23   39 1
    44   24   40 1
    45   41   42 1
@<TRIPOS>MOLECULE
ZINC03814816
   38    41     0     0     0
SMALL
USER_CHARGES

@<TRIPOS>ATOM
      1 C1         -1.1345    2.0336   -1.2793 C.3       1 <0>        -0.6505
      2 S1         -0.0172    1.4168    0.0098 S.o2      1 <0>         2.4995
      3 O1          0.0021   -0.0041    0.0020 O.2       1 <0>        -0.9363
      4 O2          1.1953    2.1578    0.0022 O.2       1 <0>        -0.9367
      5 C2         -0.7978    1.8475    1.5296 C.ar      1 <0>        -0.6567
      6 C3         -0.5189    3.0638    2.1269 C.ar      1 <0>        -0.0218
      7 C4         -1.1307    3.4088    3.3145 C.ar      1 <0>        -0.1191
      8 C5         -2.0238    2.5239    3.9184 C.ar      1 <0>         0.0499
      9 C6         -2.2968    1.2969    3.3141 C.ar      1 <0>        -0.1096
     10 C7         -1.6828    0.9655    2.1237 C.ar      1 <0>        -0.0221
     11 C8         -2.6793    2.8856    5.1966 C.2       1 <0>         0.0822
     12 C9         -2.1130    3.6127    6.2246 C.2       1 <0>         0.0532
     13 N1         -3.0780    3.7211    7.2310 N.pl3     1 <0>        -0.4225
     14 C10        -3.1941    4.2871    8.4811 C.2       1 <0>         0.0249
     15 C11        -4.3225    4.1728    9.1801 C.2       1 <0>        -0.1682
     16 S2         -5.3465    3.2154    8.0736 S.3       1 <0>         0.1407
     17 C12        -4.1689    3.0442    6.7518 C.2       1 <0>         0.1792
     18 N2         -3.9309    2.5595    5.5660 N.2       1 <0>        -0.4239
     19 C13        -0.7487    4.1724    6.2544 C.ar      1 <0>        -0.0312
     20 C14         0.3385    3.3941    5.8479 C.ar      1 <0>        -0.0874
     21 C15         1.6107    3.9260    5.8736 C.ar      1 <0>        -0.1124
     22 C16         1.8133    5.2232    6.3108 C.ar      1 <0>        -0.1056
     23 C17         0.7421    5.9980    6.7203 C.ar      1 <0>        -0.1153
     24 C18        -0.5364    5.4816    6.6947 C.ar      1 <0>        -0.1069
     25 H1         -2.1080    1.5544   -1.1761 H         1 <0>         0.1323
     26 H2         -1.2479    3.1127   -1.1759 H         1 <0>         0.1318
     27 H3         -0.7188    1.8043   -2.2605 H         1 <0>         0.1335
     28 H4          0.1759    3.7465    1.6604 H         1 <0>         0.1462
     29 H5         -0.9151    4.3602    3.7779 H         1 <0>         0.1348
     30 H6         -2.9872    0.6075    3.7771 H         1 <0>         0.1397
     31 H7         -1.8937    0.0158    1.6547 H         1 <0>         0.1469
     32 H8         -2.3598    4.8301    8.9002 H         1 <0>         0.1752
     33 H9         -4.5572    4.5593   10.1609 H         1 <0>         0.2210
     34 H10         0.1823    2.3801    5.5107 H         1 <0>         0.1268
     35 H11         2.4514    3.3272    5.5555 H         1 <0>         0.1316
     36 H12         2.8122    5.6332    6.3324 H         1 <0>         0.1285
     37 H13         0.9078    7.0096    7.0603 H         1 <0>         0.1285
     38 H14        -1.3715    6.0875    7.0139 H         1 <0>         0.1196
@<TRIPOS>BOND
     1    1    2 1
     2    1   25 1
     3    1   26 1
     4    1   27 1
     5    2    3 2
     6    2    4 2
     7    2    5 1
     8    5   10 ar
     9    5    6 ar
    10    6    7 ar
    11    6   28 1
    12    7    8 ar
    13    7   29 1
    14    8    9 ar
    15    8   11 1
    16    9   10 ar
    17    9   30 1
    18   10   31 1
    19   11   18 1
    20   11   12 2
    21   12   13 1
    22   12   19 1
    23   13   17 1
    24   13   14 1
    25   14   15 2
    26   14   32 1
    27   15   16 1
    28   15   33 1
    29   16   17 1
    30   17   18 2
    31   19   24 ar
    32   19   20 ar
    33   20   21 ar
    34   20   34 1
    35   21   22 ar
    36   21   35 1
    37   22   23 ar
    38   22   36 1
    39   23   24 ar
    40   23   37 1
    41   24   38 1
@<TRIPOS>MOLECULE
ZINC03814816
   39    42     0     0     0
SMALL
USER_CHARGES

@<TRIPOS>ATOM
      1 C1         -1.1345    2.0336   -1.2793 C.3       1 <0>        -0.6473
      2 S1         -0.0172    1.4168    0.0098 S.o2      1 <0>         2.4930
      3 O1          0.0021   -0.0041    0.0020 O.2       1 <0>        -0.9261
      4 O2          1.1953    2.1578    0.0022 O.2       1 <0>        -0.9255
      5 C2         -0.7978    1.8475    1.5296 C.ar      1 <0>        -0.6335
      6 C3         -0.5189    3.0638    2.1269 C.ar      1 <0>        -0.0142
      7 C4         -1.1307    3.4088    3.3145 C.ar      1 <0>        -0.0960
      8 C5         -2.0238    2.5239    3.9184 C.ar      1 <0>        -0.0092
      9 C6         -2.2968    1.2969    3.3141 C.ar      1 <0>        -0.1154
     10 C7         -1.6828    0.9655    2.1237 C.ar      1 <0>        -0.0142
     11 C8         -2.6793    2.8856    5.1966 C.2       1 <0>         0.1161
     12 C9         -2.1130    3.6127    6.2246 C.2       1 <0>         0.1334
     13 N1         -3.0780    3.7211    7.2310 N.pl3     1 <0>        -0.3738
     14 C10        -3.1941    4.2871    8.4811 C.2       1 <0>         0.0139
     15 C11        -4.3225    4.1728    9.1801 C.2       1 <0>        -0.1237
     16 S2         -5.3465    3.2154    8.0736 S.3       1 <0>         0.2818
     17 C12        -4.1689    3.0442    6.7518 C.cat     1 <0>         0.2012
     18 C13        -0.7487    4.1724    6.2544 C.ar      1 <0>        -0.0775
     19 C14         0.3385    3.3941    5.8479 C.ar      1 <0>        -0.0739
     20 C15         1.6107    3.9260    5.8736 C.ar      1 <0>        -0.1102
     21 C16         1.8133    5.2232    6.3108 C.ar      1 <0>        -0.0778
     22 C17         0.7421    5.9980    6.7203 C.ar      1 <0>        -0.1120
     23 C18        -0.5364    5.4816    6.6947 C.ar      1 <0>        -0.0896
     24 H1         -2.1080    1.5544   -1.1761 H         1 <0>         0.1334
     25 H2         -1.2479    3.1127   -1.1759 H         1 <0>         0.1337
     26 H3         -0.7188    1.8043   -2.2605 H         1 <0>         0.1408
     27 H4          0.1759    3.7465    1.6604 H         1 <0>         0.1587
     28 H5         -0.9151    4.3602    3.7779 H         1 <0>         0.1448
     29 H6         -2.9872    0.6075    3.7771 H         1 <0>         0.1384
     30 H7         -1.8937    0.0158    1.6547 H         1 <0>         0.1583
     31 H8         -2.3598    4.8301    8.9002 H         1 <0>         0.2089
     32 H9         -4.5572    4.5593   10.1609 H         1 <0>         0.2476
     33 H10         0.1823    2.3801    5.5107 H         1 <0>         0.1316
     34 H11         2.4514    3.3272    5.5555 H         1 <0>         0.1415
     35 H12         2.8122    5.6332    6.3324 H         1 <0>         0.1394
     36 H13         0.9078    7.0096    7.0603 H         1 <0>         0.1394
     37 H14        -1.3715    6.0875    7.0139 H         1 <0>         0.1260
     38 N2         -3.9300    2.5602    5.5667 N.pl3     1 <0>        -0.4448
     39 H15        -4.5932    2.0154    5.0032 H         1 <0>         0.4830
@<TRIPOS>BOND
     1    1    2 1
     2    1   24 1
     3    1   25 1
     4    1   26 1
     5    2    3 2
     6    2    4 2
     7    2    5 1
     8    5   10 ar
     9    5    6 ar
    10    6    7 ar
    11    6   27 1
    12    7    8 ar
    13    7   28 1
    14    8    9 ar
    15    8   11 1
    16    9   10 ar
    17    9   29 1
    18   10   30 1
    19   11   12 2
    20   11   38 1
    21   12   13 1
    22   12   18 1
    23   13   17 1
    24   13   14 1
    25   14   15 2
    26   14   31 1
    27   15   16 1
    28   15   32 1
    29   16   17 1
    30   17   38 2
    31   18   23 ar
    32   18   19 ar
    33   19   20 ar
    34   19   33 1
    35   20   21 ar
    36   20   34 1
    37   21   22 ar
    38   21   35 1
    39   22   23 ar
    40   22   36 1
    41   23   37 1
    42   38   39 1
@<TRIPOS>MOLECULE
ZINC03814817
   48    51     0     0     0
SMALL
USER_CHARGES

@<TRIPOS>ATOM
      1 C1         -7.4201    1.2240   12.5637 C.3       1 <0>         0.0229
      2 O1         -6.5082    2.3202   12.4699 O.3       1 <0>        -0.3111
      3 C2         -5.8749    2.4955   11.2810 C.ar      1 <0>         0.1550
      4 C3         -4.9758    3.5423   11.1229 C.ar      1 <0>        -0.1530
      5 C4         -4.3312    3.7235    9.9184 C.ar      1 <0>        -0.0239
      6 C5         -4.5830    2.8530    8.8559 C.ar      1 <0>        -0.0656
      7 C6         -5.4921    1.8053    9.0171 C.ar      1 <0>        -0.0450
      8 C7         -6.1286    1.6278   10.2266 C.ar      1 <0>        -0.2079
      9 C8         -3.8942    3.0436    7.5629 C.2       1 <0>         0.1749
     10 N1         -3.0135    3.9688    7.2149 N.2       1 <0>        -0.4919
     11 C9         -2.4826    3.9971    6.0097 C.2       1 <0>         0.1320
     12 C10        -2.8735    3.0324    5.0819 C.2       1 <0>        -0.1576
     13 S1         -4.0329    2.0857    6.0604 S.3       1 <0>         0.0528
     14 C11        -2.4446    2.8416    3.6828 C.ar      1 <0>         0.0538
     15 C12        -2.4168    3.9266    2.8032 C.ar      1 <0>        -0.1092
     16 C13        -2.0145    3.7410    1.4970 C.ar      1 <0>        -0.0180
     17 C14        -1.6389    2.4838    1.0572 C.ar      1 <0>        -0.6546
     18 C15        -1.6694    1.4035    1.9215 C.ar      1 <0>        -0.0180
     19 C16        -2.0642    1.5754    3.2318 C.ar      1 <0>        -0.1232
     20 S2         -1.1263    2.2562   -0.6131 S.o2      1 <0>         2.4981
     21 O2         -1.7711    3.2964   -1.3352 O.2       1 <0>        -0.9345
     22 O3         -1.4107    0.8932   -0.8971 O.2       1 <0>        -0.9352
     23 C17         0.6669    2.5291   -0.5917 C.3       1 <0>        -0.6500
     24 C18        -1.4924    5.0371    5.6453 C.ar      1 <0>        -0.0391
     25 C19        -0.3532    4.6941    4.9175 C.ar      1 <0>        -0.0664
     26 C20         0.5633    5.6671    4.5761 C.ar      1 <0>        -0.1534
     27 C21         0.3589    6.9813    4.9645 C.ar      1 <0>         0.1103
     28 C22        -0.7686    7.3262    5.6922 C.ar      1 <0>        -0.1540
     29 C23        -1.6935    6.3613    6.0340 C.ar      1 <0>        -0.0541
     30 F1          1.2623    7.9296    4.6330 F         1 <0>        -0.1360
     31 H1         -7.8556    1.1981   13.5626 H         1 <0>         0.1048
     32 H2         -8.2123    1.3461   11.8251 H         1 <0>         0.0597
     33 H3         -6.8880    0.2916   12.3751 H         1 <0>         0.0596
     34 H4         -4.7813    4.2148   11.9452 H         1 <0>         0.1422
     35 H5         -3.6324    4.5379    9.7962 H         1 <0>         0.1449
     36 H6         -5.6929    1.1326    8.1965 H         1 <0>         0.1306
     37 H7         -6.8289    0.8155   10.3532 H         1 <0>         0.1391
     38 H8         -2.7093    4.9083    3.1452 H         1 <0>         0.1367
     39 H9         -1.9921    4.5789    0.8160 H         1 <0>         0.1487
     40 H10        -1.3792    0.4243    1.5703 H         1 <0>         0.1488
     41 H11        -2.0836    0.7321    3.9063 H         1 <0>         0.1365
     42 H12         0.8766    3.5391   -0.2397 H         1 <0>         0.1326
     43 H13         1.1364    1.8068    0.0761 H         1 <0>         0.1323
     44 H14         1.0653    2.4052   -1.5988 H         1 <0>         0.1346
     45 H15        -0.1907    3.6691    4.6184 H         1 <0>         0.1322
     46 H16         1.4435    5.4032    4.0086 H         1 <0>         0.1399
     47 H17        -0.9235    8.3519    5.9927 H         1 <0>         0.1408
     48 H18        -2.5717    6.6310    6.6018 H         1 <0>         0.1377
@<TRIPOS>BOND
     1    1    2 1
     2    1   31 1
     3    1   32 1
     4    1   33 1
     5    2    3 1
     6    3    8 ar
     7    3    4 ar
     8    4    5 ar
     9    4   34 1
    10    5    6 ar
    11    5   35 1
    12    6    7 ar
    13    6    9 1
    14    7    8 ar
    15    7   36 1
    16    8   37 1
    17    9   13 1
    18    9   10 2
    19   10   11 1
    20   11   12 2
    21   11   24 1
    22   12   13 1
    23   12   14 1
    24   14   19 ar
    25   14   15 ar
    26   15   16 ar
    27   15   38 1
    28   16   17 ar
    29   16   39 1
    30   17   18 ar
    31   17   20 1
    32   18   19 ar
    33   18   40 1
    34   19   41 1
    35   20   21 2
    36   20   22 2
    37   20   23 1
    38   23   42 1
    39   23   43 1
    40   23   44 1
    41   24   29 ar
    42   24   25 ar
    43   25   26 ar
    44   25   45 1
    45   26   27 ar
    46   26   46 1
    47   27   28 ar
    48   27   30 1
    49   28   29 ar
    50   28   47 1
    51   29   48 1
@<TRIPOS>MOLECULE
ZINC03814818
   44    47     0     0     0
SMALL
USER_CHARGES

@<TRIPOS>ATOM
      1 C1         -1.1345    2.0336   -1.2793 C.3       1 <0>        -0.6508
      2 S1         -0.0172    1.4168    0.0098 S.o2      1 <0>         2.4982
      3 O1          0.0021   -0.0041    0.0020 O.2       1 <0>        -0.9371
      4 O2          1.1953    2.1578    0.0022 O.2       1 <0>        -0.9364
      5 C2         -0.7978    1.8475    1.5296 C.ar      1 <0>        -0.6591
      6 C3         -0.5190    3.0637    2.1269 C.ar      1 <0>        -0.0209
      7 C4         -1.1310    3.4085    3.3147 C.ar      1 <0>        -0.1146
      8 C5         -2.0234    2.5237    3.9184 C.ar      1 <0>         0.0139
      9 C6         -2.2964    1.2972    3.3145 C.ar      1 <0>        -0.1308
     10 C7         -1.6827    0.9657    2.1238 C.ar      1 <0>        -0.0215
     11 C8         -2.6790    2.8854    5.1977 C.ar      1 <0>        -0.0490
     12 C9         -4.0480    2.7665    5.3238 C.ar      1 <0>        -0.0818
     13 C10        -4.6686    3.1045    6.5369 C.ar      1 <0>        -0.0507
     14 C11        -6.0613    2.9884    6.6934 C.ar      1 <0>        -0.1046
     15 C12        -6.6378    3.3288    7.8783 C.ar      1 <0>        -0.1138
     16 C13        -5.8680    3.7923    8.9438 C.ar      1 <0>        -0.1111
     17 C14        -4.5177    3.9184    8.8299 C.ar      1 <0>        -0.1068
     18 C15        -3.8851    3.5767    7.6213 C.ar      1 <0>        -0.0435
     19 C16        -2.4940    3.6971    7.4755 C.ar      1 <0>        -0.0896
     20 C17        -1.8980    3.3555    6.2786 C.ar      1 <0>        -0.0271
     21 C18        -0.4292    3.4828    6.1249 C.ar      1 <0>        -0.0537
     22 C19         0.3176    2.4150    5.6293 C.ar      1 <0>        -0.0966
     23 C20         1.6840    2.5414    5.4825 C.ar      1 <0>        -0.1164
     24 C21         2.3143    3.7205    5.8378 C.ar      1 <0>        -0.1125
     25 C22         1.5792    4.7814    6.3355 C.ar      1 <0>        -0.1185
     26 C23         0.2115    4.6687    6.4808 C.ar      1 <0>        -0.1076
     27 H1         -2.1080    1.5544   -1.1761 H         1 <0>         0.1315
     28 H2         -1.2479    3.1127   -1.1759 H         1 <0>         0.1315
     29 H3         -0.7188    1.8043   -2.2605 H         1 <0>         0.1333
     30 H4          0.1758    3.7464    1.6606 H         1 <0>         0.1428
     31 H5         -0.9155    4.3599    3.7782 H         1 <0>         0.1326
     32 H6         -2.9865    0.6077    3.7778 H         1 <0>         0.1347
     33 H7         -1.8934    0.0158    1.6550 H         1 <0>         0.1442
     34 H8         -4.6397    2.4107    4.4933 H         1 <0>         0.1332
     35 H9         -6.6708    2.6304    5.8768 H         1 <0>         0.1287
     36 H10        -7.7077    3.2387    7.9947 H         1 <0>         0.1255
     37 H11        -6.3503    4.0557    9.8735 H         1 <0>         0.1256
     38 H12        -3.9345    4.2797    9.6640 H         1 <0>         0.1291
     39 H13        -1.8921    4.0556    8.2975 H         1 <0>         0.1333
     40 H14        -0.1727    1.4922    5.3565 H         1 <0>         0.1199
     41 H15         2.2629    1.7167    5.0938 H         1 <0>         0.1242
     42 H16         3.3845    3.8132    5.7258 H         1 <0>         0.1238
     43 H17         2.0766    5.6997    6.6105 H         1 <0>         0.1249
     44 H18        -0.3615    5.4977    6.8692 H         1 <0>         0.1236
@<TRIPOS>BOND
     1    1    2 1
     2    1   27 1
     3    1   28 1
     4    1   29 1
     5    2    3 2
     6    2    4 2
     7    2    5 1
     8    5   10 ar
     9    5    6 ar
    10    6    7 ar
    11    6   30 1
    12    7    8 ar
    13    7   31 1
    14    8    9 ar
    15    8   11 1
    16    9   10 ar
    17    9   32 1
    18   10   33 1
    19   11   20 ar
    20   11   12 ar
    21   12   13 ar
    22   12   34 1
    23   13   18 ar
    24   13   14 ar
    25   14   15 ar
    26   14   35 1
    27   15   16 ar
    28   15   36 1
    29   16   17 ar
    30   16   37 1
    31   17   18 ar
    32   17   38 1
    33   18   19 ar
    34   19   20 ar
    35   19   39 1
    36   20   21 1
    37   21   26 ar
    38   21   22 ar
    39   22   23 ar
    40   22   40 1
    41   23   24 ar
    42   23   41 1
    43   24   25 ar
    44   24   42 1
    45   25   26 ar
    46   25   43 1
    47   26   44 1
@<TRIPOS>MOLECULE
ZINC03814819
   48    49     0     0     0
SMALL
USER_CHARGES

@<TRIPOS>ATOM
      1 C1          1.7281    2.9820    3.6060 C.3       1 <0>        -0.1477
      2 C2          0.8988    2.3139    2.5074 C.3       1 <0>        -0.0172
      3 C3         -0.3853    3.1141    2.2799 C.3       1 <0>        -0.1413
      4 C4          0.5426    0.8882    2.9332 C.3       1 <0>        -0.1410
      5 C5          1.6976    2.2721    1.2302 C.ar      1 <0>        -0.0973
      6 C6          2.9728    2.7894    1.2002 C.ar      1 <0>        -0.0423
      7 C7          3.7118    2.7549    0.0111 C.ar      1 <0>        -0.0836
      8 C8          3.1501    2.1889   -1.1402 C.ar      1 <0>        -0.0856
      9 C9          1.8760    1.6698   -1.0975 C.ar      1 <0>        -0.1043
     10 C10         1.1469    1.7066    0.0857 C.ar      1 <0>         0.1334
     11 O1         -0.1094    1.1936    0.1221 O.3       1 <0>        -0.4863
     12 C11         1.2704    1.0600   -2.3354 C.3       1 <0>        -0.0189
     13 C12         2.2723    1.1457   -3.4886 C.3       1 <0>        -0.1462
     14 C13         0.9272   -0.4065   -2.0660 C.3       1 <0>        -0.1425
     15 C14        -0.0030    1.8216   -2.7085 C.3       1 <0>        -0.1414
     16 C15         5.0703    3.3107   -0.0286 C.2       1 <0>        -0.0276
     17 C16         5.9047    3.1390    1.0276 C.2       1 <0>        -0.0228
     18 C17         5.6904    2.2922    2.2159 C.2       1 <0>         0.5311
     19 O2          4.7166    1.5954    2.4522 O.2       1 <0>        -0.4565
     20 N1          6.7787    2.4402    2.9842 N.2       1 <0>        -0.6435
     21 C18         7.6315    3.2677    2.4205 C.2       1 <0>         0.6546
     22 N2          7.1615    3.7217    1.2272 N.pl3     1 <0>        -0.6709
     23 N3          8.8379    3.6215    2.9614 N.pl3     1 <0>        -0.8058
     24 H1          1.9819    3.9978    3.3027 H         1 <0>         0.0518
     25 H2          1.1504    3.0123    4.5298 H         1 <0>         0.0565
     26 H3          2.6429    2.4120    3.7681 H         1 <0>         0.0678
     27 H4         -0.9761    2.6381    1.4973 H         1 <0>         0.0740
     28 H5         -0.9630    3.1444    3.2037 H         1 <0>         0.0530
     29 H6         -0.1315    4.1298    1.9766 H         1 <0>         0.0490
     30 H7          1.4574    0.3181    3.0953 H         1 <0>         0.0581
     31 H8         -0.0351    0.9185    3.8570 H         1 <0>         0.0584
     32 H9         -0.0482    0.4122    2.1506 H         1 <0>         0.0556
     33 H10         3.4012    3.2246    2.0910 H         1 <0>         0.1312
     34 H11         3.7155    2.1601   -2.0600 H         1 <0>         0.1303
     35 H12        -0.1450    0.2569    0.3596 H         1 <0>         0.3830
     36 H13         3.1795    0.6031   -3.2228 H         1 <0>         0.0572
     37 H14         1.8343    0.7046   -4.3840 H         1 <0>         0.0588
     38 H15         2.5168    2.1904   -3.6806 H         1 <0>         0.0578
     39 H16         0.2135   -0.4675   -1.2444 H         1 <0>         0.0583
     40 H17         0.4892   -0.8476   -2.9613 H         1 <0>         0.0595
     41 H18         1.8344   -0.9490   -1.8002 H         1 <0>         0.0543
     42 H19         0.2415    2.8663   -2.9005 H         1 <0>         0.0504
     43 H20        -0.4410    1.3805   -3.6039 H         1 <0>         0.0530
     44 H21        -0.7168    1.7605   -1.8869 H         1 <0>         0.0751
     45 H22         5.4055    3.8561   -0.8984 H         1 <0>         0.1353
     46 H23         7.6124    4.3366    0.6276 H         1 <0>         0.4255
     47 H24         9.1121    3.2552    3.8167 H         1 <0>         0.4330
     48 H25         9.4188    4.2385    2.4894 H         1 <0>         0.4166
@<TRIPOS>BOND
     1    1    2 1
     2    1   24 1
     3    1   25 1
     4    1   26 1
     5    2    3 1
     6    2    4 1
     7    2    5 1
     8    3   27 1
     9    3   28 1
    10    3   29 1
    11    4   30 1
    12    4   31 1
    13    4   32 1
    14    5   10 ar
    15    5    6 ar
    16    6    7 ar
    17    6   33 1
    18    7    8 ar
    19    7   16 1
    20    8    9 ar
    21    8   34 1
    22    9   10 ar
    23    9   12 1
    24   10   11 1
    25   11   35 1
    26   12   13 1
    27   12   14 1
    28   12   15 1
    29   13   36 1
    30   13   37 1
    31   13   38 1
    32   14   39 1
    33   14   40 1
    34   14   41 1
    35   15   42 1
    36   15   43 1
    37   15   44 1
    38   16   17 2
    39   16   45 1
    40   17   22 1
    41   17   18 1
    42   18   19 2
    43   18   20 1
    44   20   21 2
    45   21   22 1
    46   21   23 1
    47   22   46 1
    48   23   47 1
    49   23   48 1
@<TRIPOS>MOLECULE
ZINC03814823
   39    41     0     0     0
SMALL
USER_CHARGES

@<TRIPOS>ATOM
      1 C1         -0.2507    8.4783    1.0564 C.3       1 <0>        -0.6495
      2 S1         -0.9475    6.9549    0.3604 S.o2      1 <0>         2.4985
      3 O1         -1.3210    7.1622   -0.9949 O.2       1 <0>        -0.9349
      4 O2         -1.8570    6.3676    1.2807 O.2       1 <0>        -0.9344
      5 C2          0.4067    5.8301    0.2866 C.ar      1 <0>        -0.6532
      6 C3          0.6750    5.0042    1.3645 C.ar      1 <0>        -0.0204
      7 C4          1.7324    4.1210    1.3147 C.ar      1 <0>        -0.1095
      8 C5          2.5353    4.0608    0.1702 C.ar      1 <0>         0.0004
      9 C6          2.2605    4.9029   -0.9131 C.ar      1 <0>        -0.1173
     10 C7          1.1961    5.7768   -0.8492 C.ar      1 <0>        -0.0215
     11 C8          3.6651    3.1224    0.1086 C.2       1 <0>        -0.0143
     12 C9          3.5563    1.7797    0.0648 C.2       1 <0>        -0.0285
     13 C10         4.8078    1.1304    0.0163 C.2       1 <0>         0.3684
     14 O3          4.9846   -0.0701   -0.0240 O.2       1 <0>        -0.4202
     15 C11         5.8918    2.1856    0.0190 C.3       1 <0>        -0.1660
     16 C12         5.1224    3.5175    0.0849 C.3       1 <0>        -0.0887
     17 O4          2.3672    1.1210    0.0725 O.3       1 <0>        -0.2357
     18 C13         2.0094    0.4377   -1.0459 C.ar      1 <0>         0.1213
     19 C14         0.8599   -0.3398   -1.0475 C.ar      1 <0>        -0.1417
     20 C15         0.5009   -1.0373   -2.1845 C.ar      1 <0>        -0.0806
     21 C16         1.2804   -0.9534   -3.3235 C.ar      1 <0>        -0.1494
     22 C17         2.4260   -0.1791   -3.3248 C.ar      1 <0>        -0.0812
     23 C18         2.7924    0.5163   -2.1889 C.ar      1 <0>        -0.1898
     24 H1          0.5432    8.8451    0.4058 H         1 <0>         0.1321
     25 H2         -1.0334    9.2328    1.1355 H         1 <0>         0.1346
     26 H3          0.1568    8.2724    2.0462 H         1 <0>         0.1322
     27 H4          0.0541    5.0516    2.2469 H         1 <0>         0.1484
     28 H5          1.9402    3.4770    2.1564 H         1 <0>         0.1381
     29 H6          2.8782    4.8657   -1.7982 H         1 <0>         0.1376
     30 H7          0.9799    6.4243   -1.6861 H         1 <0>         0.1482
     31 H8          6.4422    2.1001   -0.8115 H         1 <0>         0.1046
     32 H9          6.5314    2.0708    0.8941 H         1 <0>         0.1170
     33 H10         5.3368    4.1233   -0.7955 H         1 <0>         0.1092
     34 H11         5.3827    4.0613    0.9930 H         1 <0>         0.1075
     35 H12         0.2489   -0.4030   -0.1592 H         1 <0>         0.1331
     36 H13        -0.3911   -1.6461   -2.1849 H         1 <0>         0.1335
     37 H14         0.9960   -1.4966   -4.2126 H         1 <0>         0.1274
     38 H15         3.0351   -0.1182   -4.2146 H         1 <0>         0.1268
     39 H16         3.6877    1.1204   -2.1902 H         1 <0>         0.1179
@<TRIPOS>BOND
     1    1    2 1
     2    1   24 1
     3    1   25 1
     4    1   26 1
     5    2    3 2
     6    2    4 2
     7    2    5 1
     8    5   10 ar
     9    5    6 ar
    10    6    7 ar
    11    6   27 1
    12    7    8 ar
    13    7   28 1
    14    8    9 ar
    15    8   11 1
    16    9   10 ar
    17    9   29 1
    18   10   30 1
    19   11   16 1
    20   11   12 2
    21   12   13 1
    22   12   17 1
    23   13   14 2
    24   13   15 1
    25   15   16 1
    26   15   31 1
    27   15   32 1
    28   16   33 1
    29   16   34 1
    30   17   18 1
    31   18   23 ar
    32   18   19 ar
    33   19   20 ar
    34   19   35 1
    35   20   21 ar
    36   20   36 1
    37   21   22 ar
    38   21   37 1
    39   22   23 ar
    40   22   38 1
    41   23   39 1
@<TRIPOS>MOLECULE
ZINC03814824
   40    42     0     0     0
SMALL
USER_CHARGES

@<TRIPOS>ATOM
      1 C1         -3.3334    7.8901   -2.8723 C.3       1 <0>        -0.1212
      2 C2         -2.5967    6.7403   -2.2348 C.ar      1 <0>        -0.0667
      3 C3         -1.2752    6.5004   -2.5637 C.ar      1 <0>        -0.1056
      4 C4         -0.5973    5.4475   -1.9813 C.ar      1 <0>        -0.1041
      5 C5         -1.2443    4.6291   -1.0648 C.ar      1 <0>         0.1165
      6 C6         -2.5732    4.8688   -0.7413 C.ar      1 <0>        -0.0908
      7 C7         -3.2438    5.9271   -1.3226 C.ar      1 <0>        -0.1051
      8 N1         -0.5595    3.5603   -0.4723 N.pl3     1 <0>        -0.2950
      9 C8          0.7009    3.6025    0.0520 C.2       1 <0>         0.1200
     10 C9          0.9854    2.3528    0.5262 C.2       1 <0>        -0.1920
     11 C10        -0.1229    1.5406    0.2841 C.2       1 <0>        -0.0143
     12 N2         -1.0424    2.2549   -0.3148 N.2       1 <0>        -0.2112
     13 C11        -0.2397    0.0823    0.6459 C.3       1 <0>         0.5583
     14 F1         -0.7754   -0.0374    1.9328 F         1 <0>        -0.1642
     15 F2         -1.0796   -0.5596   -0.2704 F         1 <0>        -0.1639
     16 F3          1.0274   -0.5097    0.6113 F         1 <0>        -0.1616
     17 C12         1.5923    4.7821    0.0985 C.ar      1 <0>         0.0208
     18 C13         1.0526    6.0687    0.0927 C.ar      1 <0>        -0.1254
     19 C14         1.8894    7.1647    0.1401 C.ar      1 <0>        -0.0125
     20 C15         3.2611    6.9901    0.1841 C.ar      1 <0>        -0.6663
     21 C16         3.8026    5.7170    0.1853 C.ar      1 <0>        -0.0126
     22 C17         2.9766    4.6127    0.1425 C.ar      1 <0>        -0.1085
     23 S1          4.3230    8.3952    0.2383 S.o2      1 <0>         2.7006
     24 O1          3.5564    9.4630    0.7781 O.2       1 <0>        -0.9587
     25 O2          5.5422    7.9604    0.8244 O.2       1 <0>        -0.9582
     26 N3          4.6709    8.8066   -1.3276 N.pl3     1 <0>        -1.2490
     27 H1         -3.8133    7.5501   -3.7900 H         1 <0>         0.0779
     28 H2         -4.0909    8.2631   -2.1830 H         1 <0>         0.0727
     29 H3         -2.6290    8.6887   -3.1049 H         1 <0>         0.0726
     30 H4         -0.7725    7.1373   -3.2766 H         1 <0>         0.1383
     31 H5          0.4348    5.2606   -2.2386 H         1 <0>         0.1321
     32 H6         -3.0805    4.2314   -0.0323 H         1 <0>         0.1360
     33 H7         -4.2760    6.1171   -1.0677 H         1 <0>         0.1380
     34 H8          1.9051    2.0479    1.0033 H         1 <0>         0.1736
     35 H9         -0.0179    6.2064    0.0546 H         1 <0>         0.1403
     36 H10         1.4728    8.1612    0.1395 H         1 <0>         0.1505
     37 H11         4.8743    5.5873    0.2194 H         1 <0>         0.1534
     38 H12         3.4005    3.6194    0.1428 H         1 <0>         0.1457
     39 H13         4.2974    8.2905   -2.0591 H         1 <0>         0.4169
     40 H14         5.2481    9.5637   -1.5133 H         1 <0>         0.4230
@<TRIPOS>BOND
     1    1    2 1
     2    1   27 1
     3    1   28 1
     4    1   29 1
     5    2    7 ar
     6    2    3 ar
     7    3    4 ar
     8    3   30 1
     9    4    5 ar
    10    4   31 1
    11    5    6 ar
    12    5    8 1
    13    6    7 ar
    14    6   32 1
    15    7   33 1
    16    8   12 1
    17    8    9 1
    18    9   10 2
    19    9   17 1
    20   10   11 1
    21   10   34 1
    22   11   12 2
    23   11   13 1
    24   13   14 1
    25   13   15 1
    26   13   16 1
    27   17   22 ar
    28   17   18 ar
    29   18   19 ar
    30   18   35 1
    31   19   20 ar
    32   19   36 1
    33   20   21 ar
    34   20   23 1
    35   21   22 ar
    36   21   37 1
    37   22   38 1
    38   23   24 2
    39   23   25 2
    40   23   26 1
    41   26   39 1
    42   26   40 1
@<TRIPOS>MOLECULE
ZINC03814825
   47    50     0     0     0
SMALL
USER_CHARGES

@<TRIPOS>ATOM
      1 C1         -3.3280    5.4111    5.9362 C.3       1 <0>        -0.1544
      2 C2         -3.9091    3.9974    5.8666 C.3       1 <0>         0.1353
      3 C3         -2.8299    3.0097    5.4880 C.2       1 <0>        -0.0674
      4 C4         -2.7349    2.1291    6.5104 C.2       1 <0>         0.0010
      5 C5         -3.6961    2.4964    7.5517 C.2       1 <0>         0.4858
      6 O1         -3.8500    1.8991    8.5995 O.2       1 <0>        -0.4242
      7 O2         -4.3887    3.5883    7.1776 O.3       1 <0>        -0.3007
      8 O3         -1.8813    1.0729    6.5635 O.3       1 <0>        -0.2172
      9 C6         -0.8945    1.0961    7.4984 C.ar      1 <0>         0.0856
     10 C7         -0.7095    2.2317    8.2837 C.ar      1 <0>        -0.1570
     11 C8          0.2849    2.2720    9.2349 C.ar      1 <0>        -0.0877
     12 C9          1.1161    1.1718    9.4192 C.ar      1 <0>         0.0744
     13 C10         0.9318    0.0236    8.6284 C.ar      1 <0>        -0.0736
     14 C11        -0.0832   -0.0081    7.6696 C.ar      1 <0>        -0.0897
     15 C12         1.9498   -0.9359    9.0631 C.2       1 <0>        -0.2065
     16 C13         2.6549   -0.3448   10.0406 C.2       1 <0>         0.0628
     17 N1          2.1721    0.9149   10.2678 N.pl3     1 <0>        -0.5951
     18 H1          2.5206    1.5348   10.9275 H         1 <0>         0.4173
     19 C14        -2.0406    3.0034    4.2463 C.ar      1 <0>         0.0152
     20 C15        -2.1915    1.9640    3.3227 C.ar      1 <0>        -0.1074
     21 C16        -1.4485    1.9655    2.1612 C.ar      1 <0>        -0.0184
     22 C17        -0.5552    2.9920    1.9081 C.ar      1 <0>        -0.6514
     23 C18        -0.3960    4.0212    2.8197 C.ar      1 <0>        -0.0200
     24 C19        -1.1358    4.0370    3.9832 C.ar      1 <0>        -0.1189
     25 S1          0.3896    2.9847    0.4208 S.o2      1 <0>         2.4977
     26 O4          0.4806    1.6144    0.0558 O.2       1 <0>        -0.9334
     27 O5          1.5585    3.7311    0.7302 O.2       1 <0>        -0.9342
     28 C20        -0.6269    3.8854   -0.7816 C.3       1 <0>        -0.6496
     29 C21        -5.0496    3.9472    4.8480 C.3       1 <0>        -0.1513
     30 H2         -2.9189    5.6841    4.9634 H         1 <0>         0.0902
     31 H3         -4.1147    6.1142    6.2098 H         1 <0>         0.0883
     32 H4         -2.5364    5.4421    6.6849 H         1 <0>         0.0722
     33 H5         -1.3519    3.0887    8.1449 H         1 <0>         0.1195
     34 H6          0.4200    3.1578    9.8378 H         1 <0>         0.1273
     35 H7         -0.2304   -0.8897    7.0633 H         1 <0>         0.1362
     36 H8          2.1039   -1.9305    8.6714 H         1 <0>         0.1507
     37 H9          3.4811   -0.7968   10.5694 H         1 <0>         0.1745
     38 H10        -2.8879    1.1621    3.5189 H         1 <0>         0.1395
     39 H11        -1.5641    1.1638    1.4468 H         1 <0>         0.1500
     40 H12         0.3062    4.8163    2.6171 H         1 <0>         0.1496
     41 H13        -1.0137    4.8431    4.6915 H         1 <0>         0.1393
     42 H14        -1.5807    3.3730   -0.9073 H         1 <0>         0.1325
     43 H15        -0.8037    4.8988   -0.4212 H         1 <0>         0.1323
     44 H16        -0.1072    3.9258   -1.7389 H         1 <0>         0.1348
     45 H17        -5.4746    2.9437    4.8276 H         1 <0>         0.0727
     46 H18        -5.8213    4.6630    5.1311 H         1 <0>         0.0855
     47 H19        -4.6653    4.1991    3.8596 H         1 <0>         0.0878
@<TRIPOS>BOND
     1    1    2 1
     2    1   30 1
     3    1   31 1
     4    1   32 1
     5    2    7 1
     6    2    3 1
     7    2   29 1
     8    3    4 2
     9    3   19 1
    10    4    5 1
    11    4    8 1
    12    5    6 2
    13    5    7 1
    14    8    9 1
    15    9   14 ar
    16    9   10 ar
    17   10   11 ar
    18   10   33 1
    19   11   12 ar
    20   11   34 1
    21   12   17 1
    22   12   13 ar
    23   13   14 ar
    24   13   15 1
    25   14   35 1
    26   15   16 2
    27   15   36 1
    28   16   17 1
    29   16   37 1
    30   17   18 1
    31   19   24 ar
    32   19   20 ar
    33   20   21 ar
    34   20   38 1
    35   21   22 ar
    36   21   39 1
    37   22   23 ar
    38   22   25 1
    39   23   24 ar
    40   23   40 1
    41   24   41 1
    42   25   26 2
    43   25   27 2
    44   25   28 1
    45   28   42 1
    46   28   43 1
    47   28   44 1
    48   29   45 1
    49   29   46 1
    50   29   47 1
@<TRIPOS>MOLECULE
ZINC03951599
   37    40     0     0     0
SMALL
USER_CHARGES

@<TRIPOS>ATOM
      1 C1         -9.4241   -2.2899    0.5667 C.2       1 <0>        -0.2137
      2 C2         -9.1749   -0.9026    0.5779 C.2       1 <0>        -0.1831
      3 C3         -7.8301   -0.7453    0.4548 C.2       1 <0>         0.0206
      4 O1         -7.2701   -1.9679    0.3804 O.3       1 <0>        -0.1683
      5 C4         -8.2311   -2.9042    0.4477 C.2       1 <0>        -0.0258
      6 C5         -7.1076    0.5434    0.4158 C.ar      1 <0>        -0.0156
      7 C6         -7.8149    1.7463    0.5040 C.ar      1 <0>        -0.0603
      8 C7         -7.1493    2.9519    0.4689 C.ar      1 <0>        -0.0913
      9 C8         -5.7655    2.9838    0.3452 C.ar      1 <0>         0.1348
     10 C9         -5.0513    1.7792    0.2563 C.ar      1 <0>        -0.1033
     11 C10        -5.7193    0.5625    0.2914 C.ar      1 <0>        -0.0331
     12 C11        -3.6263    2.1564    0.1365 C.3       1 <0>        -0.1261
     13 C12        -2.5371    1.2964    0.0211 C.2       1 <0>         0.4506
     14 C13        -1.2191    1.8155    0.0462 C.2       1 <0>        -0.2860
     15 C14        -0.1659    1.5751   -0.8285 C.2       1 <0>        -0.0580
     16 C15         1.0172    2.2198   -0.5712 C.2       1 <0>        -0.1858
     17 C16         1.1046    3.0426    0.5076 C.2       1 <0>        -0.1854
     18 S1         -0.4773    2.9460    1.2101 S.3       1 <0>         0.2426
     19 O2         -2.7373   -0.0333   -0.1147 O.2       1 <0>        -0.4777
     20 C17        -3.5970    3.5713    0.1693 C.2       1 <0>         0.5541
     21 O3         -2.5934    4.2596    0.1000 O.2       1 <0>        -0.4664
     22 N1         -4.8529    4.0339    0.2851 N.am      1 <0>        -0.5072
     23 C18        -5.1845    5.3389    0.3424 C.2       1 <0>         0.7136
     24 O4         -6.3498    5.6655    0.4542 O.2       1 <0>        -0.5400
     25 N2         -4.2238    6.2819    0.2758 N.am      1 <0>        -0.8386
     26 H1        -10.3886   -2.7697    0.6438 H         1 <0>         0.1531
     27 H2         -9.9102   -0.1164    0.6654 H         1 <0>         0.1535
     28 H3         -8.0734   -3.9720    0.4124 H         1 <0>         0.2071
     29 H4         -8.8905    1.7302    0.5999 H         1 <0>         0.1470
     30 H5         -7.7049    3.8755    0.5381 H         1 <0>         0.1577
     31 H6         -5.1669   -0.3630    0.2225 H         1 <0>         0.1537
     32 H7         -0.2756    0.9138   -1.6754 H         1 <0>         0.1456
     33 H8          1.8697    2.0758   -1.2185 H         1 <0>         0.1424
     34 H9          1.9543    3.6173    0.8455 H         1 <0>         0.1940
     35 H10        -3.3898    2.2629   -0.8293 H         1 <0>         0.1566
     36 H11        -3.2937    6.0213    0.1866 H         1 <0>         0.4157
     37 H12        -4.4624    7.2212    0.3171 H         1 <0>         0.4230
@<TRIPOS>BOND
     1    1    5 2
     2    1    2 1
     3    1   26 1
     4    2    3 2
     5    2   27 1
     6    3    4 1
     7    3    6 1
     8    4    5 1
     9    5   28 1
    10    6   11 ar
    11    6    7 ar
    12    7    8 ar
    13    7   29 1
    14    8    9 ar
    15    8   30 1
    16    9   22 1
    17    9   10 ar
    18   10   11 ar
    19   10   12 1
    20   11   31 1
    21   12   20 1
    22   12   35 1
    23   12   13 1
    24   13   14 1
    25   13   19 2
    26   14   18 1
    27   14   15 2
    28   15   16 1
    29   15   32 1
    30   16   17 2
    31   16   33 1
    32   17   18 1
    33   17   34 1
    34   20   21 2
    35   20   22 am
    36   22   23 am
    37   23   24 2
    38   23   25 am
    39   25   36 1
    40   25   37 1
@<TRIPOS>MOLECULE
ZINC03959950
   38    40     0     0     0
SMALL
USER_CHARGES

@<TRIPOS>ATOM
      1 C1         -0.4830   -0.7182    1.0997 C.ar      1 <0>        -0.1222
      2 C2         -0.4658   -2.0973    1.0835 C.ar      1 <0>        -0.0137
      3 C3          0.0400   -2.7732   -0.0131 C.ar      1 <0>        -0.6694
      4 C4          0.5270   -2.0718   -1.1020 C.ar      1 <0>        -0.0122
      5 C5          0.5114   -0.6926   -1.1010 C.ar      1 <0>        -0.1146
      6 C6          0.0021   -0.0041    0.0020 C.ar      1 <0>        -0.0012
      7 C7         -0.0180    1.4739    0.0101 C.2       1 <0>         0.0729
      8 C8         -1.2082    2.1396    0.0194 C.2       1 <0>        -0.2060
      9 C9         -2.5990    1.5259    0.0165 C.3       1 <0>        -0.1262
     10 C10        -3.4825    2.7300    0.4249 C.3       1 <0>         0.0530
     11 O1         -2.7067    3.8625   -0.0034 O.3       1 <0>        -0.3332
     12 C11        -1.3989    3.5421    0.0275 C.2       1 <0>         0.5093
     13 O2         -0.4947    4.3561    0.0583 O.2       1 <0>        -0.4388
     14 C12         1.2515    2.2300    0.0021 C.ar      1 <0>        -0.0655
     15 C13         1.5849    3.0289   -1.0942 C.ar      1 <0>        -0.0576
     16 C14         2.7683    3.7365   -1.0931 C.ar      1 <0>        -0.1064
     17 C15         3.6310    3.6475   -0.0130 C.ar      1 <0>        -0.0203
     18 C16         3.3087    2.8524    1.0747 C.ar      1 <0>        -0.1111
     19 C17         2.1256    2.1444    1.0882 C.ar      1 <0>        -0.0802
     20 Cl1         5.1227    4.5354   -0.0227 Cl        1 <0>        -0.0637
     21 S1          0.0643   -4.5350   -0.0225 S.o2      1 <0>         2.7005
     22 O3         -0.9467   -4.9600    0.8810 O.2       1 <0>        -0.9598
     23 O4          0.0838   -4.9336   -1.3864 O.2       1 <0>        -0.9596
     24 N1          1.5111   -5.0082    0.6295 N.pl3     1 <0>        -1.2492
     25 H1         -0.8741   -0.1918    1.9579 H         1 <0>         0.1396
     26 H2         -0.8443   -2.6509    1.9300 H         1 <0>         0.1502
     27 H3          0.9207   -2.6056   -1.9544 H         1 <0>         0.1501
     28 H4          0.8925   -0.1464   -1.9512 H         1 <0>         0.1396
     29 H5         -2.8634    1.1659   -0.9777 H         1 <0>         0.1051
     30 H6         -2.6720    0.7240    0.7513 H         1 <0>         0.1040
     31 H7         -3.6340    2.7531    1.5041 H         1 <0>         0.0901
     32 H8         -4.4393    2.6995   -0.0962 H         1 <0>         0.1166
     33 H9          0.9154    3.0953   -1.9389 H         1 <0>         0.1299
     34 H10         3.0250    4.3583   -1.9380 H         1 <0>         0.1385
     35 H11         3.9856    2.7868    1.9137 H         1 <0>         0.1384
     36 H12         1.8756    1.5246    1.9366 H         1 <0>         0.1328
     37 H13         2.1499   -4.3418    0.9276 H         1 <0>         0.4173
     38 H14         1.7199   -5.9517    0.7134 H         1 <0>         0.4228
@<TRIPOS>BOND
     1    1    6 ar
     2    1    2 ar
     3    1   25 1
     4    2    3 ar
     5    2   26 1
     6    3    4 ar
     7    3   21 1
     8    4    5 ar
     9    4   27 1
    10    5    6 ar
    11    5   28 1
    12    6    7 1
    13    7    8 2
    14    7   14 1
    15    8   12 1
    16    8    9 1
    17    9   10 1
    18    9   29 1
    19    9   30 1
    20   10   11 1
    21   10   31 1
    22   10   32 1
    23   11   12 1
    24   12   13 2
    25   14   19 ar
    26   14   15 ar
    27   15   16 ar
    28   15   33 1
    29   16   17 ar
    30   16   34 1
    31   17   18 ar
    32   17   20 1
    33   18   19 ar
    34   18   35 1
    35   19   36 1
    36   21   22 2
    37   21   23 2
    38   21   24 1
    39   24   37 1
    40   24   38 1
@<TRIPOS>MOLECULE
ZINC04617754
   37    39     0     0     0
SMALL
USER_CHARGES

@<TRIPOS>ATOM
      1 C1          1.2511    5.4962   -2.4168 C.3       1 <0>        -0.6667
      2 S1          1.2862    5.9509   -0.6610 S.o2      1 <0>         2.6041
      3 O1          0.1160    6.6819   -0.3213 O.2       1 <0>        -0.9409
      4 O2          2.5732    6.4386   -0.3074 O.2       1 <0>        -0.9425
      5 N1          1.1395    4.5163    0.1531 N.pl3     1 <0>        -1.0499
      6 C2          2.0918    3.5171   -0.0211 C.ar      1 <0>         0.2171
      7 C3          3.4271    3.8542   -0.2055 C.ar      1 <0>        -0.1641
      8 C4          4.3777    2.8695   -0.3794 C.ar      1 <0>        -0.0128
      9 C5          4.0023    1.5235   -0.3711 C.ar      1 <0>        -0.1918
     10 C6          2.6514    1.1827   -0.1791 C.ar      1 <0>        -0.0282
     11 C7          1.7052    2.1726   -0.0110 C.ar      1 <0>        -0.1454
     12 S2          0.0123    1.7436    0.2233 S.3       1 <0>         0.0334
     13 C8          0.0246   -0.0169    0.2941 C.ar      1 <0>        -0.2036
     14 C9         -0.1015   -0.6649    1.5159 C.ar      1 <0>        -0.0023
     15 C10        -0.0921   -2.0452    1.5691 C.ar      1 <0>        -0.1712
     16 C11         0.0423   -2.7840    0.4056 C.ar      1 <0>         0.1688
     17 C12         0.1682   -2.1417   -0.8148 C.ar      1 <0>        -0.1995
     18 C13         0.1547   -0.7604   -0.8745 C.ar      1 <0>         0.1791
     19 F1          0.2724   -0.1336   -2.0655 F         1 <0>        -0.1115
     20 F2          0.0511   -4.1338    0.4612 F         1 <0>        -0.1200
     21 C14         5.1715    0.6582   -0.5721 C.2       1 <0>         0.4057
     22 O3          5.1608   -0.5542   -0.6122 O.2       1 <0>        -0.4404
     23 C15         6.3890    1.5379   -0.7198 C.3       1 <0>        -0.1620
     24 C16         5.8689    2.9764   -0.5939 C.3       1 <0>        -0.0850
     25 H1          0.3087    4.9980   -2.6443 H         1 <0>         0.1359
     26 H2          1.3436    6.3948   -3.0267 H         1 <0>         0.1388
     27 H3          2.0800    4.8226   -2.6343 H         1 <0>         0.1321
     28 H4          0.3897    4.3727    0.7515 H         1 <0>         0.4318
     29 H5          3.7225    4.8930   -0.2131 H         1 <0>         0.1766
     30 H6          2.3536    0.1446   -0.1673 H         1 <0>         0.1296
     31 H7         -0.2071   -0.0899    2.4240 H         1 <0>         0.1574
     32 H8         -0.1902   -2.5489    2.5194 H         1 <0>         0.1543
     33 H9          0.2730   -2.7201   -1.7208 H         1 <0>         0.1585
     34 H10         7.0494    1.3162   -0.0023 H         1 <0>         0.1007
     35 H11         6.8489    1.3853   -1.6962 H         1 <0>         0.1119
     36 H12         6.0769    3.5313   -1.5087 H         1 <0>         0.1009
     37 H13         6.3355    3.4701    0.2586 H         1 <0>         0.1010
@<TRIPOS>BOND
     1    1    2 1
     2    1   25 1
     3    1   26 1
     4    1   27 1
     5    2    3 2
     6    2    4 2
     7    2    5 1
     8    5    6 1
     9    5   28 1
    10    6   11 ar
    11    6    7 ar
    12    7    8 ar
    13    7   29 1
    14    8   24 1
    15    8    9 ar
    16    9   10 ar
    17    9   21 1
    18   10   11 ar
    19   10   30 1
    20   11   12 1
    21   12   13 1
    22   13   18 ar
    23   13   14 ar
    24   14   15 ar
    25   14   31 1
    26   15   16 ar
    27   15   32 1
    28   16   17 ar
    29   16   20 1
    30   17   18 ar
    31   17   33 1
    32   18   19 1
    33   21   22 2
    34   21   23 1
    35   23   24 1
    36   23   34 1
    37   23   35 1
    38   24   36 1
    39   24   37 1
@<TRIPOS>MOLECULE
ZINC04617756
   40    42     0     0     0
SMALL
USER_CHARGES

@<TRIPOS>ATOM
      1 C1          3.2188    3.2155   -2.6683 C.3       1 <0>        -0.0979
      2 C2          3.7626    3.4068   -1.2759 C.2       1 <0>        -0.1188
      3 C3          3.2534    2.8631   -0.1534 C.2       1 <0>        -0.0224
      4 C4          4.0467    3.2796    1.0048 C.ar      1 <0>        -0.0069
      5 C5          3.9502    2.9956    2.3707 C.ar      1 <0>        -0.1262
      6 C6          4.8653    3.5357    3.2507 C.ar      1 <0>         0.1015
      7 C7          5.8875    4.3573    2.7923 C.ar      1 <0>        -0.1641
      8 C8          6.0034    4.6450    1.4482 C.ar      1 <0>        -0.0633
      9 C9          5.0911    4.1099    0.5446 C.ar      1 <0>        -0.0939
     10 C10         4.9339    4.2149   -0.9200 C.2       1 <0>        -0.0226
     11 C11         5.7322    4.9318   -1.7841 C.2       1 <0>        -0.0762
     12 C12         5.3160    5.1270   -3.1736 C.ar      1 <0>        -0.0575
     13 C13         6.2328    4.9297   -4.2173 C.ar      1 <0>        -0.0848
     14 C14         5.8384    5.1078   -5.5117 C.ar      1 <0>        -0.1369
     15 C15         4.5303    5.4964   -5.7971 C.ar      1 <0>        -0.0806
     16 C16         3.6171    5.6988   -4.7633 C.ar      1 <0>        -0.1055
     17 C17         4.0004    5.5176   -3.4660 C.ar      1 <0>        -0.0675
     18 S1          4.0293    5.7319   -7.4699 S.3       1 <0>        -0.1231
     19 C18         5.5220    5.3606   -8.4315 C.3       1 <0>        -0.1435
     20 F1          4.7662    3.2636    4.5703 F         1 <0>        -0.1419
     21 C19         2.0441    1.9656   -0.0973 C.3       1 <0>        -0.1219
     22 C20         2.4859    0.5251   -0.1265 C.2       1 <0>         0.4674
     23 O1          3.6620    0.2550   -0.1867 O.co2     1 <0>        -0.6277
     24 H1          2.4997    4.0043   -2.8890 H         1 <0>         0.0693
     25 H2          4.0372    3.2583   -3.3870 H         1 <0>         0.0689
     26 H3          2.7263    2.2455   -2.7359 H         1 <0>         0.0677
     27 H4          3.1587    2.3582    2.7364 H         1 <0>         0.1367
     28 H5          6.5963    4.7733    3.4929 H         1 <0>         0.1346
     29 H6          6.8003    5.2844    1.0982 H         1 <0>         0.1300
     30 H7          6.6653    5.3499   -1.4361 H         1 <0>         0.1322
     31 H8          7.2477    4.6334   -3.9970 H         1 <0>         0.1274
     32 H9          6.5420    4.9516   -6.3161 H         1 <0>         0.1220
     33 H10         2.6048    5.9998   -4.9894 H         1 <0>         0.1289
     34 H11         3.2922    5.6743   -2.6658 H         1 <0>         0.1345
     35 H12         6.3202    6.0440   -8.1417 H         1 <0>         0.0828
     36 H13         5.8337    4.3345   -8.2367 H         1 <0>         0.0844
     37 H14         5.3090    5.4803   -9.4937 H         1 <0>         0.1073
     38 H15         1.4025    2.1663   -0.9553 H         1 <0>         0.0811
     39 H16         1.4915    2.1576    0.8224 H         1 <0>         0.0770
     40 O2          1.5727   -0.4579   -0.0857 O.co2     1 <0>        -0.7706
@<TRIPOS>BOND
     1    1    2 1
     2    1   24 1
     3    1   25 1
     4    1   26 1
     5    2   10 1
     6    2    3 2
     7    3    4 1
     8    3   21 1
     9    4    9 ar
    10    4    5 ar
    11    5    6 ar
    12    5   27 1
    13    6    7 ar
    14    6   20 1
    15    7    8 ar
    16    7   28 1
    17    8    9 ar
    18    8   29 1
    19    9   10 1
    20   10   11 2
    21   11   12 1
    22   11   30 1
    23   12   17 ar
    24   12   13 ar
    25   13   14 ar
    26   13   31 1
    27   14   15 ar
    28   14   32 1
    29   15   16 ar
    30   15   18 1
    31   16   17 ar
    32   16   33 1
    33   17   34 1
    34   18   19 1
    35   19   35 1
    36   19   36 1
    37   19   37 1
    38   21   22 1
    39   21   38 1
    40   21   39 1
    41   22   23 2
    42   22   40 1
@<TRIPOS>MOLECULE
ZINC04617757
   49    52     0     0     0
SMALL
USER_CHARGES

@<TRIPOS>ATOM
      1 C1         -2.8796    1.3134    0.0722 C.3       1 <0>        -0.1112
      2 C2         -2.5317   -0.1508    0.1504 C.2       1 <0>        -0.0686
      3 C3         -3.4058   -1.1547    0.3575 C.2       1 <0>        -0.0805
      4 C4         -2.6961   -2.4355    0.3769 C.ar      1 <0>        -0.0194
      5 C5         -3.1260   -3.7539    0.5579 C.ar      1 <0>        -0.1344
      6 C6         -2.2100   -4.7852    0.5258 C.ar      1 <0>         0.1049
      7 C7         -0.8613   -4.5270    0.3155 C.ar      1 <0>        -0.1557
      8 C8         -0.4174   -3.2336    0.1340 C.ar      1 <0>        -0.0602
      9 C9         -1.3247   -2.1797    0.1632 C.ar      1 <0>        -0.0854
     10 C10        -1.1861   -0.7175    0.0094 C.2       1 <0>        -0.0591
     11 C11        -0.0193   -0.0208   -0.2166 C.2       1 <0>        -0.0288
     12 C12        -0.0716    1.3960   -0.5798 C.ar      1 <0>        -0.0815
     13 C13        -0.9716    1.8383   -1.5613 C.ar      1 <0>        -0.0630
     14 C14        -1.0204    3.1614   -1.8927 C.ar      1 <0>        -0.1428
     15 C15        -0.1705    4.0712   -1.2655 C.ar      1 <0>        -0.0710
     16 C16         0.7294    3.6359   -0.2939 C.ar      1 <0>        -0.1042
     17 C17         0.7820    2.3156    0.0483 C.ar      1 <0>        -0.0763
     18 S1         -0.2335    5.7770   -1.7027 S.3       1 <0>        -0.1125
     19 C18        -1.5235    5.8564   -2.9756 C.3       1 <0>        -0.1461
     20 F1         -2.6285   -6.0578    0.7010 F         1 <0>        -0.1384
     21 C19        -4.8909   -0.9845    0.5485 C.3       1 <0>        -0.1043
     22 C20        -5.5926   -1.1786   -0.7709 C.2       1 <0>         0.4279
     23 O1         -4.9496   -1.4305   -1.7690 O.2       1 <0>        -0.4370
     24 C21        -7.0476   -1.0633   -0.8488 C.2       1 <0>        -0.3722
     25 C22        -7.8077   -1.2123   -1.9923 C.2       1 <0>         0.1941
     26 C23        -9.2456   -1.0079   -1.5738 C.3       1 <0>         0.0433
     27 O2         -9.2200   -0.7316   -0.1469 O.3       1 <0>        -0.3114
     28 C24        -7.9435   -0.7640    0.2732 C.2       1 <0>         0.5283
     29 O3         -7.5834   -0.5724    1.4183 O.2       1 <0>        -0.4429
     30 O4         -7.3599   -1.4859   -3.2263 O.3       1 <0>        -0.3802
     31 H1         -3.1061    1.5784   -0.9605 H         1 <0>         0.0771
     32 H2         -3.7493    1.5141    0.6980 H         1 <0>         0.0670
     33 H3         -2.0351    1.9067    0.4227 H         1 <0>         0.0790
     34 H4         -4.1725   -3.9644    0.7221 H         1 <0>         0.1324
     35 H5         -0.1558   -5.3444    0.2932 H         1 <0>         0.1393
     36 H6          0.6323   -3.0397   -0.0301 H         1 <0>         0.1339
     37 H7          0.9340   -0.5201   -0.1257 H         1 <0>         0.1382
     38 H8         -1.6275    1.1335   -2.0506 H         1 <0>         0.1312
     39 H9         -1.7159    3.5034   -2.6448 H         1 <0>         0.1255
     40 H10         1.3859    4.3445    0.1892 H         1 <0>         0.1313
     41 H11         1.4793    1.9793    0.8014 H         1 <0>         0.1330
     42 H12        -1.2410    5.2264   -3.8190 H         1 <0>         0.0851
     43 H13        -2.4672    5.5041   -2.5590 H         1 <0>         0.0851
     44 H14        -1.6376    6.8864   -3.3135 H         1 <0>         0.1108
     45 H15        -5.2522   -1.7229    1.2642 H         1 <0>         0.1109
     46 H16        -5.0962    0.0175    0.9253 H         1 <0>         0.1137
     47 H17        -9.8281   -1.9080   -1.7705 H         1 <0>         0.1397
     48 H18        -9.6725   -0.1612   -2.1115 H         1 <0>         0.1387
     49 H19        -8.1335   -1.5367   -3.8580 H         1 <0>         0.4171
@<TRIPOS>BOND
     1    1    2 1
     2    1   31 1
     3    1   32 1
     4    1   33 1
     5    2   10 1
     6    2    3 2
     7    3    4 1
     8    3   21 1
     9    4    9 ar
    10    4    5 ar
    11    5    6 ar
    12    5   34 1
    13    6    7 ar
    14    6   20 1
    15    7    8 ar
    16    7   35 1
    17    8    9 ar
    18    8   36 1
    19    9   10 1
    20   10   11 2
    21   11   12 1
    22   11   37 1
    23   12   17 ar
    24   12   13 ar
    25   13   14 ar
    26   13   38 1
    27   14   15 ar
    28   14   39 1
    29   15   16 ar
    30   15   18 1
    31   16   17 ar
    32   16   40 1
    33   17   41 1
    34   18   19 1
    35   19   42 1
    36   19   43 1
    37   19   44 1
    38   21   22 1
    39   21   45 1
    40   21   46 1
    41   22   23 2
    42   22   24 1
    43   24   28 1
    44   24   25 2
    45   25   26 1
    46   25   30 1
    47   26   27 1
    48   26   47 1
    49   26   48 1
    50   27   28 1
    51   28   29 2
    52   30   49 1
@<TRIPOS>MOLECULE
ZINC04617757
   49    52     0     0     0
SMALL
USER_CHARGES

@<TRIPOS>ATOM
      1 C1         -2.8796    1.3134    0.0722 C.3       1 <0>        -0.1217
      2 C2         -2.5317   -0.1508    0.1504 C.2       1 <0>        -0.0410
      3 C3         -3.4058   -1.1547    0.3575 C.2       1 <0>        -0.1226
      4 C4         -2.6961   -2.4355    0.3769 C.ar      1 <0>        -0.0271
      5 C5         -3.1260   -3.7539    0.5579 C.ar      1 <0>        -0.1380
      6 C6         -2.2100   -4.7852    0.5258 C.ar      1 <0>         0.1082
      7 C7         -0.8613   -4.5270    0.3155 C.ar      1 <0>        -0.1514
      8 C8         -0.4174   -3.2336    0.1340 C.ar      1 <0>        -0.0591
      9 C9         -1.3247   -2.1797    0.1632 C.ar      1 <0>        -0.0812
     10 C10        -1.1861   -0.7175    0.0094 C.2       1 <0>        -0.0755
     11 C11        -0.0193   -0.0208   -0.2166 C.2       1 <0>        -0.0059
     12 C12        -0.0716    1.3960   -0.5798 C.ar      1 <0>        -0.0921
     13 C13        -0.9716    1.8383   -1.5613 C.ar      1 <0>        -0.0624
     14 C14        -1.0204    3.1614   -1.8927 C.ar      1 <0>        -0.1444
     15 C15        -0.1705    4.0712   -1.2655 C.ar      1 <0>        -0.0667
     16 C16         0.7294    3.6359   -0.2939 C.ar      1 <0>        -0.1044
     17 C17         0.7820    2.3156    0.0483 C.ar      1 <0>        -0.0718
     18 S1         -0.2335    5.7770   -1.7027 S.3       1 <0>        -0.1073
     19 C18        -1.5235    5.8564   -2.9756 C.3       1 <0>        -0.1473
     20 F1         -2.6285   -6.0578    0.7010 F         1 <0>        -0.1358
     21 C19        -4.8909   -0.9845    0.5485 C.3       1 <0>        -0.0565
     22 C20        -5.5926   -1.1786   -0.7709 C.2       1 <0>         0.4133
     23 O1         -4.9496   -1.4307   -1.7690 O.3       1 <0>        -0.3311
     24 C21        -7.0476   -1.0633   -0.8488 C.2       1 <0>        -0.5465
     25 C22        -7.8082   -1.2180   -1.9912 C.2       1 <0>         0.3391
     26 C23        -9.2459   -1.0110   -1.5732 C.3       1 <0>         0.0324
     27 O2         -9.2196   -0.7274   -0.1477 O.3       1 <0>        -0.3171
     28 C24        -7.9435   -0.7640    0.2732 C.2       1 <0>         0.5430
     29 O3         -7.5834   -0.5724    1.4183 O.2       1 <0>        -0.4714
     30 O4         -7.3610   -1.4981   -3.2240 O.2       1 <0>        -0.5515
     31 H1         -3.1061    1.5784   -0.9605 H         1 <0>         0.0819
     32 H2         -3.7493    1.5141    0.6980 H         1 <0>         0.0713
     33 H3         -2.0351    1.9067    0.4227 H         1 <0>         0.0854
     34 H4         -4.1725   -3.9644    0.7221 H         1 <0>         0.1339
     35 H5         -0.1558   -5.3444    0.2932 H         1 <0>         0.1412
     36 H6          0.6323   -3.0397   -0.0301 H         1 <0>         0.1355
     37 H7          0.9340   -0.5201   -0.1257 H         1 <0>         0.1409
     38 H8         -1.6275    1.1335   -2.0506 H         1 <0>         0.1303
     39 H9         -1.7159    3.5034   -2.6448 H         1 <0>         0.1272
     40 H10         1.3859    4.3445    0.1892 H         1 <0>         0.1329
     41 H11         1.4793    1.9793    0.8014 H         1 <0>         0.1343
     42 H12        -1.2410    5.2264   -3.8190 H         1 <0>         0.0858
     43 H13        -2.4672    5.5041   -2.5590 H         1 <0>         0.0858
     44 H14        -1.6376    6.8864   -3.3135 H         1 <0>         0.1122
     45 H15        -5.2522   -1.7229    1.2642 H         1 <0>         0.1406
     46 H16        -5.0962    0.0175    0.9253 H         1 <0>         0.1423
     47 H17        -9.8287   -1.9120   -1.7650 H         1 <0>         0.1337
     48 H18        -9.6728   -0.1670   -2.1151 H         1 <0>         0.1331
     49 H19        -5.5684   -1.5271   -2.5486 H         1 <0>         0.4455
@<TRIPOS>BOND
     1    1    2 1
     2    1   31 1
     3    1   32 1
     4    1   33 1
     5    2   10 1
     6    2    3 2
     7    3    4 1
     8    3   21 1
     9    4    9 ar
    10    4    5 ar
    11    5    6 ar
    12    5   34 1
    13    6    7 ar
    14    6   20 1
    15    7    8 ar
    16    7   35 1
    17    8    9 ar
    18    8   36 1
    19    9   10 1
    20   10   11 2
    21   11   12 1
    22   11   37 1
    23   12   17 ar
    24   12   13 ar
    25   13   14 ar
    26   13   38 1
    27   14   15 ar
    28   14   39 1
    29   15   16 ar
    30   15   18 1
    31   16   17 ar
    32   16   40 1
    33   17   41 1
    34   18   19 1
    35   19   42 1
    36   19   43 1
    37   19   44 1
    38   21   22 1
    39   21   45 1
    40   21   46 1
    41   22   24 2
    42   22   23 1
    43   23   49 1
    44   24   28 1
    45   24   25 1
    46   25   26 1
    47   25   30 2
    48   26   27 1
    49   26   47 1
    50   26   48 1
    51   27   28 1
    52   28   29 2
@<TRIPOS>MOLECULE
ZINC04617757
   49    52     0     0     0
SMALL
USER_CHARGES

@<TRIPOS>ATOM
      1 C1         -3.2307   -4.0728   -1.3423 C.3       1 <0>        -0.1213
      2 C2         -2.6508   -2.6821   -1.3708 C.2       1 <0>        -0.0417
      3 C3         -3.3295   -1.5551   -1.6611 C.2       1 <0>        -0.1225
      4 C4         -2.4294   -0.4019   -1.5943 C.ar      1 <0>        -0.0269
      5 C5         -2.6253    0.9661   -1.8088 C.ar      1 <0>        -0.1378
      6 C6         -1.5673    1.8410   -1.6710 C.ar      1 <0>         0.1081
      7 C7         -0.3059    1.3759   -1.3209 C.ar      1 <0>        -0.1516
      8 C8         -0.0924    0.0304   -1.1042 C.ar      1 <0>        -0.0591
      9 C9         -1.1457   -0.8681   -1.2384 C.ar      1 <0>        -0.0814
     10 C10        -1.2556   -2.3326   -1.0831 C.2       1 <0>        -0.0751
     11 C11        -0.2433   -3.2019   -0.7404 C.2       1 <0>        -0.0066
     12 C12        -0.5557   -4.5898   -0.3967 C.ar      1 <0>        -0.0918
     13 C13        -1.6130   -4.8770    0.4800 C.ar      1 <0>        -0.0624
     14 C14        -1.9039   -6.1732    0.7932 C.ar      1 <0>        -0.1443
     15 C15        -1.1458   -7.2105    0.2521 C.ar      1 <0>        -0.0668
     16 C16        -0.0907   -6.9301   -0.6149 C.ar      1 <0>        -0.1044
     17 C17         0.2046   -5.6373   -0.9384 C.ar      1 <0>        -0.0720
     18 S1         -1.5219   -8.8815    0.6658 S.3       1 <0>        -0.1075
     19 C18        -2.9361   -8.7466    1.7939 C.3       1 <0>        -0.1472
     20 F1         -1.7598    3.1620   -1.8789 F         1 <0>        -0.1359
     21 C19        -4.7941   -1.4916   -2.0100 C.3       1 <0>        -0.0501
     22 C20        -5.5926   -1.1786   -0.7709 C.2       1 <0>         0.4088
     23 O1         -5.0276   -1.0222    0.2918 O.3       1 <0>        -0.3353
     24 C21        -7.0476   -1.0633   -0.8488 C.2       1 <0>        -0.5527
     25 C22        -7.8082   -1.2180   -1.9912 C.2       1 <0>         0.3513
     26 C23        -9.2459   -1.0110   -1.5732 C.3       1 <0>         0.0270
     27 O2         -9.2196   -0.7274   -0.1477 O.3       1 <0>        -0.3115
     28 C24        -7.9435   -0.7640    0.2732 C.2       1 <0>         0.5398
     29 O3         -7.5834   -0.5724    1.4183 O.2       1 <0>        -0.4936
     30 O4         -7.3610   -1.4981   -3.2240 O.2       1 <0>        -0.5259
     31 H1         -3.6043   -4.2902   -0.3417 H         1 <0>         0.0818
     32 H2         -4.0497   -4.1396   -2.0585 H         1 <0>         0.0712
     33 H3         -2.4575   -4.7942   -1.6062 H         1 <0>         0.0850
     34 H4         -3.6023    1.3369   -2.0813 H         1 <0>         0.1338
     35 H5          0.5128    2.0726   -1.2170 H         1 <0>         0.1412
     36 H6          0.8904   -0.3245   -0.8313 H         1 <0>         0.1354
     37 H7          0.7807   -2.8593   -0.7254 H         1 <0>         0.1408
     38 H8         -2.1983   -4.0739    0.9028 H         1 <0>         0.1304
     39 H9         -2.7203   -6.3954    1.4643 H         1 <0>         0.1272
     40 H10         0.4939   -7.7370   -1.0315 H         1 <0>         0.1329
     41 H11         1.0220   -5.4211   -1.6104 H         1 <0>         0.1342
     42 H12        -2.6492   -8.1617    2.6678 H         1 <0>         0.0858
     43 H13        -3.7631   -8.2539    1.2825 H         1 <0>         0.0858
     44 H14        -3.2457   -9.7430    2.1091 H         1 <0>         0.1121
     45 H15        -4.9569   -0.7116   -2.7537 H         1 <0>         0.1403
     46 H16        -5.1131   -2.4520   -2.4148 H         1 <0>         0.1421
     47 H17        -9.8287   -1.9120   -1.7650 H         1 <0>         0.1331
     48 H18        -9.6728   -0.1670   -2.1151 H         1 <0>         0.1328
     49 H19        -5.7027   -0.8233    1.0022 H         1 <0>         0.4446
@<TRIPOS>BOND
     1    1    2 1
     2    1   31 1
     3    1   32 1
     4    1   33 1
     5    2   10 1
     6    2    3 2
     7    3    4 1
     8    3   21 1
     9    4    9 ar
    10    4    5 ar
    11    5    6 ar
    12    5   34 1
    13    6    7 ar
    14    6   20 1
    15    7    8 ar
    16    7   35 1
    17    8    9 ar
    18    8   36 1
    19    9   10 1
    20   10   11 2
    21   11   12 1
    22   11   37 1
    23   12   17 ar
    24   12   13 ar
    25   13   14 ar
    26   13   38 1
    27   14   15 ar
    28   14   39 1
    29   15   16 ar
    30   15   18 1
    31   16   17 ar
    32   16   40 1
    33   17   41 1
    34   18   19 1
    35   19   42 1
    36   19   43 1
    37   19   44 1
    38   21   22 1
    39   21   45 1
    40   21   46 1
    41   22   24 2
    42   22   23 1
    43   23   49 1
    44   24   28 1
    45   24   25 1
    46   25   26 1
    47   25   30 2
    48   26   27 1
    49   26   47 1
    50   26   48 1
    51   27   28 1
    52   28   29 2
@<TRIPOS>MOLECULE
ZINC04617757
   49    52     0     0     0
SMALL
USER_CHARGES

@<TRIPOS>ATOM
      1 C1         -2.8796    1.3134    0.0722 C.3       1 <0>        -0.1167
      2 C2         -2.5317   -0.1508    0.1504 C.2       1 <0>        -0.0512
      3 C3         -3.4058   -1.1547    0.3575 C.2       1 <0>        -0.0974
      4 C4         -2.6961   -2.4355    0.3769 C.ar      1 <0>        -0.0219
      5 C5         -3.1260   -3.7539    0.5579 C.ar      1 <0>        -0.1385
      6 C6         -2.2100   -4.7852    0.5258 C.ar      1 <0>         0.1064
      7 C7         -0.8613   -4.5270    0.3155 C.ar      1 <0>        -0.1540
      8 C8         -0.4174   -3.2336    0.1340 C.ar      1 <0>        -0.0588
      9 C9         -1.3247   -2.1797    0.1632 C.ar      1 <0>        -0.0828
     10 C10        -1.1861   -0.7175    0.0094 C.2       1 <0>        -0.0684
     11 C11        -0.0193   -0.0208   -0.2166 C.2       1 <0>        -0.0159
     12 C12        -0.0716    1.3960   -0.5798 C.ar      1 <0>        -0.0875
     13 C13        -0.9716    1.8383   -1.5613 C.ar      1 <0>        -0.0622
     14 C14        -1.0204    3.1614   -1.8927 C.ar      1 <0>        -0.1433
     15 C15        -0.1705    4.0712   -1.2655 C.ar      1 <0>        -0.0685
     16 C16         0.7294    3.6359   -0.2939 C.ar      1 <0>        -0.1047
     17 C17         0.7820    2.3156    0.0483 C.ar      1 <0>        -0.0740
     18 S1         -0.2335    5.7770   -1.7027 S.3       1 <0>        -0.1104
     19 C18        -1.5235    5.8564   -2.9756 C.3       1 <0>        -0.1467
     20 F1         -2.6285   -6.0578    0.7010 F         1 <0>        -0.1376
     21 C19        -4.8909   -0.9845    0.5485 C.3       1 <0>        -0.1014
     22 C20        -5.5926   -1.1786   -0.7709 C.2       1 <0>         0.4027
     23 O1         -4.9496   -1.4305   -1.7690 O.2       1 <0>        -0.4020
     24 C21        -7.0476   -1.0633   -0.8488 C.3       1 <0>        -0.2920
     25 C22        -7.8077   -1.2123   -1.9923 C.2       1 <0>         0.3159
     26 C23        -9.2456   -1.0079   -1.5738 C.3       1 <0>         0.0229
     27 O2         -9.2200   -0.7316   -0.1469 O.3       1 <0>        -0.2987
     28 C24        -7.9435   -0.7640    0.2732 C.2       1 <0>         0.5198
     29 O3         -7.5834   -0.5724    1.4183 O.2       1 <0>        -0.4141
     30 O4         -7.3599   -1.4859   -3.2263 O.2       1 <0>        -0.4365
     31 H1         -3.1061    1.5784   -0.9605 H         1 <0>         0.0808
     32 H2         -3.7493    1.5141    0.6980 H         1 <0>         0.0695
     33 H3         -2.0351    1.9067    0.4227 H         1 <0>         0.0820
     34 H4         -4.1725   -3.9644    0.7221 H         1 <0>         0.1301
     35 H5         -0.1558   -5.3444    0.2932 H         1 <0>         0.1404
     36 H6          0.6323   -3.0397   -0.0301 H         1 <0>         0.1350
     37 H7          0.9340   -0.5201   -0.1257 H         1 <0>         0.1396
     38 H8         -1.6275    1.1335   -2.0506 H         1 <0>         0.1314
     39 H9         -1.7159    3.5034   -2.6448 H         1 <0>         0.1268
     40 H10         1.3859    4.3445    0.1892 H         1 <0>         0.1320
     41 H11         1.4793    1.9793    0.8014 H         1 <0>         0.1335
     42 H12        -1.2410    5.2264   -3.8190 H         1 <0>         0.0856
     43 H13        -2.4672    5.5041   -2.5590 H         1 <0>         0.0857
     44 H14        -1.6376    6.8864   -3.3135 H         1 <0>         0.1114
     45 H15        -5.2522   -1.7229    1.2642 H         1 <0>         0.1171
     46 H16        -5.0962    0.0175    0.9253 H         1 <0>         0.1284
     47 H17        -9.8281   -1.9080   -1.7705 H         1 <0>         0.1473
     48 H18        -9.6725   -0.1612   -2.1115 H         1 <0>         0.1548
     49 H19        -6.9283   -2.0532   -0.9252 H         1 <0>         0.1859
@<TRIPOS>BOND
     1    1    2 1
     2    1   31 1
     3    1   32 1
     4    1   33 1
     5    2   10 1
     6    2    3 2
     7    3    4 1
     8    3   21 1
     9    4    9 ar
    10    4    5 ar
    11    5    6 ar
    12    5   34 1
    13    6    7 ar
    14    6   20 1
    15    7    8 ar
    16    7   35 1
    17    8    9 ar
    18    8   36 1
    19    9   10 1
    20   10   11 2
    21   11   12 1
    22   11   37 1
    23   12   17 ar
    24   12   13 ar
    25   13   14 ar
    26   13   38 1
    27   14   15 ar
    28   14   39 1
    29   15   16 ar
    30   15   18 1
    31   16   17 ar
    32   16   40 1
    33   17   41 1
    34   18   19 1
    35   19   42 1
    36   19   43 1
    37   19   44 1
    38   21   22 1
    39   21   45 1
    40   21   46 1
    41   22   24 1
    42   22   23 2
    43   24   49 1
    44   24   28 1
    45   24   25 1
    46   25   26 1
    47   25   30 2
    48   26   27 1
    49   26   47 1
    50   26   48 1
    51   27   28 1
    52   28   29 2
@<TRIPOS>MOLECULE
ZINC04631275
   57    58     0     0     0
SMALL
USER_CHARGES

@<TRIPOS>ATOM
      1 C1         -1.3171   -2.0990    0.0042 C.3       1 <0>        -0.1404
      2 C2          0.1865   -2.1979   -0.0113 C.2       1 <0>         0.0886
      3 C3          0.9409   -1.0695   -0.0127 C.2       1 <0>        -0.0648
      4 C4          2.4120   -0.9700   -0.0263 C.2       1 <0>         0.5413
      5 O1          3.2084   -1.8950   -0.0385 O.2       1 <0>        -0.4129
      6 N1          2.7000    0.3393   -0.0220 N.2       1 <0>        -0.6358
      7 C5          1.5966    1.0532   -0.0076 C.2       1 <0>         0.6426
      8 N2          0.4945    0.2565   -0.0013 N.pl3     1 <0>        -0.6169
      9 N3          1.5611    2.4262    0.0002 N.pl3     1 <0>        -0.6216
     10 C6          2.7379    3.1468   -0.0071 C.cat     1 <0>         0.7497
     11 H1          4.7633    2.9432   -0.0277 H         1 <0>         0.4435
     12 N4          2.7024    4.5210    0.0005 N.pl3     1 <0>        -0.7959
     13 C7          0.8355   -3.5148   -0.0246 C.ar      1 <0>        -0.0972
     14 C8          1.5898   -3.9154   -1.1347 C.ar      1 <0>        -0.0607
     15 C9          2.1993   -5.1495   -1.1401 C.ar      1 <0>        -0.0872
     16 C10         2.0596   -6.0015   -0.0504 C.ar      1 <0>         0.1434
     17 C11         1.3080   -5.6110    1.0522 C.ar      1 <0>        -0.0910
     18 C12         0.6978   -4.3773    1.0703 C.ar      1 <0>        -0.0801
     19 C13         1.1609   -6.5402    2.2295 C.3       1 <0>        -0.0213
     20 C14         0.2919   -5.8750    3.2987 C.3       1 <0>        -0.1472
     21 C15         0.4996   -7.8419    1.7721 C.3       1 <0>        -0.1439
     22 C16         2.5417   -6.8471    2.8127 C.3       1 <0>        -0.1434
     23 O2          2.6589   -7.2195   -0.0631 O.3       1 <0>        -0.4833
     24 C17         3.0151   -5.5801   -2.3318 C.3       1 <0>        -0.0205
     25 C18         3.0086   -4.4684   -3.3829 C.3       1 <0>        -0.1460
     26 C19         4.4539   -5.8575   -1.8916 C.3       1 <0>        -0.1426
     27 C20         2.4109   -6.8518   -2.9308 C.3       1 <0>        -0.1443
     28 H2         -1.6898   -2.0698   -1.0197 H         1 <0>         0.1009
     29 H3         -1.7330   -2.9660    0.5176 H         1 <0>         0.0958
     30 H4         -1.6162   -1.1899    0.5258 H         1 <0>         0.0737
     31 H5         -0.4292    0.5524    0.0055 H         1 <0>         0.4399
     32 H6          0.7089    2.8893    0.0108 H         1 <0>         0.4543
     33 H7          1.8501    4.9840    0.0112 H         1 <0>         0.4403
     34 H8          3.5295    5.0275   -0.0046 H         1 <0>         0.4466
     35 H9          1.6955   -3.2560   -1.9834 H         1 <0>         0.1270
     36 H10         0.1136   -4.0752    1.9270 H         1 <0>         0.1329
     37 H11        -0.6918   -5.6564    2.8832 H         1 <0>         0.0572
     38 H12         0.1855   -6.5471    4.1502 H         1 <0>         0.0634
     39 H13         0.7630   -4.9476    3.6245 H         1 <0>         0.0564
     40 H14         1.1186   -8.3159    1.0103 H         1 <0>         0.0591
     41 H15         0.3932   -8.5141    2.6236 H         1 <0>         0.0641
     42 H16        -0.4841   -7.6233    1.3566 H         1 <0>         0.0550
     43 H17         3.0127   -5.9197    3.1384 H         1 <0>         0.0508
     44 H18         2.4351   -7.5192    3.6642 H         1 <0>         0.0574
     45 H19         3.1607   -7.3210    2.0509 H         1 <0>         0.0763
     46 H20         2.1103   -7.9239   -0.4346 H         1 <0>         0.3876
     47 H21         3.4390   -3.5624   -2.9562 H         1 <0>         0.0571
     48 H22         3.5987   -4.7799   -4.2449 H         1 <0>         0.0623
     49 H23         1.9836   -4.2708   -3.6966 H         1 <0>         0.0548
     50 H24         4.4585   -6.6495   -1.1427 H         1 <0>         0.0757
     51 H25         5.0439   -6.1690   -2.7535 H         1 <0>         0.0562
     52 H26         4.8843   -4.9515   -1.4648 H         1 <0>         0.0529
     53 H27         1.3859   -6.6543   -3.2445 H         1 <0>         0.0544
     54 H28         3.0010   -7.1633   -3.7927 H         1 <0>         0.0638
     55 H29         2.4155   -7.6439   -2.1820 H         1 <0>         0.0593
     56 N5          3.8671    2.4558   -0.0217 N.pl3     1 <0>        -0.7497
     57 H30         3.8409    1.4294   -0.0270 H         1 <0>         0.4622
@<TRIPOS>BOND
     1    1    2 1
     2    1   28 1
     3    1   29 1
     4    1   30 1
     5    2    3 2
     6    2   13 1
     7    3    8 1
     8    3    4 1
     9    4    5 2
    10    4    6 1
    11    6    7 2
    12    7    8 1
    13    7    9 1
    14    8   31 1
    15    9   10 1
    16    9   32 1
    17   10   12 1
    18   10   56 2
    19   11   56 1
    20   12   33 1
    21   12   34 1
    22   13   18 ar
    23   13   14 ar
    24   14   15 ar
    25   14   35 1
    26   15   16 ar
    27   15   24 1
    28   16   17 ar
    29   16   23 1
    30   17   18 ar
    31   17   19 1
    32   18   36 1
    33   19   20 1
    34   19   21 1
    35   19   22 1
    36   20   37 1
    37   20   38 1
    38   20   39 1
    39   21   40 1
    40   21   41 1
    41   21   42 1
    42   22   43 1
    43   22   44 1
    44   22   45 1
    45   23   46 1
    46   24   25 1
    47   24   26 1
    48   24   27 1
    49   25   47 1
    50   25   48 1
    51   25   49 1
    52   26   50 1
    53   26   51 1
    54   26   52 1
    55   27   53 1
    56   27   54 1
    57   27   55 1
    58   56   57 1
@<TRIPOS>MOLECULE
ZINC03814549
   48    50     0     0     0
SMALL
USER_CHARGES

@<TRIPOS>ATOM
      1 C1         -3.1121    4.9439    8.2094 C.3       1 <0>        -0.0937
      2 C2         -3.1617    3.9468    7.0804 C.2       1 <0>         0.0618
      3 C3         -3.8664    2.7944    7.0754 C.2       1 <0>        -0.1720
      4 C4         -3.6454    2.1633    5.8401 C.2       1 <0>        -0.1219
      5 C5         -2.7963    2.9538    5.1253 C.2       1 <0>         0.0333
      6 N1         -2.5018    4.0555    5.8905 N.pl3     1 <0>        -0.3926
      7 C6         -1.6643    5.1146    5.5126 C.ar      1 <0>         0.0979
      8 C7         -0.3001    4.9034    5.3648 C.ar      1 <0>        -0.0742
      9 C8          0.5223    5.9465    4.9869 C.ar      1 <0>        -0.1395
     10 C9         -0.0111    7.2053    4.7670 C.ar      1 <0>         0.1164
     11 C10        -1.3709    7.4192    4.9189 C.ar      1 <0>        -0.1411
     12 C11        -2.1973    6.3772    5.2912 C.ar      1 <0>        -0.0804
     13 F1          0.7958    8.2259    4.4032 F         1 <0>        -0.1290
     14 C12        -2.2876    2.6777    3.7650 C.ar      1 <0>         0.0464
     15 C13        -2.3035    1.3760    3.2616 C.ar      1 <0>        -0.1246
     16 C14        -1.8277    1.1251    1.9912 C.ar      1 <0>        -0.0151
     17 C15        -1.3355    2.1605    1.2166 C.ar      1 <0>        -0.6651
     18 C16        -1.3117    3.4523    1.7117 C.ar      1 <0>        -0.0152
     19 C17        -1.7897    3.7176    2.9784 C.ar      1 <0>        -0.1464
     20 S1         -0.7297    1.8315   -0.4050 S.o2      1 <0>         2.4994
     21 O1         -0.3164    0.4724   -0.3688 O.2       1 <0>        -0.9364
     22 O2          0.2091    2.8676   -0.6585 O.2       1 <0>        -0.9375
     23 C18        -2.1727    2.0171   -1.4883 C.3       1 <0>        -0.6506
     24 C19        -4.7382    2.2810    8.1922 C.3       1 <0>         0.1475
     25 O3         -5.3242    1.0106    7.8038 O.3       1 <0>        -0.3510
     26 C20        -6.1334    0.4152    8.6940 C.2       1 <0>         0.4611
     27 O4         -6.3450    0.9383    9.7624 O.2       1 <0>        -0.5154
     28 C21        -6.7779   -0.9057    8.3609 C.3       1 <0>        -0.1469
     29 H1         -3.9061    5.6793    8.0797 H         1 <0>         0.0793
     30 H2         -3.2485    4.4253    9.1583 H         1 <0>         0.0856
     31 H3         -2.1458    5.4482    8.2065 H         1 <0>         0.0702
     32 H4         -4.0686    1.2236    5.5173 H         1 <0>         0.1517
     33 H5          0.1170    3.9230    5.5414 H         1 <0>         0.1408
     34 H6          1.5830    5.7816    4.8679 H         1 <0>         0.1490
     35 H7         -1.7852    8.4016    4.7466 H         1 <0>         0.1488
     36 H8         -3.2576    6.5446    5.4103 H         1 <0>         0.1422
     37 H9         -2.6871    0.5668    3.8654 H         1 <0>         0.1398
     38 H10        -1.8397    0.1184    1.6003 H         1 <0>         0.1469
     39 H11        -0.9221    4.2553    1.1036 H         1 <0>         0.1428
     40 H12        -1.7743    4.7270    3.3622 H         1 <0>         0.1310
     41 H13        -2.9427    1.3042   -1.1932 H         1 <0>         0.1322
     42 H14        -2.5639    3.0308   -1.4020 H         1 <0>         0.1312
     43 H15        -1.8788    1.8277   -2.5207 H         1 <0>         0.1337
     44 H16        -4.1354    2.1438    9.0899 H         1 <0>         0.0784
     45 H17        -5.5317    3.0006    8.3938 H         1 <0>         0.0784
     46 H18        -6.4717   -1.2178    7.3625 H         1 <0>         0.0916
     47 H19        -6.4660   -1.6557    9.0877 H         1 <0>         0.1058
     48 H20        -7.8622   -0.7989    8.3916 H         1 <0>         0.1056
@<TRIPOS>BOND
     1    1    2 1
     2    1   29 1
     3    1   30 1
     4    1   31 1
     5    2    6 1
     6    2    3 2
     7    3    4 1
     8    3   24 1
     9    4    5 2
    10    4   32 1
    11    5    6 1
    12    5   14 1
    13    6    7 1
    14    7   12 ar
    15    7    8 ar
    16    8    9 ar
    17    8   33 1
    18    9   10 ar
    19    9   34 1
    20   10   11 ar
    21   10   13 1
    22   11   12 ar
    23   11   35 1
    24   12   36 1
    25   14   19 ar
    26   14   15 ar
    27   15   16 ar
    28   15   37 1
    29   16   17 ar
    30   16   38 1
    31   17   18 ar
    32   17   20 1
    33   18   19 ar
    34   18   39 1
    35   19   40 1
    36   20   21 2
    37   20   22 2
    38   20   23 1
    39   23   41 1
    40   23   42 1
    41   23   43 1
    42   24   25 1
    43   24   44 1
    44   24   45 1
    45   25   26 1
    46   26   27 2
    47   26   28 1
    48   28   46 1
    49   28   47 1
    50   28   48 1
@<TRIPOS>MOLECULE
ZINC01894681
   54    58     0     0     0
SMALL
USER_CHARGES

@<TRIPOS>ATOM
      1 C1          4.4090   -1.3021    1.6691 C.3       1 <0>        -0.1024
      2 C2          3.6599   -2.5283    2.1232 C.2       1 <0>         0.1292
      3 C3          2.7807   -3.2129    1.3784 C.2       1 <0>        -0.1653
      4 C4          2.2957   -4.3290    2.1977 C.ar      1 <0>        -0.0414
      5 C5          1.3913   -5.3688    1.9772 C.ar      1 <0>        -0.1121
      6 C6          1.1461   -6.2849    2.9818 C.ar      1 <0>         0.1156
      7 C7          1.7964   -6.1722    4.2073 C.ar      1 <0>        -0.1743
      8 C8          2.6906   -5.1489    4.4349 C.ar      1 <0>        -0.0817
      9 C9          2.9508   -4.2187    3.4361 C.ar      1 <0>         0.0751
     10 N1          3.7744   -3.1086    3.3631 N.am      1 <0>        -0.5046
     11 C10         4.5720   -2.6673    4.3559 C.2       1 <0>         0.6011
     12 O1          5.6832   -3.1384    4.4975 O.2       1 <0>        -0.4251
     13 C11         4.0956   -1.6113    5.2715 C.ar      1 <0>        -0.1643
     14 C12         2.7849   -1.1384    5.1750 C.ar      1 <0>        -0.0439
     15 C13         2.3442   -0.1566    6.0370 C.ar      1 <0>        -0.1204
     16 C14         3.2019    0.3690    6.9894 C.ar      1 <0>         0.0047
     17 C15         4.5048   -0.0916    7.0860 C.ar      1 <0>        -0.1215
     18 C16         4.9556   -1.0773    6.2340 C.ar      1 <0>        -0.0372
     19 Cl1         2.6415    1.6096    8.0667 Cl        1 <0>        -0.0504
     20 O2          0.2660   -7.3000    2.7728 O.3       1 <0>        -0.3151
     21 C17         0.0589   -8.2119    3.8534 C.3       1 <0>         0.0266
     22 C18         2.3717   -2.8988   -0.0376 C.3       1 <0>         0.0456
     23 C19         1.1788   -1.9781   -0.0235 C.2       1 <0>         0.1108
     24 N2          1.1534   -0.6676   -0.0166 N.2       1 <0>        -0.4986
     25 C20         0.0111    0.0014   -0.0041 C.2       1 <0>         0.0956
     26 C21        -1.1530   -0.7188    0.0072 C.2       1 <0>        -0.2069
     27 S1         -0.5088   -2.3854   -0.0121 S.3       1 <0>         0.0669
     28 C22        -0.0067    1.4847    0.0035 C.ar      1 <0>        -0.0049
     29 C23        -1.2207    2.1694    0.0113 C.ar      1 <0>        -0.1007
     30 C24        -1.2317    3.5493    0.0228 C.ar      1 <0>        -0.0897
     31 C25        -0.0401    4.2534    0.0163 C.ar      1 <0>        -0.0868
     32 C26         1.1682    3.5783    0.0037 C.ar      1 <0>        -0.0923
     33 C27         1.1903    2.1985   -0.0029 C.ar      1 <0>        -0.0813
     34 Br1        -0.0629    6.1442    0.0241 Br        1 <0>        -0.0486
     35 H1          3.8288   -0.4116    1.9109 H         1 <0>         0.0885
     36 H2          5.3728   -1.2565    2.1761 H         1 <0>         0.0680
     37 H3          4.5672   -1.3511    0.5917 H         1 <0>         0.0965
     38 H4          0.8863   -5.4569    1.0266 H         1 <0>         0.1347
     39 H5          1.5980   -6.8929    4.9868 H         1 <0>         0.1362
     40 H6          3.1897   -5.0701    5.3894 H         1 <0>         0.1229
     41 H7          2.1167   -1.5442    4.4299 H         1 <0>         0.1392
     42 H8          1.3294    0.2063    5.9668 H         1 <0>         0.1441
     43 H9          5.1687    0.3221    7.8306 H         1 <0>         0.1472
     44 H10         5.9713   -1.4361    6.3107 H         1 <0>         0.1484
     45 H11         1.0035   -8.6914    4.1102 H         1 <0>         0.0557
     46 H12        -0.3203   -7.6692    4.7192 H         1 <0>         0.0554
     47 H13        -0.6644   -8.9707    3.5549 H         1 <0>         0.1014
     48 H14         2.1115   -3.8227   -0.5541 H         1 <0>         0.1056
     49 H15         3.1990   -2.4136   -0.5556 H         1 <0>         0.1106
     50 H16        -2.1767   -0.3751    0.0221 H         1 <0>         0.1975
     51 H17        -2.1510    1.6209    0.0122 H         1 <0>         0.1334
     52 H18        -2.1719    4.0807    0.0322 H         1 <0>         0.1365
     53 H19         2.0952    4.1323   -0.0013 H         1 <0>         0.1353
     54 H20         2.1336    1.6727   -0.0135 H         1 <0>         0.1416
@<TRIPOS>BOND
     1    1    2 1
     2    1   35 1
     3    1   36 1
     4    1   37 1
     5    2   10 1
     6    2    3 2
     7    3    4 1
     8    3   22 1
     9    4    9 ar
    10    4    5 ar
    11    5    6 ar
    12    5   38 1
    13    6    7 ar
    14    6   20 1
    15    7    8 ar
    16    7   39 1
    17    8    9 ar
    18    8   40 1
    19    9   10 1
    20   10   11 am
    21   11   12 2
    22   11   13 1
    23   13   18 ar
    24   13   14 ar
    25   14   15 ar
    26   14   41 1
    27   15   16 ar
    28   15   42 1
    29   16   17 ar
    30   16   19 1
    31   17   18 ar
    32   17   43 1
    33   18   44 1
    34   20   21 1
    35   21   45 1
    36   21   46 1
    37   21   47 1
    38   22   23 1
    39   22   48 1
    40   22   49 1
    41   23   27 1
    42   23   24 2
    43   24   25 1
    44   25   26 2
    45   25   28 1
    46   26   27 1
    47   26   50 1
    48   28   33 ar
    49   28   29 ar
    50   29   30 ar
    51   29   51 1
    52   30   31 ar
    53   30   52 1
    54   31   32 ar
    55   31   34 1
    56   32   33 ar
    57   32   53 1
    58   33   54 1
