@<TRIPOS>MOLECULE
ZINC01533381
   54    56     0     0     0
SMALL
USER_CHARGES

@<TRIPOS>ATOM
      1 C1          2.0110   -4.2173    1.3184 C.ar      1 <0>        -0.1176
      2 C2          1.9983   -2.8379    1.3296 C.ar      1 <0>        -0.0616
      3 C3          0.9936   -2.1468    0.6506 C.ar      1 <0>        -0.1025
      4 C4          0.0046   -2.8574   -0.0314 C.ar      1 <0>        -0.0815
      5 C5          0.0316   -4.2367   -0.0386 C.ar      1 <0>        -0.1208
      6 C6          1.0304   -4.9157    0.6365 C.ar      1 <0>        -0.0788
      7 C7          1.0505   -6.4225    0.6286 C.3       1 <0>        -0.0965
      8 H1          1.8326   -6.7482    1.1598 H         1 <0>         0.0915
      9 C8          1.1685   -6.9235   -0.8122 C.3       1 <0>        -0.0666
     10 C9          1.3122   -8.4236   -0.8123 C.ar      1 <0>        -0.1226
     11 C10         0.1772   -9.2222   -0.8706 C.ar      1 <0>        -0.0572
     12 C11         0.2758  -10.5851   -0.8727 C.ar      1 <0>        -0.1236
     13 C12         1.5358  -11.1875   -0.8154 C.ar      1 <0>         0.2004
     14 C13         2.6885  -10.3716   -0.7560 C.ar      1 <0>        -0.2259
     15 C14         2.5588   -8.9835   -0.7606 C.ar      1 <0>        -0.0201
     16 C15         4.0009  -11.0291   -0.6964 C.2       1 <0>         0.5680
     17 O1          5.0298  -10.3806   -0.6439 O.2       1 <0>        -0.5077
     18 N1          4.0239  -12.3821   -0.7025 N.am      1 <0>        -0.6715
     19 H2          4.8996  -12.8634   -0.6629 H         1 <0>         0.4173
     20 C16         2.8621  -13.0951   -0.7622 C.2       1 <0>         0.6347
     21 N2          1.6805  -12.5336   -0.8156 N.2       1 <0>        -0.5859
     22 N3          2.9356  -14.4653   -0.7660 N.pl3     1 <0>        -0.8290
     23 C17        -0.2242   -6.9451    1.2394 C.2       1 <0>         0.3543
     24 O2         -0.1801   -7.6440    2.2232 O.2       1 <0>        -0.4546
     25 C18         0.9736   -0.6685    0.6587 C.2       1 <0>         0.5503
     26 O3          1.8333   -0.0523    1.2576 O.2       1 <0>        -0.5485
     27 N4          0.0021   -0.0041    0.0020 N.am      1 <0>        -0.6815
     28 C19        -0.0178    1.4608    0.0101 C.3       1 <0>         0.0992
     29 H3          1.0048    1.8381    0.0023 H         1 <0>         0.0868
     30 C20        -0.7578    1.9676   -1.2295 C.3       1 <0>        -0.0864
     31 C21         0.0259    1.5803   -2.4852 C.3       1 <0>        -0.1531
     32 C22        -0.7030    2.0796   -3.7061 C.2       1 <0>         0.4613
     33 O4         -1.7426    2.6832   -3.5843 O.co2     1 <0>        -0.6385
     34 C23        -0.7232    1.9468    1.2500 C.2       1 <0>         0.4649
     35 O5         -1.1640    1.1512    2.0453 O.co2     1 <0>        -0.6396
     36 H4          2.7878   -4.7533    1.8435 H         1 <0>         0.1251
     37 H5          2.7639   -2.2939    1.8629 H         1 <0>         0.1368
     38 H6         -0.7780   -2.3286   -0.5550 H         1 <0>         0.1327
     39 H7         -0.7309   -4.7878   -0.5690 H         1 <0>         0.1290
     40 H8          0.2737   -6.6442   -1.3684 H         1 <0>         0.0893
     41 H9          2.0435   -6.4747   -1.2824 H         1 <0>         0.0927
     42 H10        -0.7975   -8.7592   -0.9146 H         1 <0>         0.1320
     43 H11        -0.6152  -11.1937   -0.9188 H         1 <0>         0.1373
     44 H12         3.4362   -8.3551   -0.7196 H         1 <0>         0.1373
     45 H13         2.1236  -14.9944   -0.8075 H         1 <0>         0.4270
     46 H14         3.7994  -14.9048   -0.7271 H         1 <0>         0.4109
     47 H15        -1.1771   -6.6946    0.7972 H         1 <0>         0.0982
     48 H16        -0.6840   -0.4958   -0.4759 H         1 <0>         0.3915
     49 H17        -1.7507    1.5197   -1.2683 H         1 <0>         0.0576
     50 H18        -0.8503    3.0525   -1.1791 H         1 <0>         0.0854
     51 H19         1.0188    2.0283   -2.4463 H         1 <0>         0.0608
     52 H20         0.1184    0.4954   -2.5355 H         1 <0>         0.0574
     53 O6         -0.1973    1.8537   -4.9287 O.co2     1 <0>        -0.7902
     54 O7         -0.8617    3.2635    1.4708 O.co2     1 <0>        -0.7678
@<TRIPOS>BOND
     1    1    6 ar
     2    1    2 ar
     3    1   36 1
     4    2    3 ar
     5    2   37 1
     6    3    4 ar
     7    3   25 1
     8    4    5 ar
     9    4   38 1
    10    5    6 ar
    11    5   39 1
    12    6    7 1
    13    7    8 1
    14    7    9 1
    15    7   23 1
    16    9   10 1
    17    9   40 1
    18    9   41 1
    19   10   15 ar
    20   10   11 ar
    21   11   12 ar
    22   11   42 1
    23   12   13 ar
    24   12   43 1
    25   13   21 1
    26   13   14 ar
    27   14   15 ar
    28   14   16 1
    29   15   44 1
    30   16   17 2
    31   16   18 am
    32   18   19 1
    33   18   20 1
    34   20   21 2
    35   20   22 1
    36   22   45 1
    37   22   46 1
    38   23   24 2
    39   23   47 1
    40   25   26 2
    41   25   27 am
    42   27   28 1
    43   27   48 1
    44   28   29 1
    45   28   30 1
    46   28   34 1
    47   30   31 1
    48   30   49 1
    49   30   50 1
    50   31   32 1
    51   31   51 1
    52   31   52 1
    53   32   33 2
    54   32   53 1
    55   34   35 2
    56   34   54 1
@<TRIPOS>MOLECULE
ZINC01536966
   53    54     0     0     0
SMALL
USER_CHARGES

@<TRIPOS>ATOM
      1 C1         -9.7176    6.7000    4.7104 C.ar      1 <0>        -0.0166
      2 C2         -8.5382    6.0414    4.4479 C.ar      1 <0>        -0.2083
      3 C3         -8.1909    5.7286    3.1365 C.ar      1 <0>         0.2250
      4 C4         -9.0320    6.0862    2.0863 C.ar      1 <0>        -0.2041
      5 C5        -10.2153    6.7402    2.3428 C.ar      1 <0>        -0.0359
      6 C6        -10.5671    7.0553    3.6586 C.ar      1 <0>        -0.1688
      7 C7        -11.8320    7.7618    3.9365 C.2       1 <0>         0.5587
      8 O1        -12.1365    8.0356    5.0814 O.2       1 <0>        -0.5590
      9 N1        -12.6499    8.1038    2.9214 N.am      1 <0>        -0.6868
     10 C8        -13.9060    8.8054    3.1974 C.3       1 <0>         0.1004
     11 H1        -13.7663    9.4829    4.0397 H         1 <0>         0.0853
     12 C9        -14.3248    9.6062    1.9628 C.3       1 <0>        -0.0859
     13 C10       -13.2964   10.7072    1.6961 C.3       1 <0>        -0.1530
     14 C11       -13.7088   11.4960    0.4801 C.2       1 <0>         0.4615
     15 O2        -14.7215   11.2072   -0.1125 O.co2     1 <0>        -0.6394
     16 C12       -14.9789    7.8016    3.5327 C.2       1 <0>         0.4650
     17 O3        -14.7208    6.6212    3.5403 O.co2     1 <0>        -0.6396
     18 N2         -6.9987    5.0627    2.8745 N.pl3     1 <0>        -0.7464
     19 C13        -6.6317    4.7328    1.4951 C.3       1 <0>         0.1223
     20 C14        -5.2844    4.0078    1.4853 C.3       1 <0>        -0.1220
     21 C15        -4.9012    3.6633    0.0447 C.3       1 <0>        -0.0237
     22 C16        -3.5741    2.9492    0.0350 C.2       1 <0>        -0.4004
     23 C17        -3.5172    1.5628    0.0272 C.2       1 <0>         0.4901
     24 N3         -2.3289    0.9474    0.0182 N.2       1 <0>        -0.6261
     25 C18        -1.2062    1.6343    0.0167 C.2       1 <0>         0.6648
     26 N4         -1.2084    2.9952    0.0296 N.am      1 <0>        -0.6650
     27 H2         -0.3425    3.4955    0.0364 H         1 <0>         0.4145
     28 C19        -2.3764    3.6710    0.0333 C.2       1 <0>         0.5565
     29 O4         -2.3873    4.8919    0.0399 O.2       1 <0>        -0.5447
     30 N5         -0.0111    0.9658    0.0074 N.pl3     1 <0>        -0.8223
     31 N6         -4.6815    0.8214    0.0283 N.pl3     1 <0>        -0.8277
     32 H3         -9.9868    6.9417    5.7280 H         1 <0>         0.1322
     33 H4         -7.8814    5.7666    5.2600 H         1 <0>         0.1187
     34 H5         -8.7577    5.8460    1.0697 H         1 <0>         0.1224
     35 H6        -10.8695    7.0135    1.5281 H         1 <0>         0.1271
     36 H7        -12.4070    7.8853    2.0081 H         1 <0>         0.3901
     37 H8        -14.3783    8.9423    1.1000 H         1 <0>         0.0567
     38 H9        -15.3023   10.0563    2.1360 H         1 <0>         0.0839
     39 H10       -13.2429   11.3711    2.5589 H         1 <0>         0.0605
     40 H11       -12.3189   10.2570    1.5228 H         1 <0>         0.0581
     41 H12        -6.4100    4.8166    3.6051 H         1 <0>         0.3957
     42 H13        -6.5553    5.6495    0.9103 H         1 <0>         0.0617
     43 H14        -7.3949    4.0872    1.0606 H         1 <0>         0.0583
     44 H15        -5.3608    3.0911    2.0701 H         1 <0>         0.0601
     45 H16        -4.5212    4.6534    1.9198 H         1 <0>         0.0689
     46 H17        -4.8248    4.5799   -0.5401 H         1 <0>         0.0758
     47 H18        -5.6644    3.0176   -0.3898 H         1 <0>         0.0593
     48 H19         0.0021   -0.0041    0.0020 H         1 <0>         0.4273
     49 H20         0.8223    1.4622    0.0021 H         1 <0>         0.4150
     50 H21        -4.6394   -0.1477    0.0225 H         1 <0>         0.4047
     51 H22        -5.5418    1.2695    0.0348 H         1 <0>         0.4169
     52 O5        -12.9513   12.5194    0.0552 O.co2     1 <0>        -0.7910
     53 O6        -16.2213    8.2188    3.8228 O.co2     1 <0>        -0.7709
@<TRIPOS>BOND
     1    1    6 ar
     2    1    2 ar
     3    1   32 1
     4    2    3 ar
     5    2   33 1
     6    3    4 ar
     7    3   18 1
     8    4    5 ar
     9    4   34 1
    10    5    6 ar
    11    5   35 1
    12    6    7 1
    13    7    8 2
    14    7    9 am
    15    9   10 1
    16    9   36 1
    17   10   11 1
    18   10   12 1
    19   10   16 1
    20   12   13 1
    21   12   37 1
    22   12   38 1
    23   13   14 1
    24   13   39 1
    25   13   40 1
    26   14   15 2
    27   14   52 1
    28   16   17 2
    29   16   53 1
    30   18   19 1
    31   18   41 1
    32   19   20 1
    33   19   42 1
    34   19   43 1
    35   20   21 1
    36   20   44 1
    37   20   45 1
    38   21   22 1
    39   21   46 1
    40   21   47 1
    41   22   28 1
    42   22   23 2
    43   23   24 1
    44   23   31 1
    45   24   25 2
    46   25   26 1
    47   25   30 1
    48   26   27 1
    49   26   28 am
    50   28   29 2
    51   30   48 1
    52   30   49 1
    53   31   50 1
    54   31   51 1
@<TRIPOS>MOLECULE
ZINC01539234
   53    55     0     0     0
SMALL
USER_CHARGES

@<TRIPOS>ATOM
      1 C1          1.0441   -6.5860    1.1721 C.2       1 <0>        -0.0931
      2 C2          0.7645   -5.2490    0.9403 C.2       1 <0>        -0.1335
      3 C3         -0.3435   -4.7371    1.5535 C.2       1 <0>        -0.1873
      4 S1         -1.0080   -6.0544    2.4421 S.3       1 <0>         0.1493
      5 C4          0.1930   -7.2975    1.9974 C.2       1 <0>        -0.1925
      6 C5          0.2597   -8.7050    2.4014 C.2       1 <0>         0.5968
      7 O1          1.1620   -9.4129    1.9942 O.2       1 <0>        -0.5383
      8 N1         -0.6783   -9.2151    3.2238 N.am      1 <0>        -0.6796
      9 C6         -0.6117  -10.6218    3.6276 C.3       1 <0>         0.0998
     10 H1          0.4312  -10.9199    3.7351 H         1 <0>         0.0884
     11 C7         -1.3344  -10.8036    4.9638 C.3       1 <0>        -0.0866
     12 C8         -0.5892  -10.0333    6.0557 C.3       1 <0>        -0.1540
     13 C9         -1.3011  -10.2124    7.3718 C.2       1 <0>         0.4620
     14 O2         -2.3019  -10.8869    7.4305 O.co2     1 <0>        -0.6384
     15 C10        -1.2731  -11.4776    2.5782 C.2       1 <0>         0.4652
     16 O3         -1.7511  -10.9650    1.5940 O.co2     1 <0>        -0.6380
     17 C11        -0.8578   -3.3334    1.4637 C.3       1 <0>        -0.0300
     18 C12        -0.1664   -2.6392    0.2815 C.3       1 <0>        -0.0634
     19 H2         -0.5549   -3.0391   -0.6552 H         1 <0>         0.0867
     20 C13         1.3398   -2.9005    0.3694 C.3       1 <0>        -0.1065
     21 C14         1.6343   -4.3663    0.0490 C.3       1 <0>        -0.0530
     22 C15        -0.4304   -1.1335    0.3450 C.3       1 <0>        -0.0985
     23 S2         -2.2021   -0.8199    0.1142 S.3       1 <0>        -0.0868
     24 C16        -2.3233    0.9376    0.0817 C.2       1 <0>        -0.4331
     25 C17        -2.9983    1.6206    1.0864 C.2       1 <0>         0.5319
     26 N2         -3.0833    2.9558    1.0390 N.2       1 <0>        -0.6245
     27 C18        -2.5295    3.6398    0.0616 C.2       1 <0>         0.6770
     28 N3         -1.8570    3.0203   -0.9466 N.am      1 <0>        -0.6642
     29 H3         -1.4479    3.5628   -1.6803 H         1 <0>         0.4156
     30 C19        -1.7409    1.6759   -0.9587 C.2       1 <0>         0.5658
     31 O4         -1.1397    1.1119   -1.8603 O.2       1 <0>        -0.5322
     32 N4         -2.6362    5.0077    0.0556 N.pl3     1 <0>        -0.8188
     33 N5         -3.5848    0.9230    2.1285 N.pl3     1 <0>        -0.8125
     34 H4          1.9033   -7.0594    0.7205 H         1 <0>         0.1403
     35 H5         -1.3975   -8.6509    3.5483 H         1 <0>         0.3915
     36 H6         -2.3525  -10.4230    4.8810 H         1 <0>         0.0583
     37 H7         -1.3623  -11.8625    5.2207 H         1 <0>         0.0867
     38 H8          0.4288  -10.4140    6.1385 H         1 <0>         0.0612
     39 H9         -0.5614   -8.9744    5.7988 H         1 <0>         0.0574
     40 H10        -0.6310   -2.7996    2.3866 H         1 <0>         0.0831
     41 H11        -1.9357   -3.3464    1.3025 H         1 <0>         0.0857
     42 H12         1.8602   -2.2623   -0.3446 H         1 <0>         0.0667
     43 H13         1.6883   -2.6733    1.3769 H         1 <0>         0.0664
     44 H14         2.6863   -4.5780    0.2403 H         1 <0>         0.0746
     45 H15         1.4058   -4.5663   -0.9978 H         1 <0>         0.0743
     46 H16         0.1329   -0.6323   -0.4421 H         1 <0>         0.0865
     47 H17        -0.1171   -0.7504    1.3162 H         1 <0>         0.0746
     48 H18        -2.2347    5.5223   -0.6620 H         1 <0>         0.4161
     49 H19        -3.1131    5.4601    0.7688 H         1 <0>         0.4290
     50 H20        -3.5984   -0.0468    2.1160 H         1 <0>         0.4251
     51 H21        -3.9787    1.4040    2.8731 H         1 <0>         0.4064
     52 O5         -0.8234   -9.6226    8.4789 O.co2     1 <0>        -0.7904
     53 O6         -1.3312  -12.8092    2.7369 O.co2     1 <0>        -0.7672
@<TRIPOS>BOND
     1    1    5 2
     2    1    2 1
     3    1   34 1
     4    2   21 1
     5    2    3 2
     6    3    4 1
     7    3   17 1
     8    4    5 1
     9    5    6 1
    10    6    7 2
    11    6    8 am
    12    8    9 1
    13    8   35 1
    14    9   10 1
    15    9   11 1
    16    9   15 1
    17   11   12 1
    18   11   36 1
    19   11   37 1
    20   12   13 1
    21   12   38 1
    22   12   39 1
    23   13   14 2
    24   13   52 1
    25   15   16 2
    26   15   53 1
    27   17   18 1
    28   17   40 1
    29   17   41 1
    30   18   19 1
    31   18   20 1
    32   18   22 1
    33   20   21 1
    34   20   42 1
    35   20   43 1
    36   21   44 1
    37   21   45 1
    38   22   23 1
    39   22   46 1
    40   22   47 1
    41   23   24 1
    42   24   30 1
    43   24   25 2
    44   25   26 1
    45   25   33 1
    46   26   27 2
    47   27   28 1
    48   27   32 1
    49   28   29 1
    50   28   30 am
    51   30   31 2
    52   32   48 1
    53   32   49 1
    54   33   50 1
    55   33   51 1
@<TRIPOS>MOLECULE
ZINC01539498
   53    55     0     0     0
SMALL
USER_CHARGES

@<TRIPOS>ATOM
      1 C1          1.6763   -4.6771    4.0026 C.ar      1 <0>        -0.1282
      2 C2          1.7606   -3.3010    3.9545 C.ar      1 <0>        -0.0642
      3 C3          0.7865   -2.5686    3.2740 C.ar      1 <0>        -0.1105
      4 C4         -0.2700   -3.2345    2.6508 C.ar      1 <0>        -0.0823
      5 C5         -0.3399   -4.6113    2.7023 C.ar      1 <0>        -0.1210
      6 C6          0.6289   -5.3313    3.3786 C.ar      1 <0>        -0.0762
      7 C7          0.5433   -6.8348    3.4352 C.3       1 <0>        -0.0784
      8 C8         -0.2637   -7.2537    4.6658 C.3       1 <0>        -0.0926
      9 C9         -0.3506   -8.7801    4.7233 C.3       1 <0>        -0.1055
     10 H1          0.6504   -9.2095    4.6816 H         1 <0>         0.0979
     11 C10        -1.0511   -9.2144    6.0204 C.3       1 <0>         0.1260
     12 N1         -1.0350  -10.6719    6.0990 N.pl3     1 <0>        -0.7092
     13 C11        -1.5264  -11.4879    5.1018 C.2       1 <0>         0.4805
     14 C12        -1.7069  -11.0565    3.7986 C.2       1 <0>        -0.3928
     15 C13        -2.1920  -11.9554    2.8382 C.2       1 <0>         0.5748
     16 O1         -2.3540  -11.6007    1.6804 O.2       1 <0>        -0.5276
     17 N2         -2.4764  -13.2195    3.2156 N.am      1 <0>        -0.6594
     18 H2         -2.8182  -13.8780    2.5451 H         1 <0>         0.4189
     19 C14        -2.2968  -13.5956    4.5113 C.2       1 <0>         0.6608
     20 N3         -1.8405  -12.7588    5.4141 N.2       1 <0>        -0.6165
     21 N4         -2.6000  -14.8811    4.8830 N.pl3     1 <0>        -0.8228
     22 S1         -1.3466   -9.3949    3.3310 S.3       1 <0>        -0.0433
     23 C15         0.8703   -1.0935    3.2189 C.2       1 <0>         0.5518
     24 O2          1.7888   -0.5160    3.7669 O.2       1 <0>        -0.5516
     25 N5         -0.0718   -0.3892    2.5610 N.am      1 <0>        -0.6825
     26 C16         0.0111    1.0724    2.5063 C.3       1 <0>         0.0994
     27 H3          1.0569    1.3753    2.4543 H         1 <0>         0.0863
     28 C17        -0.7288    1.5792    1.2668 C.3       1 <0>        -0.0863
     29 C18        -0.0127    1.0858    0.0080 C.3       1 <0>        -0.1533
     30 C19        -0.7416    1.5850   -1.2129 C.2       1 <0>         0.4615
     31 O3         -1.7322    2.2656   -1.0889 O.co2     1 <0>        -0.6388
     32 C20        -0.6205    1.6580    3.7429 C.2       1 <0>         0.4653
     33 O4         -1.0916    0.9292    4.5836 O.co2     1 <0>        -0.6397
     34 H4          2.4293   -5.2450    4.5288 H         1 <0>         0.1214
     35 H5          2.5786   -2.7915    4.4421 H         1 <0>         0.1331
     36 H6         -1.0293   -2.6733    2.1264 H         1 <0>         0.1291
     37 H7         -1.1548   -5.1280    2.2173 H         1 <0>         0.1258
     38 H8          0.0521   -7.2050    2.5353 H         1 <0>         0.0804
     39 H9          1.5475   -7.2538    3.4994 H         1 <0>         0.0730
     40 H10         0.2276   -6.8836    5.5656 H         1 <0>         0.0839
     41 H11        -1.2679   -6.8347    4.6016 H         1 <0>         0.0821
     42 H12        -0.5236   -8.7965    6.8779 H         1 <0>         0.1037
     43 H13        -2.0819   -8.8602    6.0151 H         1 <0>         0.0835
     44 H14        -0.6606  -11.0868    6.8918 H         1 <0>         0.4078
     45 H15        -2.9379  -15.5092    4.2256 H         1 <0>         0.4147
     46 H16        -2.4765  -15.1617    5.8033 H         1 <0>         0.4272
     47 H17        -0.8048   -0.8501    2.1237 H         1 <0>         0.3916
     48 H18        -0.7436    2.6691    1.2728 H         1 <0>         0.0851
     49 H19        -1.7514    1.2020    1.2746 H         1 <0>         0.0575
     50 H20         0.0021   -0.0041    0.0020 H         1 <0>         0.0576
     51 H21         1.0099    1.4631    0.0003 H         1 <0>         0.0607
     52 O5         -0.2903    1.2736   -2.4381 O.co2     1 <0>        -0.7903
     53 O6         -0.6597    2.9892    3.9104 O.co2     1 <0>        -0.7687
@<TRIPOS>BOND
     1    1    6 ar
     2    1    2 ar
     3    1   34 1
     4    2    3 ar
     5    2   35 1
     6    3    4 ar
     7    3   23 1
     8    4    5 ar
     9    4   36 1
    10    5    6 ar
    11    5   37 1
    12    6    7 1
    13    7    8 1
    14    7   38 1
    15    7   39 1
    16    8    9 1
    17    8   40 1
    18    8   41 1
    19    9   10 1
    20    9   22 1
    21    9   11 1
    22   11   12 1
    23   11   42 1
    24   11   43 1
    25   12   13 1
    26   12   44 1
    27   13   20 1
    28   13   14 2
    29   14   15 1
    30   14   22 1
    31   15   16 2
    32   15   17 am
    33   17   18 1
    34   17   19 1
    35   19   20 2
    36   19   21 1
    37   21   45 1
    38   21   46 1
    39   23   24 2
    40   23   25 am
    41   25   26 1
    42   25   47 1
    43   26   27 1
    44   26   28 1
    45   26   32 1
    46   28   29 1
    47   28   48 1
    48   28   49 1
    49   29   30 1
    50   29   50 1
    51   29   51 1
    52   30   31 2
    53   30   52 1
    54   32   33 2
    55   32   53 1
@<TRIPOS>MOLECULE
ZINC01544483
   50    52     0     0     0
SMALL
USER_CHARGES

@<TRIPOS>ATOM
      1 C1         -0.1679    7.7712    1.9960 C.2       1 <0>        -0.1637
      2 C2         -0.3695    6.4421    2.2736 C.2       1 <0>        -0.0980
      3 C3         -0.6150    5.6028    1.1982 C.2       1 <0>        -0.1903
      4 S1         -0.5423    6.7377   -0.1764 S.3       1 <0>         0.1412
      5 C4         -0.2173    8.1944    0.7056 C.2       1 <0>        -0.1814
      6 C5         -0.0286    9.5904    0.1704 C.3       1 <0>        -0.0321
      7 C6          1.4509    9.8202   -0.1445 C.3       1 <0>        -0.0942
      8 C7          1.6425   11.2376   -0.6879 C.3       1 <0>        -0.1054
      9 H1          0.9894   11.3962   -1.5460 H         1 <0>         0.1010
     10 C8          3.1080   11.4438   -1.1023 C.3       1 <0>         0.1262
     11 N1          3.2452   12.7661   -1.7049 N.pl3     1 <0>        -0.7079
     12 C9          2.8527   13.9287   -1.0756 C.2       1 <0>         0.4830
     13 C10         1.9513   13.9468   -0.0247 C.2       1 <0>        -0.3943
     14 C11         1.5818   15.1747    0.5424 C.2       1 <0>         0.5758
     15 O1          0.7859   15.2175    1.4682 O.2       1 <0>        -0.5302
     16 N2          2.1208   16.3084    0.0469 N.am      1 <0>        -0.6597
     17 H2          1.8663   17.1950    0.4331 H         1 <0>         0.4187
     18 C12         3.0118   16.2417   -0.9799 C.2       1 <0>         0.6613
     19 N3          3.3605   15.0949   -1.5154 N.2       1 <0>        -0.6159
     20 N4          3.5587   17.4017   -1.4677 N.pl3     1 <0>        -0.8225
     21 S2          1.2626   12.4534    0.6106 S.3       1 <0>        -0.0471
     22 C13        -0.8633    4.1582    1.1915 C.2       1 <0>         0.5950
     23 O2         -0.8708    3.5372    2.2382 O.2       1 <0>        -0.5372
     24 N5         -1.0832    3.5176    0.0263 N.am      1 <0>        -0.6793
     25 C14        -1.3313    2.0738    0.0196 C.3       1 <0>         0.0994
     26 H3         -1.8950    1.7979    0.9108 H         1 <0>         0.0887
     27 C15        -2.1344    1.7001   -1.2279 C.3       1 <0>        -0.0864
     28 C16        -3.5185    2.3483   -1.1565 C.3       1 <0>        -0.1542
     29 C17        -4.3095    1.9802   -2.3852 C.2       1 <0>         0.4619
     30 O3         -3.8169    1.2721   -3.2312 O.co2     1 <0>        -0.6386
     31 C18        -0.0161    1.3381    0.0094 C.2       1 <0>         0.4655
     32 O4          1.0219    1.9564    0.0028 O.co2     1 <0>        -0.6388
     33 H4          0.0273    8.4725    2.7938 H         1 <0>         0.1322
     34 H5         -0.3386    6.0669    3.2858 H         1 <0>         0.1437
     35 H6         -0.6170    9.7136   -0.7388 H         1 <0>         0.0816
     36 H7         -0.3577   10.3133    0.9169 H         1 <0>         0.0910
     37 H8          2.0393    9.6970    0.7648 H         1 <0>         0.0834
     38 H9          1.7801    9.0973   -0.8910 H         1 <0>         0.0879
     39 H10         3.7492   11.3759   -0.2235 H         1 <0>         0.0834
     40 H11         3.3940   10.6801   -1.8256 H         1 <0>         0.1063
     41 H12         3.6311   12.8297   -2.5925 H         1 <0>         0.4090
     42 H13         4.1946   17.3679   -2.1994 H         1 <0>         0.4276
     43 H14         3.3094   18.2556   -1.0808 H         1 <0>         0.4146
     44 H15        -1.0772    4.0125   -0.8079 H         1 <0>         0.3915
     45 H16        -1.6122    2.0554   -2.1162 H         1 <0>         0.0582
     46 H17        -2.2428    0.6167   -1.2791 H         1 <0>         0.0867
     47 H18        -4.0408    1.9929   -0.2682 H         1 <0>         0.0615
     48 H19        -3.4101    3.4317   -1.1052 H         1 <0>         0.0575
     49 O5         -5.5615    2.4391   -2.5398 O.co2     1 <0>        -0.7900
     50 O6          0.0021   -0.0041    0.0020 O.co2     1 <0>        -0.7667
@<TRIPOS>BOND
     1    1    5 2
     2    1    2 1
     3    1   33 1
     4    2    3 2
     5    2   34 1
     6    3    4 1
     7    3   22 1
     8    4    5 1
     9    5    6 1
    10    6    7 1
    11    6   35 1
    12    6   36 1
    13    7    8 1
    14    7   37 1
    15    7   38 1
    16    8    9 1
    17    8   21 1
    18    8   10 1
    19   10   11 1
    20   10   39 1
    21   10   40 1
    22   11   12 1
    23   11   41 1
    24   12   19 1
    25   12   13 2
    26   13   14 1
    27   13   21 1
    28   14   15 2
    29   14   16 am
    30   16   17 1
    31   16   18 1
    32   18   19 2
    33   18   20 1
    34   20   42 1
    35   20   43 1
    36   22   23 2
    37   22   24 am
    38   24   25 1
    39   24   44 1
    40   25   26 1
    41   25   27 1
    42   25   31 1
    43   27   28 1
    44   27   45 1
    45   27   46 1
    46   28   29 1
    47   28   47 1
    48   28   48 1
    49   29   30 2
    50   29   49 1
    51   31   32 2
    52   31   50 1
@<TRIPOS>MOLECULE
ZINC03806973
   52    54     0     0     0
SMALL
USER_CHARGES

@<TRIPOS>ATOM
      1 C1          2.2105    0.8090   -0.0147 C.2       1 <0>        -0.1673
      2 C2          1.3623   -0.2702   -0.0124 C.2       1 <0>        -0.0993
      3 C3          0.0021   -0.0041    0.0020 C.2       1 <0>        -0.1914
      4 S1         -0.0221    1.7798    0.0118 S.3       1 <0>         0.1452
      5 C4          1.6881    2.0634   -0.0030 C.2       1 <0>        -0.1819
      6 C5          2.4184    3.3816   -0.0033 C.3       1 <0>        -0.0324
      7 C6          2.6513    3.8352   -1.4458 C.3       1 <0>        -0.1100
      8 C7          3.3928    5.1736   -1.4461 C.3       1 <0>        -0.1030
      9 H1          2.8427    5.8963   -0.8436 H         1 <0>         0.0811
     10 C8          3.5173    5.6905   -2.8802 C.3       1 <0>        -0.0247
     11 C9          4.4416    6.8758   -2.9304 C.2       1 <0>        -0.3885
     12 C10         4.3763    7.7541   -4.0191 C.2       1 <0>         0.5547
     13 O1          3.5765    7.5649   -4.9220 O.2       1 <0>        -0.5479
     14 N1          5.2120    8.8124   -4.0539 N.am      1 <0>        -0.6647
     15 H2          5.1772    9.4508   -4.8229 H         1 <0>         0.4137
     16 C11         6.1024    9.0129   -3.0443 C.2       1 <0>         0.6596
     17 N2          6.1694    8.1920   -2.0183 N.2       1 <0>        -0.6240
     18 C12         5.3610    7.1270   -1.9279 C.2       1 <0>         0.4824
     19 N3          5.4557    6.2960   -0.8275 N.pl3     1 <0>        -0.7075
     20 C13         4.8007    4.9818   -0.8669 C.3       1 <0>         0.1254
     21 N4          6.9458   10.0904   -3.0977 N.pl3     1 <0>        -0.8239
     22 C14        -1.1232   -0.9434    0.0081 C.2       1 <0>         0.5949
     23 O2         -0.9150   -2.1425    0.0001 O.2       1 <0>        -0.5379
     24 N5         -2.3884   -0.4793    0.0227 N.am      1 <0>        -0.6792
     25 C15        -3.5131   -1.4181    0.0288 C.3       1 <0>         0.0995
     26 H3         -3.2469   -2.3001    0.6112 H         1 <0>         0.0886
     27 C16        -4.7364   -0.7444    0.6536 C.3       1 <0>        -0.0868
     28 C17        -4.4547   -0.4406    2.1264 C.3       1 <0>        -0.1539
     29 C18        -5.6597    0.2229    2.7419 C.2       1 <0>         0.4619
     30 O3         -6.6429    0.4315    2.0713 O.co2     1 <0>        -0.6382
     31 C19        -3.8330   -1.8279   -1.3857 C.2       1 <0>         0.4651
     32 O4         -3.1877   -1.3816   -2.3046 O.co2     1 <0>        -0.6381
     33 H4          3.2805    0.6629   -0.0261 H         1 <0>         0.1300
     34 H5          1.7384   -1.2826   -0.0218 H         1 <0>         0.1429
     35 H6          1.8211    4.1280    0.5204 H         1 <0>         0.0796
     36 H7          3.3780    3.2654    0.5005 H         1 <0>         0.0822
     37 H8          3.2486    3.0888   -1.9695 H         1 <0>         0.0722
     38 H9          1.6917    3.9514   -1.9496 H         1 <0>         0.0774
     39 H10         3.9120    4.8981   -3.5162 H         1 <0>         0.0620
     40 H11         2.5335    5.9879   -3.2431 H         1 <0>         0.0753
     41 H12         5.9475    6.5769   -0.0401 H         1 <0>         0.4071
     42 H13         4.7322    4.5735    0.1414 H         1 <0>         0.0914
     43 H14         5.3716    4.3044   -1.5019 H         1 <0>         0.0694
     44 H15         6.9049   10.7016   -3.8498 H         1 <0>         0.4139
     45 H16         7.5842   10.2425   -2.3834 H         1 <0>         0.4267
     46 H17        -2.5544    0.4764    0.0291 H         1 <0>         0.3917
     47 H18        -4.9489    0.1850    0.1252 H         1 <0>         0.0585
     48 H19        -5.5961   -1.4101    0.5779 H         1 <0>         0.0868
     49 H20        -4.2422   -1.3700    2.6549 H         1 <0>         0.0613
     50 H21        -3.5950    0.2251    2.2021 H         1 <0>         0.0573
     51 O5         -5.6407    0.5823    4.0351 O.co2     1 <0>        -0.7904
     52 O6         -4.8347   -2.6888   -1.6248 O.co2     1 <0>        -0.7668
@<TRIPOS>BOND
     1    1    5 2
     2    1    2 1
     3    1   33 1
     4    2    3 2
     5    2   34 1
     6    3    4 1
     7    3   22 1
     8    4    5 1
     9    5    6 1
    10    6    7 1
    11    6   35 1
    12    6   36 1
    13    7    8 1
    14    7   37 1
    15    7   38 1
    16    8    9 1
    17    8   20 1
    18    8   10 1
    19   10   11 1
    20   10   39 1
    21   10   40 1
    22   11   18 2
    23   11   12 1
    24   12   13 2
    25   12   14 am
    26   14   15 1
    27   14   16 1
    28   16   17 2
    29   16   21 1
    30   17   18 1
    31   18   19 1
    32   19   20 1
    33   19   41 1
    34   20   42 1
    35   20   43 1
    36   21   44 1
    37   21   45 1
    38   22   23 2
    39   22   24 am
    40   24   25 1
    41   24   46 1
    42   25   26 1
    43   25   27 1
    44   25   31 1
    45   27   28 1
    46   27   47 1
    47   27   48 1
    48   28   29 1
    49   28   49 1
    50   28   50 1
    51   29   30 2
    52   29   51 1
    53   31   32 2
    54   31   52 1
@<TRIPOS>MOLECULE
ZINC03806973
   52    54     0     0     0
SMALL
USER_CHARGES

@<TRIPOS>ATOM
      1 C1          2.2105    0.8090   -0.0147 C.2       1 <0>        -0.1673
      2 C2          1.3623   -0.2702   -0.0124 C.2       1 <0>        -0.0993
      3 C3          0.0021   -0.0041    0.0020 C.2       1 <0>        -0.1914
      4 S1         -0.0221    1.7798    0.0118 S.3       1 <0>         0.1452
      5 C4          1.6881    2.0634   -0.0030 C.2       1 <0>        -0.1819
      6 C5          2.4184    3.3816   -0.0033 C.3       1 <0>        -0.0324
      7 C6          2.6513    3.8352   -1.4458 C.3       1 <0>        -0.1100
      8 C7          3.3928    5.1736   -1.4461 C.3       1 <0>        -0.1030
      9 H1          2.8427    5.8963   -0.8436 H         1 <0>         0.0811
     10 C8          3.5173    5.6905   -2.8802 C.3       1 <0>        -0.0247
     11 C9          4.4416    6.8758   -2.9304 C.2       1 <0>        -0.3885
     12 C10         4.3763    7.7541   -4.0191 C.2       1 <0>         0.5547
     13 O1          3.5765    7.5649   -4.9220 O.2       1 <0>        -0.5479
     14 N1          5.2120    8.8124   -4.0539 N.am      1 <0>        -0.6647
     15 H2          5.1772    9.4508   -4.8229 H         1 <0>         0.4137
     16 C11         6.1024    9.0129   -3.0443 C.2       1 <0>         0.6596
     17 N2          6.1694    8.1920   -2.0183 N.2       1 <0>        -0.6240
     18 C12         5.3610    7.1270   -1.9279 C.2       1 <0>         0.4824
     19 N3          5.4557    6.2960   -0.8275 N.pl3     1 <0>        -0.7075
     20 C13         4.8007    4.9818   -0.8669 C.3       1 <0>         0.1254
     21 N4          6.9458   10.0904   -3.0977 N.pl3     1 <0>        -0.8239
     22 C14        -1.1232   -0.9434    0.0081 C.2       1 <0>         0.5949
     23 O2         -0.9150   -2.1425    0.0001 O.2       1 <0>        -0.5379
     24 N5         -2.3884   -0.4793    0.0227 N.am      1 <0>        -0.6792
     25 C15        -3.5131   -1.4181    0.0288 C.3       1 <0>         0.0995
     26 H3         -3.2469   -2.3001    0.6112 H         1 <0>         0.0886
     27 C16        -4.7364   -0.7444    0.6536 C.3       1 <0>        -0.0868
     28 C17        -4.4547   -0.4406    2.1264 C.3       1 <0>        -0.1539
     29 C18        -5.6597    0.2229    2.7419 C.2       1 <0>         0.4619
     30 O3         -6.6429    0.4315    2.0713 O.co2     1 <0>        -0.6382
     31 C19        -3.8330   -1.8279   -1.3857 C.2       1 <0>         0.4651
     32 O4         -3.1877   -1.3816   -2.3046 O.co2     1 <0>        -0.6381
     33 H4          3.2805    0.6629   -0.0261 H         1 <0>         0.1300
     34 H5          1.7384   -1.2826   -0.0218 H         1 <0>         0.1429
     35 H6          1.8211    4.1280    0.5204 H         1 <0>         0.0796
     36 H7          3.3780    3.2654    0.5005 H         1 <0>         0.0822
     37 H8          3.2486    3.0888   -1.9695 H         1 <0>         0.0722
     38 H9          1.6917    3.9514   -1.9496 H         1 <0>         0.0774
     39 H10         3.9120    4.8981   -3.5162 H         1 <0>         0.0620
     40 H11         2.5335    5.9879   -3.2431 H         1 <0>         0.0753
     41 H12         5.9475    6.5769   -0.0401 H         1 <0>         0.4071
     42 H13         4.7322    4.5735    0.1414 H         1 <0>         0.0914
     43 H14         5.3716    4.3044   -1.5019 H         1 <0>         0.0694
     44 H15         6.9049   10.7016   -3.8498 H         1 <0>         0.4139
     45 H16         7.5842   10.2425   -2.3834 H         1 <0>         0.4267
     46 H17        -2.5544    0.4764    0.0291 H         1 <0>         0.3917
     47 H18        -4.9489    0.1850    0.1252 H         1 <0>         0.0585
     48 H19        -5.5961   -1.4101    0.5779 H         1 <0>         0.0868
     49 H20        -4.2422   -1.3700    2.6549 H         1 <0>         0.0613
     50 H21        -3.5950    0.2251    2.2021 H         1 <0>         0.0573
     51 O5         -5.6407    0.5823    4.0351 O.co2     1 <0>        -0.7904
     52 O6         -4.8347   -2.6888   -1.6248 O.co2     1 <0>        -0.7668
@<TRIPOS>BOND
     1    1    5 2
     2    1    2 1
     3    1   33 1
     4    2    3 2
     5    2   34 1
     6    3    4 1
     7    3   22 1
     8    4    5 1
     9    5    6 1
    10    6    7 1
    11    6   35 1
    12    6   36 1
    13    7    8 1
    14    7   37 1
    15    7   38 1
    16    8    9 1
    17    8   20 1
    18    8   10 1
    19   10   11 1
    20   10   39 1
    21   10   40 1
    22   11   18 2
    23   11   12 1
    24   12   13 2
    25   12   14 am
    26   14   15 1
    27   14   16 1
    28   16   17 2
    29   16   21 1
    30   17   18 1
    31   18   19 1
    32   19   20 1
    33   19   41 1
    34   20   42 1
    35   20   43 1
    36   21   44 1
    37   21   45 1
    38   22   23 2
    39   22   24 am
    40   24   25 1
    41   24   46 1
    42   25   26 1
    43   25   27 1
    44   25   31 1
    45   27   28 1
    46   27   47 1
    47   27   48 1
    48   28   29 1
    49   28   49 1
    50   28   50 1
    51   29   30 2
    52   29   51 1
    53   31   32 2
    54   31   52 1
@<TRIPOS>MOLECULE
ZINC03806979
   61    63     0     0     0
SMALL
USER_CHARGES

@<TRIPOS>ATOM
      1 C1          0.8141    5.3899    3.2389 C.3       1 <0>        -0.1278
      2 C2         -0.3909    6.1174    2.6392 C.3       1 <0>        -0.0894
      3 C3         -0.6081    5.6444    1.2005 C.3       1 <0>        -0.1103
      4 C4          0.6388    5.9516    0.3687 C.3       1 <0>        -0.1034
      5 C5          1.8437    5.2241    0.9684 C.3       1 <0>        -0.1278
      6 C6          2.0610    5.6971    2.4071 C.3       1 <0>        -0.0787
      7 C7          3.2660    4.9696    3.0067 C.3       1 <0>        -0.1155
      8 C8          4.5337    5.3744    2.2517 C.3       1 <0>        -0.1113
      9 C9          5.7387    4.6468    2.8514 C.3       1 <0>        -0.1015
     10 H1          5.7894    4.8454    3.9219 H         1 <0>         0.0744
     11 C10         7.0210    5.1379    2.1777 C.3       1 <0>        -0.0254
     12 C11         8.1860    4.2784    2.5826 C.2       1 <0>        -0.3485
     13 C12         8.0081    3.0001    3.0937 C.2       1 <0>         0.4902
     14 N1          9.0751    2.2803    3.4334 N.2       1 <0>        -0.6101
     15 C13        10.2960    2.7744    3.2901 C.2       1 <0>         0.6485
     16 N2         10.5020    3.9905    2.8078 N.am      1 <0>        -0.6085
     17 C14         9.4819    4.7633    2.4468 C.2       1 <0>         0.4898
     18 O1          9.7024    6.0062    1.9532 O.2       1 <0>        -0.6272
     19 N3         11.3836    2.0000    3.6538 N.pl3     1 <0>        -0.8286
     20 N4          6.7374    2.4701    3.2590 N.pl3     1 <0>        -0.6963
     21 C15         5.5978    3.1376    2.6147 C.3       1 <0>         0.1187
     22 C16        -0.8635    4.1592    1.1932 C.2       1 <0>         0.5216
     23 O2         -0.8709    3.5400    2.2361 O.2       1 <0>        -0.5532
     24 N5         -1.0836    3.5189    0.0278 N.am      1 <0>        -0.6909
     25 C17        -1.3317    2.0751    0.0207 C.3       1 <0>         0.1001
     26 H2         -1.8953    1.7990    0.9119 H         1 <0>         0.0815
     27 C18        -2.1350    1.7018   -1.2268 C.3       1 <0>        -0.0859
     28 C19        -3.5190    2.3500   -1.1550 C.3       1 <0>        -0.1517
     29 C20        -4.3102    1.9823   -2.3837 C.2       1 <0>         0.4607
     30 O3         -3.8177    1.2744   -3.2300 O.co2     1 <0>        -0.6388
     31 C21        -0.0165    1.3394    0.0102 C.2       1 <0>         0.4664
     32 O4          1.0215    1.9577    0.0036 O.co2     1 <0>        -0.6361
     33 H3          0.9689    5.7269    4.2637 H         1 <0>         0.0466
     34 H4          0.6294    4.3156    3.2336 H         1 <0>         0.0989
     35 H5         -0.2062    7.1916    2.6444 H         1 <0>         0.0556
     36 H6         -1.2792    5.8986    3.2317 H         1 <0>         0.0622
     37 H7         -1.4667    6.1626    0.7733 H         1 <0>         0.0863
     38 H8          0.4839    5.6145   -0.6561 H         1 <0>         0.0653
     39 H9          0.8234    7.0258    0.3740 H         1 <0>         0.0603
     40 H10         2.7321    5.4429    0.3758 H         1 <0>         0.0574
     41 H11         1.6591    4.1498    0.9632 H         1 <0>         0.0957
     42 H12         2.2456    6.7713    2.4124 H         1 <0>         0.0566
     43 H13         3.3673    5.2396    4.0579 H         1 <0>         0.0549
     44 H14         3.1201    3.8928    2.9207 H         1 <0>         0.0685
     45 H15         4.4323    5.1043    1.2005 H         1 <0>         0.0726
     46 H16         4.6796    6.4512    2.3378 H         1 <0>         0.0647
     47 H17         6.8995    5.0942    1.0954 H         1 <0>         0.0650
     48 H18         7.2145    6.1678    2.4776 H         1 <0>         0.0751
     49 H19        11.4372    4.3321    2.7137 H         1 <0>         0.4192
     50 H20        12.2829    2.3495    3.5537 H         1 <0>         0.4138
     51 H21        11.2467    1.1077    4.0087 H         1 <0>         0.4282
     52 H22         6.6019    1.6717    3.7929 H         1 <0>         0.4105
     53 H23         4.6648    2.7814    3.0513 H         1 <0>         0.1003
     54 H24         5.6080    2.9297    1.5447 H         1 <0>         0.0767
     55 H25        -1.0776    4.0141   -0.8062 H         1 <0>         0.3901
     56 H26        -1.6129    2.0574   -2.1150 H         1 <0>         0.0560
     57 H27        -2.2434    0.6184   -1.2783 H         1 <0>         0.0819
     58 H28        -4.0412    1.9944   -0.2668 H         1 <0>         0.0593
     59 H29        -3.4106    3.4334   -1.1034 H         1 <0>         0.0573
     60 O5         -5.5622    2.4413   -2.5381 O.co2     1 <0>        -0.7913
     61 O6          0.0016   -0.0028    0.0024 O.co2     1 <0>        -0.7726
@<TRIPOS>BOND
     1    1    6 1
     2    1    2 1
     3    1   33 1
     4    1   34 1
     5    2    3 1
     6    2   35 1
     7    2   36 1
     8    3    4 1
     9    3   22 1
    10    3   37 1
    11    4    5 1
    12    4   38 1
    13    4   39 1
    14    5    6 1
    15    5   40 1
    16    5   41 1
    17    6    7 1
    18    6   42 1
    19    7    8 1
    20    7   43 1
    21    7   44 1
    22    8    9 1
    23    8   45 1
    24    8   46 1
    25    9   10 1
    26    9   21 1
    27    9   11 1
    28   11   12 1
    29   11   47 1
    30   11   48 1
    31   12   17 1
    32   12   13 2
    33   13   20 1
    34   13   14 1
    35   14   15 2
    36   15   19 1
    37   15   16 1
    38   16   49 1
    39   16   17 am
    40   17   18 2
    41   19   50 1
    42   19   51 1
    43   20   21 1
    44   20   52 1
    45   21   53 1
    46   21   54 1
    47   22   23 2
    48   22   24 am
    49   24   25 1
    50   24   55 1
    51   25   26 1
    52   25   27 1
    53   25   31 1
    54   27   28 1
    55   27   56 1
    56   27   57 1
    57   28   29 1
    58   28   58 1
    59   28   59 1
    60   29   30 2
    61   29   60 1
    62   31   32 2
    63   31   61 1
@<TRIPOS>MOLECULE
ZINC03806979
   55    57     0     0     0
SMALL
USER_CHARGES

@<TRIPOS>ATOM
      1 C1          1.6763   -4.6771    4.0026 C.ar      1 <0>        -0.1286
      2 C2          1.7606   -3.3010    3.9545 C.ar      1 <0>        -0.0635
      3 C3          0.7865   -2.5686    3.2740 C.ar      1 <0>        -0.1113
      4 C4         -0.2700   -3.2345    2.6508 C.ar      1 <0>        -0.0824
      5 C5         -0.3394   -4.6114    2.7016 C.ar      1 <0>        -0.1235
      6 C6          0.6294   -5.3314    3.3778 C.ar      1 <0>        -0.0764
      7 C7          0.5443   -6.8350    3.4336 C.3       1 <0>        -0.0783
      8 C8         -0.2630   -7.2548    4.6636 C.3       1 <0>        -0.1082
      9 C9         -0.3494   -8.7813    4.7203 C.3       1 <0>        -0.1026
     10 H1         -0.7635   -9.1588    3.7854 H         1 <0>         0.0787
     11 C10        -1.2439   -9.2013    5.8876 C.3       1 <0>        -0.0246
     12 C11        -1.1538  -10.6864    6.1076 C.2       1 <0>        -0.3891
     13 C12        -2.1706  -11.3404    6.8140 C.2       1 <0>         0.5548
     14 O1         -3.1273  -10.7162    7.2451 O.2       1 <0>        -0.5491
     15 N1         -2.0753  -12.6715    7.0108 N.am      1 <0>        -0.6648
     16 H2         -2.7934  -13.1546    7.5117 H         1 <0>         0.4136
     17 C13        -1.0036  -13.3581    6.5289 C.2       1 <0>         0.6594
     18 N2         -0.0453  -12.7505    5.8627 N.2       1 <0>        -0.6240
     19 C14        -0.0888  -11.4308    5.6333 C.2       1 <0>         0.4827
     20 N3          0.9350  -10.8324    4.9234 N.pl3     1 <0>        -0.7073
     21 C15         1.0518   -9.3682    4.9364 C.3       1 <0>         0.1249
     22 N4         -0.9211  -14.7084    6.7412 N.pl3     1 <0>        -0.8238
     23 C16         0.8703   -1.0935    3.2189 C.2       1 <0>         0.5517
     24 O2          1.7888   -0.5160    3.7669 O.2       1 <0>        -0.5513
     25 N5         -0.0718   -0.3892    2.5610 N.am      1 <0>        -0.6826
     26 C17         0.0111    1.0724    2.5063 C.3       1 <0>         0.0994
     27 H3          1.0569    1.3753    2.4543 H         1 <0>         0.0863
     28 C18        -0.7288    1.5792    1.2668 C.3       1 <0>        -0.0864
     29 C19        -0.0127    1.0858    0.0080 C.3       1 <0>        -0.1530
     30 C20        -0.7416    1.5850   -1.2129 C.2       1 <0>         0.4614
     31 O3         -1.7322    2.2656   -1.0889 O.co2     1 <0>        -0.6384
     32 C21        -0.6205    1.6580    3.7429 C.2       1 <0>         0.4649
     33 O4         -1.0916    0.9292    4.5836 O.co2     1 <0>        -0.6392
     34 H4          2.4293   -5.2450    4.5288 H         1 <0>         0.1216
     35 H5          2.5786   -2.7915    4.4421 H         1 <0>         0.1332
     36 H6         -1.0293   -2.6733    2.1264 H         1 <0>         0.1285
     37 H7         -1.1540   -5.1281    2.2159 H         1 <0>         0.1238
     38 H8          0.0536   -7.2048    2.5333 H         1 <0>         0.0723
     39 H9          1.5487   -7.2536    3.4980 H         1 <0>         0.0704
     40 H10         0.2278   -6.8850    5.5639 H         1 <0>         0.0699
     41 H11        -1.2673   -6.8362    4.5992 H         1 <0>         0.0745
     42 H12        -0.9243   -8.6829    6.7916 H         1 <0>         0.0616
     43 H13        -2.2764   -8.9313    5.6660 H         1 <0>         0.0738
     44 H14         1.5677  -11.3718    4.4239 H         1 <0>         0.4069
     45 H15         1.7151   -9.0440    4.1345 H         1 <0>         0.0918
     46 H16         1.4459   -9.0374    5.8973 H         1 <0>         0.0693
     47 H17        -0.1616  -15.2072    6.4017 H         1 <0>         0.4268
     48 H18        -1.6221  -15.1660    7.2311 H         1 <0>         0.4139
     49 H19        -0.8048   -0.8501    2.1237 H         1 <0>         0.3913
     50 H20        -0.7436    2.6691    1.2728 H         1 <0>         0.0852
     51 H21        -1.7514    1.2020    1.2746 H         1 <0>         0.0574
     52 H22         0.0021   -0.0041    0.0020 H         1 <0>         0.0573
     53 H23         1.0099    1.4631    0.0003 H         1 <0>         0.0607
     54 O5         -0.2903    1.2736   -2.4381 O.co2     1 <0>        -0.7907
     55 O6         -0.6597    2.9892    3.9104 O.co2     1 <0>        -0.7687
@<TRIPOS>BOND
     1    1    6 ar
     2    1    2 ar
     3    1   34 1
     4    2    3 ar
     5    2   35 1
     6    3    4 ar
     7    3   23 1
     8    4    5 ar
     9    4   36 1
    10    5    6 ar
    11    5   37 1
    12    6    7 1
    13    7    8 1
    14    7   38 1
    15    7   39 1
    16    8    9 1
    17    8   40 1
    18    8   41 1
    19    9   10 1
    20    9   21 1
    21    9   11 1
    22   11   12 1
    23   11   42 1
    24   11   43 1
    25   12   19 2
    26   12   13 1
    27   13   14 2
    28   13   15 am
    29   15   16 1
    30   15   17 1
    31   17   18 2
    32   17   22 1
    33   18   19 1
    34   19   20 1
    35   20   21 1
    36   20   44 1
    37   21   45 1
    38   21   46 1
    39   22   47 1
    40   22   48 1
    41   23   24 2
    42   23   25 am
    43   25   26 1
    44   25   49 1
    45   26   27 1
    46   26   28 1
    47   26   32 1
    48   28   29 1
    49   28   50 1
    50   28   51 1
    51   29   30 1
    52   29   52 1
    53   29   53 1
    54   30   31 2
    55   30   54 1
    56   32   33 2
    57   32   55 1
@<TRIPOS>MOLECULE
ZINC03806979
   61    63     0     0     0
SMALL
USER_CHARGES

@<TRIPOS>ATOM
      1 C1          0.8141    5.3899    3.2389 C.3       1 <0>        -0.1278
      2 C2         -0.3909    6.1174    2.6392 C.3       1 <0>        -0.0894
      3 C3         -0.6081    5.6444    1.2005 C.3       1 <0>        -0.1103
      4 C4          0.6388    5.9516    0.3687 C.3       1 <0>        -0.1034
      5 C5          1.8437    5.2241    0.9684 C.3       1 <0>        -0.1278
      6 C6          2.0610    5.6971    2.4071 C.3       1 <0>        -0.0787
      7 C7          3.2660    4.9696    3.0067 C.3       1 <0>        -0.1155
      8 C8          4.5337    5.3744    2.2517 C.3       1 <0>        -0.1113
      9 C9          5.7387    4.6468    2.8514 C.3       1 <0>        -0.1015
     10 H1          5.7894    4.8454    3.9219 H         1 <0>         0.0744
     11 C10         7.0210    5.1379    2.1777 C.3       1 <0>        -0.0254
     12 C11         8.1860    4.2784    2.5826 C.2       1 <0>        -0.3485
     13 C12         8.0081    3.0001    3.0937 C.2       1 <0>         0.4902
     14 N1          9.0751    2.2803    3.4334 N.2       1 <0>        -0.6101
     15 C13        10.2960    2.7744    3.2901 C.2       1 <0>         0.6485
     16 N2         10.5020    3.9905    2.8078 N.am      1 <0>        -0.6085
     17 C14         9.4819    4.7633    2.4468 C.2       1 <0>         0.4898
     18 O1          9.7024    6.0062    1.9532 O.2       1 <0>        -0.6272
     19 N3         11.3836    2.0000    3.6538 N.pl3     1 <0>        -0.8286
     20 N4          6.7374    2.4701    3.2590 N.pl3     1 <0>        -0.6963
     21 C15         5.5978    3.1376    2.6147 C.3       1 <0>         0.1187
     22 C16        -0.8635    4.1592    1.1932 C.2       1 <0>         0.5216
     23 O2         -0.8709    3.5400    2.2361 O.2       1 <0>        -0.5532
     24 N5         -1.0836    3.5189    0.0278 N.am      1 <0>        -0.6909
     25 C17        -1.3317    2.0751    0.0207 C.3       1 <0>         0.1001
     26 H2         -1.8953    1.7990    0.9119 H         1 <0>         0.0815
     27 C18        -2.1350    1.7018   -1.2268 C.3       1 <0>        -0.0859
     28 C19        -3.5190    2.3500   -1.1550 C.3       1 <0>        -0.1517
     29 C20        -4.3102    1.9823   -2.3837 C.2       1 <0>         0.4607
     30 O3         -3.8177    1.2744   -3.2300 O.co2     1 <0>        -0.6388
     31 C21        -0.0165    1.3394    0.0102 C.2       1 <0>         0.4664
     32 O4          1.0215    1.9577    0.0036 O.co2     1 <0>        -0.6361
     33 H3          0.9689    5.7269    4.2637 H         1 <0>         0.0466
     34 H4          0.6294    4.3156    3.2336 H         1 <0>         0.0989
     35 H5         -0.2062    7.1916    2.6444 H         1 <0>         0.0556
     36 H6         -1.2792    5.8986    3.2317 H         1 <0>         0.0622
     37 H7         -1.4667    6.1626    0.7733 H         1 <0>         0.0863
     38 H8          0.4839    5.6145   -0.6561 H         1 <0>         0.0653
     39 H9          0.8234    7.0258    0.3740 H         1 <0>         0.0603
     40 H10         2.7321    5.4429    0.3758 H         1 <0>         0.0574
     41 H11         1.6591    4.1498    0.9632 H         1 <0>         0.0957
     42 H12         2.2456    6.7713    2.4124 H         1 <0>         0.0566
     43 H13         3.3673    5.2396    4.0579 H         1 <0>         0.0549
     44 H14         3.1201    3.8928    2.9207 H         1 <0>         0.0685
     45 H15         4.4323    5.1043    1.2005 H         1 <0>         0.0726
     46 H16         4.6796    6.4512    2.3378 H         1 <0>         0.0647
     47 H17         6.8995    5.0942    1.0954 H         1 <0>         0.0650
     48 H18         7.2145    6.1678    2.4776 H         1 <0>         0.0751
     49 H19        11.4372    4.3321    2.7137 H         1 <0>         0.4192
     50 H20        12.2829    2.3495    3.5537 H         1 <0>         0.4138
     51 H21        11.2467    1.1077    4.0087 H         1 <0>         0.4282
     52 H22         6.6019    1.6717    3.7929 H         1 <0>         0.4105
     53 H23         4.6648    2.7814    3.0513 H         1 <0>         0.1003
     54 H24         5.6080    2.9297    1.5447 H         1 <0>         0.0767
     55 H25        -1.0776    4.0141   -0.8062 H         1 <0>         0.3901
     56 H26        -1.6129    2.0574   -2.1150 H         1 <0>         0.0560
     57 H27        -2.2434    0.6184   -1.2783 H         1 <0>         0.0819
     58 H28        -4.0412    1.9944   -0.2668 H         1 <0>         0.0593
     59 H29        -3.4106    3.4334   -1.1034 H         1 <0>         0.0573
     60 O5         -5.5622    2.4413   -2.5381 O.co2     1 <0>        -0.7913
     61 O6          0.0016   -0.0028    0.0024 O.co2     1 <0>        -0.7726
@<TRIPOS>BOND
     1    1    6 1
     2    1    2 1
     3    1   33 1
     4    1   34 1
     5    2    3 1
     6    2   35 1
     7    2   36 1
     8    3    4 1
     9    3   22 1
    10    3   37 1
    11    4    5 1
    12    4   38 1
    13    4   39 1
    14    5    6 1
    15    5   40 1
    16    5   41 1
    17    6    7 1
    18    6   42 1
    19    7    8 1
    20    7   43 1
    21    7   44 1
    22    8    9 1
    23    8   45 1
    24    8   46 1
    25    9   10 1
    26    9   21 1
    27    9   11 1
    28   11   12 1
    29   11   47 1
    30   11   48 1
    31   12   17 1
    32   12   13 2
    33   13   20 1
    34   13   14 1
    35   14   15 2
    36   15   19 1
    37   15   16 1
    38   16   49 1
    39   16   17 am
    40   17   18 2
    41   19   50 1
    42   19   51 1
    43   20   21 1
    44   20   52 1
    45   21   53 1
    46   21   54 1
    47   22   23 2
    48   22   24 am
    49   24   25 1
    50   24   55 1
    51   25   26 1
    52   25   27 1
    53   25   31 1
    54   27   28 1
    55   27   56 1
    56   27   57 1
    57   28   29 1
    58   28   58 1
    59   28   59 1
    60   29   30 2
    61   29   60 1
    62   31   32 2
    63   31   61 1
@<TRIPOS>MOLECULE
ZINC03806979
   55    57     0     0     0
SMALL
USER_CHARGES

@<TRIPOS>ATOM
      1 C1          1.6688   -4.6799    3.9862 C.ar      1 <0>        -0.1283
      2 C2          1.7534   -3.3039    3.9373 C.ar      1 <0>        -0.0634
      3 C3          0.7775   -2.5714    3.2595 C.ar      1 <0>        -0.1098
      4 C4         -0.2811   -3.2372    2.6397 C.ar      1 <0>        -0.0826
      5 C5         -0.3508   -4.6140    2.6913 C.ar      1 <0>        -0.1235
      6 C6          0.6198   -5.3341    3.3648 C.ar      1 <0>        -0.0781
      7 C7          0.5343   -6.8377    3.4214 C.3       1 <0>        -0.0786
      8 C8         -0.2694   -7.2567    4.6540 C.3       1 <0>        -0.1094
      9 C9         -0.3562   -8.7832    4.7115 C.3       1 <0>        -0.0962
     10 H1         -0.7732   -9.1609    3.7780 H         1 <0>         0.0816
     11 C10        -1.2490   -9.2030    5.8787 C.3       1 <0>        -0.0526
     12 C11        -1.1571  -10.6875    6.1020 C.ar      1 <0>        -0.4402
     13 C12        -2.1703  -11.3403    6.8146 C.ar      1 <0>         0.4688
     14 O1         -3.1271  -10.7161    7.2455 O.3       1 <0>        -0.3981
     15 N1         -2.0750  -12.6714    7.0114 N.ar      1 <0>        -0.6432
     16 H2         -3.0295   -9.7499    7.0070 H         1 <0>         0.4281
     17 C13        -1.0067  -13.3591    6.5235 C.ar      1 <0>         0.6312
     18 N2         -0.0500  -12.7520    5.8545 N.ar      1 <0>        -0.6576
     19 C14        -0.0938  -11.4324    5.6247 C.ar      1 <0>         0.5114
     20 N3          0.9283  -10.8346    4.9118 N.pl3     1 <0>        -0.7122
     21 C15         1.0455   -9.3705    4.9236 C.3       1 <0>         0.1257
     22 N4         -0.9258  -14.7099    6.7331 N.pl3     1 <0>        -0.8129
     23 C16         0.8617   -1.0963    3.2036 C.2       1 <0>         0.5510
     24 O2          1.7820   -0.5190    3.7486 O.2       1 <0>        -0.5505
     25 N5         -0.0822   -0.3920    2.5483 N.am      1 <0>        -0.6823
     26 C17         0.0011    1.0696    2.4928 C.3       1 <0>         0.0992
     27 H3          1.0468    1.3721    2.4375 H         1 <0>         0.0865
     28 C18        -0.7424    1.5762    1.2554 C.3       1 <0>        -0.0864
     29 C19        -0.0303    1.0821   -0.0054 C.3       1 <0>        -0.1531
     30 C20        -0.7627    1.5811   -1.2243 C.2       1 <0>         0.4613
     31 O3         -1.7526    2.2621   -1.0975 O.co2     1 <0>        -0.6384
     32 C21        -0.6266    1.6559    3.7311 C.2       1 <0>         0.4651
     33 O4         -1.0954    0.9275    4.5735 O.co2     1 <0>        -0.6399
     34 H4          2.4232   -5.2479    4.5103 H         1 <0>         0.1216
     35 H5          2.5731   -2.7945    4.4223 H         1 <0>         0.1336
     36 H6         -1.0418   -2.6759    2.1174 H         1 <0>         0.1288
     37 H7         -1.1671   -5.1306    2.2082 H         1 <0>         0.1235
     38 H8          0.0408   -7.2076    2.5227 H         1 <0>         0.0729
     39 H9          1.5387   -7.2566    3.4829 H         1 <0>         0.0714
     40 H10         0.2242   -6.8868    5.5527 H         1 <0>         0.0710
     41 H11        -1.2738   -6.8378    4.5925 H         1 <0>         0.0743
     42 H12        -0.9284   -8.6822    6.7809 H         1 <0>         0.0708
     43 H13        -2.2822   -8.9345    5.6583 H         1 <0>         0.0688
     44 H14         1.5594  -11.3744    4.4108 H         1 <0>         0.4077
     45 H15         1.7064   -9.0468    4.1196 H         1 <0>         0.0927
     46 H16         1.4426   -9.0395    5.8832 H         1 <0>         0.0679
     47 H17        -0.1674  -15.2091    6.3916 H         1 <0>         0.4142
     48 H18        -1.6268  -15.1675    7.2230 H         1 <0>         0.4141
     49 H19        -0.8166   -0.8528    2.1134 H         1 <0>         0.3912
     50 H20        -0.7568    2.6661    1.2610 H         1 <0>         0.0854
     51 H21        -1.7651    1.1994    1.2664 H         1 <0>         0.0574
     52 H22        -0.0159   -0.0078   -0.0111 H         1 <0>         0.0571
     53 H23         0.9925    1.4590   -0.0163 H         1 <0>         0.0608
     54 O5         -0.3152    1.2691   -2.4507 O.co2     1 <0>        -0.7904
     55 O6         -0.6648    2.9871    3.8982 O.co2     1 <0>        -0.7678
@<TRIPOS>BOND
     1    1    6 ar
     2    1    2 ar
     3    1   34 1
     4    2    3 ar
     5    2   35 1
     6    3    4 ar
     7    3   23 1
     8    4    5 ar
     9    4   36 1
    10    5    6 ar
    11    5   37 1
    12    6    7 1
    13    7    8 1
    14    7   38 1
    15    7   39 1
    16    8    9 1
    17    8   40 1
    18    8   41 1
    19    9   10 1
    20    9   21 1
    21    9   11 1
    22   11   12 1
    23   11   42 1
    24   11   43 1
    25   12   13 ar
    26   12   19 ar
    27   13   15 ar
    28   13   14 1
    29   14   16 1
    30   15   17 ar
    31   17   22 1
    32   17   18 ar
    33   18   19 ar
    34   19   20 1
    35   20   21 1
    36   20   44 1
    37   21   45 1
    38   21   46 1
    39   22   47 1
    40   22   48 1
    41   23   24 2
    42   23   25 am
    43   25   26 1
    44   25   49 1
    45   26   27 1
    46   26   28 1
    47   26   32 1
    48   28   29 1
    49   28   50 1
    50   28   51 1
    51   29   30 1
    52   29   52 1
    53   29   53 1
    54   30   31 2
    55   30   54 1
    56   32   33 2
    57   32   55 1
@<TRIPOS>MOLECULE
ZINC03806979
   55    57     0     0     0
SMALL
USER_CHARGES

@<TRIPOS>ATOM
      1 C1          1.6779   -4.6767    4.0056 C.ar      1 <0>        -0.1287
      2 C2          1.7624   -3.3006    3.9579 C.ar      1 <0>        -0.0636
      3 C3          0.7885   -2.5679    3.2775 C.ar      1 <0>        -0.1103
      4 C4         -0.2680   -3.2335    2.6539 C.ar      1 <0>        -0.0821
      5 C5         -0.3376   -4.6104    2.7043 C.ar      1 <0>        -0.1230
      6 C6          0.6310   -5.3307    3.3804 C.ar      1 <0>        -0.0777
      7 C7          0.5457   -6.8343    3.4358 C.3       1 <0>        -0.0775
      8 C8         -0.2619   -7.2544    4.6655 C.3       1 <0>        -0.1092
      9 C9         -0.3485   -8.7809    4.7217 C.3       1 <0>        -0.1050
     10 H1         -0.7624   -9.1580    3.7867 H         1 <0>         0.0797
     11 C10        -1.2432   -9.2011    5.8888 C.3       1 <0>        -0.0339
     12 C11        -1.1534  -10.6863    6.1083 C.2       1 <0>        -0.3339
     13 C12        -2.1723  -11.3409    6.8111 C.2       1 <0>         0.5350
     14 O1         -3.1290  -10.7167    7.2421 O.2       1 <0>        -0.5348
     15 N1         -2.0785  -12.6725    7.0052 N.2       1 <0>        -0.6312
     16 H2          0.7279  -13.2834    5.5191 H         1 <0>         0.4149
     17 C13        -1.0067  -13.3591    6.5235 C.2       1 <0>         0.6368
     18 N2         -0.0467  -12.7510    5.8603 N.pl3     1 <0>        -0.6187
     19 C14        -0.0884  -11.4307    5.6340 C.2       1 <0>         0.4288
     20 N3          0.9356  -10.8322    4.9245 N.pl3     1 <0>        -0.7330
     21 C15         1.0526   -9.3680    4.9379 C.3       1 <0>         0.1301
     22 N4         -0.9258  -14.7099    6.7330 N.pl3     1 <0>        -0.8240
     23 C16         0.8725   -1.0928    3.2228 C.2       1 <0>         0.5514
     24 O2          1.7910   -0.5156    3.7711 O.2       1 <0>        -0.5511
     25 N5         -0.0694   -0.3882    2.5649 N.am      1 <0>        -0.6823
     26 C17         0.0137    1.0734    2.5107 C.3       1 <0>         0.0993
     27 H3          1.0596    1.3762    2.4590 H         1 <0>         0.0864
     28 C18        -0.7259    1.5807    1.2712 C.3       1 <0>        -0.0865
     29 C19        -0.0096    1.0876    0.0124 C.3       1 <0>        -0.1529
     30 C20        -0.7382    1.5872   -1.2085 C.2       1 <0>         0.4613
     31 O3         -1.7288    2.2679   -1.0845 O.co2     1 <0>        -0.6382
     32 C21        -0.6180    1.6588    3.7473 C.2       1 <0>         0.4648
     33 O4         -1.0894    0.9298    4.5877 O.co2     1 <0>        -0.6391
     34 H4          2.4307   -5.2449    4.5318 H         1 <0>         0.1210
     35 H5          2.5804   -2.7914    4.4458 H         1 <0>         0.1333
     36 H6         -1.0271   -2.6720    2.1295 H         1 <0>         0.1289
     37 H7         -1.1521   -5.1268    2.2183 H         1 <0>         0.1240
     38 H8          0.0551   -7.2038    2.5353 H         1 <0>         0.0722
     39 H9          1.5501   -7.2531    3.5002 H         1 <0>         0.0690
     40 H10         0.2288   -6.8849    5.5660 H         1 <0>         0.0708
     41 H11        -1.2661   -6.8356    4.6010 H         1 <0>         0.0766
     42 H12        -0.9237   -8.6830    6.7930 H         1 <0>         0.0692
     43 H13        -2.2757   -8.9309    5.6670 H         1 <0>         0.0828
     44 H14         1.5683  -11.3715    4.4250 H         1 <0>         0.4018
     45 H15         1.7161   -9.0437    4.1363 H         1 <0>         0.0944
     46 H16         1.4466   -9.0375    5.8990 H         1 <0>         0.0718
     47 H17        -0.1663  -15.2087    6.3936 H         1 <0>         0.4087
     48 H18        -1.6280  -15.1679    7.2209 H         1 <0>         0.4308
     49 H19        -0.8024   -0.8489    2.1274 H         1 <0>         0.3914
     50 H20        -0.7405    2.6706    1.2775 H         1 <0>         0.0853
     51 H21        -1.7485    1.2036    1.2787 H         1 <0>         0.0576
     52 H22         0.0051   -0.0023    0.0061 H         1 <0>         0.0572
     53 H23         1.0130    1.4647    0.0050 H         1 <0>         0.0607
     54 O5         -0.2867    1.2761   -2.4337 O.co2     1 <0>        -0.7908
     55 O6         -0.6571    2.9899    3.9152 O.co2     1 <0>        -0.7684
@<TRIPOS>BOND
     1    1    6 ar
     2    1    2 ar
     3    1   34 1
     4    2    3 ar
     5    2   35 1
     6    3    4 ar
     7    3   23 1
     8    4    5 ar
     9    4   36 1
    10    5    6 ar
    11    5   37 1
    12    6    7 1
    13    7    8 1
    14    7   38 1
    15    7   39 1
    16    8    9 1
    17    8   40 1
    18    8   41 1
    19    9   10 1
    20    9   21 1
    21    9   11 1
    22   11   12 1
    23   11   42 1
    24   11   43 1
    25   12   13 1
    26   12   19 2
    27   13   15 1
    28   13   14 2
    29   15   17 2
    30   16   18 1
    31   17   22 1
    32   17   18 1
    33   18   19 1
    34   19   20 1
    35   20   21 1
    36   20   44 1
    37   21   45 1
    38   21   46 1
    39   22   47 1
    40   22   48 1
    41   23   24 2
    42   23   25 am
    43   25   26 1
    44   25   49 1
    45   26   27 1
    46   26   28 1
    47   26   32 1
    48   28   29 1
    49   28   50 1
    50   28   51 1
    51   29   30 1
    52   29   52 1
    53   29   53 1
    54   30   31 2
    55   30   54 1
    56   32   33 2
    57   32   55 1
@<TRIPOS>MOLECULE
ZINC03806987
   50    52     0     0     0
SMALL
USER_CHARGES

@<TRIPOS>ATOM
      1 C1          1.0149    1.6756    3.1672 C.2       1 <0>        -0.1661
      2 C2          1.5424    1.0490    4.2687 C.2       1 <0>        -0.1003
      3 C3          1.0023   -0.1796    4.6151 C.2       1 <0>        -0.1917
      4 S1         -0.2480   -0.3968    3.3611 S.3       1 <0>         0.1522
      5 C4          0.0000    1.0800    2.4877 C.2       1 <0>        -0.1830
      6 C5         -0.7288    1.5792    1.2668 C.3       1 <0>        -0.0321
      7 C6         -0.0127    1.0858    0.0080 C.3       1 <0>        -0.0944
      8 C7         -0.7527    1.5927   -1.2315 C.3       1 <0>        -0.1066
      9 H1         -0.8633    2.6758   -1.1793 H         1 <0>         0.0991
     10 C8          0.0274    1.2082   -2.4987 C.3       1 <0>         0.1265
     11 N1         -0.6442    1.7866   -3.6584 N.pl3     1 <0>        -0.7090
     12 C9         -1.9772    1.5770   -3.9428 C.2       1 <0>         0.4800
     13 C10        -2.8890    1.1440   -2.9951 C.2       1 <0>        -0.3919
     14 C11        -4.2310    0.9699   -3.3619 C.2       1 <0>         0.5744
     15 O1         -5.0556    0.5933   -2.5430 O.2       1 <0>        -0.5253
     16 N2         -4.5956    1.2262   -4.6358 N.am      1 <0>        -0.6593
     17 H2         -5.5484    1.1124   -4.9172 H         1 <0>         0.4191
     18 C12        -3.6628    1.6400   -5.5364 C.2       1 <0>         0.6610
     19 N3         -2.4053    1.8064   -5.1980 N.2       1 <0>        -0.6167
     20 N4         -4.0461    1.8893   -6.8301 N.pl3     1 <0>        -0.8229
     21 S2         -2.3899    0.8072   -1.3378 S.3       1 <0>        -0.0406
     22 C13         1.3637   -1.0685    5.7232 C.2       1 <0>         0.5950
     23 O2          2.2539   -0.7530    6.4909 O.2       1 <0>        -0.5383
     24 N5          0.7103   -2.2351    5.8920 N.am      1 <0>        -0.6789
     25 C14         1.0715   -3.1235    6.9995 C.3       1 <0>         0.0997
     26 H3          1.3585   -2.5266    7.8652 H         1 <0>         0.0886
     27 C15        -0.1279   -4.0020    7.3606 C.3       1 <0>        -0.0868
     28 C16        -1.2595   -3.1240    7.8986 C.3       1 <0>        -0.1542
     29 C17        -2.4409   -3.9893    8.2544 C.2       1 <0>         0.4620
     30 O3         -2.3837   -5.1855    8.0940 O.co2     1 <0>        -0.6386
     31 C18         2.2277   -3.9971    6.5860 C.2       1 <0>         0.4655
     32 O4          2.7014   -3.8888    5.4797 O.co2     1 <0>        -0.6387
     33 H4          1.3995    2.6326    2.8466 H         1 <0>         0.1299
     34 H5          2.3463    1.4918    4.8379 H         1 <0>         0.1429
     35 H6         -0.7436    2.6691    1.2728 H         1 <0>         0.0852
     36 H7         -1.7514    1.2020    1.2746 H         1 <0>         0.0868
     37 H8          0.0021   -0.0041    0.0020 H         1 <0>         0.0848
     38 H9          1.0099    1.4631    0.0003 H         1 <0>         0.0862
     39 H10         1.0438    1.5964   -2.4338 H         1 <0>         0.1034
     40 H11         0.0564    0.1228   -2.5946 H         1 <0>         0.0845
     41 H12        -0.1271    2.3459   -4.2590 H         1 <0>         0.4077
     42 H13        -4.9722    1.7702   -7.0930 H         1 <0>         0.4147
     43 H14        -3.3911    2.1847   -7.4817 H         1 <0>         0.4269
     44 H15         0.0008   -2.4865    5.2802 H         1 <0>         0.3920
     45 H16        -0.4705   -4.5323    6.4721 H         1 <0>         0.0587
     46 H17         0.1664   -4.7231    8.1232 H         1 <0>         0.0867
     47 H18        -0.9169   -2.5937    8.7872 H         1 <0>         0.0612
     48 H19        -1.5539   -2.4029    7.1360 H         1 <0>         0.0577
     49 O5         -3.5568   -3.4312    8.7493 O.co2     1 <0>        -0.7899
     50 O6          2.7314   -4.8956    7.4467 O.co2     1 <0>        -0.7669
@<TRIPOS>BOND
     1    1    5 2
     2    1    2 1
     3    1   33 1
     4    2    3 2
     5    2   34 1
     6    3    4 1
     7    3   22 1
     8    4    5 1
     9    5    6 1
    10    6    7 1
    11    6   35 1
    12    6   36 1
    13    7    8 1
    14    7   37 1
    15    7   38 1
    16    8    9 1
    17    8   21 1
    18    8   10 1
    19   10   11 1
    20   10   39 1
    21   10   40 1
    22   11   12 1
    23   11   41 1
    24   12   19 1
    25   12   13 2
    26   13   14 1
    27   13   21 1
    28   14   15 2
    29   14   16 am
    30   16   17 1
    31   16   18 1
    32   18   19 2
    33   18   20 1
    34   20   42 1
    35   20   43 1
    36   22   23 2
    37   22   24 am
    38   24   25 1
    39   24   44 1
    40   25   26 1
    41   25   27 1
    42   25   31 1
    43   27   28 1
    44   27   45 1
    45   27   46 1
    46   28   29 1
    47   28   47 1
    48   28   48 1
    49   29   30 2
    50   29   49 1
    51   31   32 2
    52   31   50 1
@<TRIPOS>MOLECULE
ZINC03806987
   50    52     0     0     0
SMALL
USER_CHARGES

@<TRIPOS>ATOM
      1 C1          1.0149    1.6756    3.1672 C.2       1 <0>        -0.1661
      2 C2          1.5424    1.0490    4.2687 C.2       1 <0>        -0.1003
      3 C3          1.0023   -0.1796    4.6151 C.2       1 <0>        -0.1917
      4 S1         -0.2480   -0.3968    3.3611 S.3       1 <0>         0.1522
      5 C4          0.0000    1.0800    2.4877 C.2       1 <0>        -0.1830
      6 C5         -0.7288    1.5792    1.2668 C.3       1 <0>        -0.0321
      7 C6         -0.0127    1.0858    0.0080 C.3       1 <0>        -0.0944
      8 C7         -0.7527    1.5927   -1.2315 C.3       1 <0>        -0.1066
      9 H1         -0.8633    2.6758   -1.1793 H         1 <0>         0.0991
     10 C8          0.0274    1.2082   -2.4987 C.3       1 <0>         0.1265
     11 N1         -0.6442    1.7866   -3.6584 N.pl3     1 <0>        -0.7090
     12 C9         -1.9772    1.5770   -3.9428 C.2       1 <0>         0.4800
     13 C10        -2.8890    1.1440   -2.9951 C.2       1 <0>        -0.3919
     14 C11        -4.2310    0.9699   -3.3619 C.2       1 <0>         0.5744
     15 O1         -5.0556    0.5933   -2.5430 O.2       1 <0>        -0.5253
     16 N2         -4.5956    1.2262   -4.6358 N.am      1 <0>        -0.6593
     17 H2         -5.5484    1.1124   -4.9172 H         1 <0>         0.4191
     18 C12        -3.6628    1.6400   -5.5364 C.2       1 <0>         0.6610
     19 N3         -2.4053    1.8064   -5.1980 N.2       1 <0>        -0.6167
     20 N4         -4.0461    1.8893   -6.8301 N.pl3     1 <0>        -0.8229
     21 S2         -2.3899    0.8072   -1.3378 S.3       1 <0>        -0.0406
     22 C13         1.3637   -1.0685    5.7232 C.2       1 <0>         0.5950
     23 O2          2.2539   -0.7530    6.4909 O.2       1 <0>        -0.5383
     24 N5          0.7103   -2.2351    5.8920 N.am      1 <0>        -0.6789
     25 C14         1.0715   -3.1235    6.9995 C.3       1 <0>         0.0997
     26 H3          1.3585   -2.5266    7.8652 H         1 <0>         0.0886
     27 C15        -0.1279   -4.0020    7.3606 C.3       1 <0>        -0.0868
     28 C16        -1.2595   -3.1240    7.8986 C.3       1 <0>        -0.1542
     29 C17        -2.4409   -3.9893    8.2544 C.2       1 <0>         0.4620
     30 O3         -2.3837   -5.1855    8.0940 O.co2     1 <0>        -0.6386
     31 C18         2.2277   -3.9971    6.5860 C.2       1 <0>         0.4655
     32 O4          2.7014   -3.8888    5.4797 O.co2     1 <0>        -0.6387
     33 H4          1.3995    2.6326    2.8466 H         1 <0>         0.1299
     34 H5          2.3463    1.4918    4.8379 H         1 <0>         0.1429
     35 H6         -0.7436    2.6691    1.2728 H         1 <0>         0.0852
     36 H7         -1.7514    1.2020    1.2746 H         1 <0>         0.0868
     37 H8          0.0021   -0.0041    0.0020 H         1 <0>         0.0848
     38 H9          1.0099    1.4631    0.0003 H         1 <0>         0.0862
     39 H10         1.0438    1.5964   -2.4338 H         1 <0>         0.1034
     40 H11         0.0564    0.1228   -2.5946 H         1 <0>         0.0845
     41 H12        -0.1271    2.3459   -4.2590 H         1 <0>         0.4077
     42 H13        -4.9722    1.7702   -7.0930 H         1 <0>         0.4147
     43 H14        -3.3911    2.1847   -7.4817 H         1 <0>         0.4269
     44 H15         0.0008   -2.4865    5.2802 H         1 <0>         0.3920
     45 H16        -0.4705   -4.5323    6.4721 H         1 <0>         0.0587
     46 H17         0.1664   -4.7231    8.1232 H         1 <0>         0.0867
     47 H18        -0.9169   -2.5937    8.7872 H         1 <0>         0.0612
     48 H19        -1.5539   -2.4029    7.1360 H         1 <0>         0.0577
     49 O5         -3.5568   -3.4312    8.7493 O.co2     1 <0>        -0.7899
     50 O6          2.7314   -4.8956    7.4467 O.co2     1 <0>        -0.7669
@<TRIPOS>BOND
     1    1    5 2
     2    1    2 1
     3    1   33 1
     4    2    3 2
     5    2   34 1
     6    3    4 1
     7    3   22 1
     8    4    5 1
     9    5    6 1
    10    6    7 1
    11    6   35 1
    12    6   36 1
    13    7    8 1
    14    7   37 1
    15    7   38 1
    16    8    9 1
    17    8   21 1
    18    8   10 1
    19   10   11 1
    20   10   39 1
    21   10   40 1
    22   11   12 1
    23   11   41 1
    24   12   19 1
    25   12   13 2
    26   13   14 1
    27   13   21 1
    28   14   15 2
    29   14   16 am
    30   16   17 1
    31   16   18 1
    32   18   19 2
    33   18   20 1
    34   20   42 1
    35   20   43 1
    36   22   23 2
    37   22   24 am
    38   24   25 1
    39   24   44 1
    40   25   26 1
    41   25   27 1
    42   25   31 1
    43   27   28 1
    44   27   45 1
    45   27   46 1
    46   28   29 1
    47   28   47 1
    48   28   48 1
    49   29   30 2
    50   29   49 1
    51   31   32 2
    52   31   50 1
@<TRIPOS>MOLECULE
ZINC03807018
   52    53     0     0     0
SMALL
USER_CHARGES

@<TRIPOS>ATOM
      1 C1        -10.8219    2.9047    1.3232 C.ar      1 <0>        -0.1223
      2 C2        -12.0926    3.4361    1.2450 C.ar      1 <0>        -0.0824
      3 C3        -12.7248    3.5456    0.0055 C.ar      1 <0>        -0.1112
      4 C4        -12.0639    3.1207   -1.1481 C.ar      1 <0>        -0.0637
      5 C5        -10.7915    2.5956   -1.0566 C.ar      1 <0>        -0.1277
      6 C6        -10.1703    2.4902    0.1752 C.ar      1 <0>        -0.0757
      7 C7         -8.7802    1.9156    0.2676 C.3       1 <0>        -0.0703
      8 C8         -7.7529    3.0412    0.1310 C.3       1 <0>        -0.0978
      9 C9         -6.3416    2.4578    0.2248 C.3       1 <0>        -0.1041
     10 S1         -5.1237    3.7923    0.0629 S.3       1 <0>        -0.0914
     11 C10        -3.5737    2.9547    0.0430 C.2       1 <0>        -0.4303
     12 C11        -2.7737    2.9703   -1.0934 C.2       1 <0>         0.5304
     13 N1         -1.5998    2.3268   -1.0869 N.2       1 <0>        -0.6255
     14 C12        -1.1849    1.6763   -0.0217 C.2       1 <0>         0.6774
     15 N2         -1.9319    1.6250    1.1148 N.am      1 <0>        -0.6638
     16 H1         -1.5978    1.1167    1.9086 H         1 <0>         0.4165
     17 C13        -3.1222    2.2582    1.1734 C.2       1 <0>         0.5650
     18 O1         -3.7964    2.2216    2.1914 O.2       1 <0>        -0.5287
     19 N3          0.0251    1.0305   -0.0590 N.pl3     1 <0>        -0.8185
     20 N4         -3.1887    3.6486   -2.2267 N.pl3     1 <0>        -0.8146
     21 C14       -14.0888    4.1089   -0.0851 C.2       1 <0>         0.5522
     22 O2        -14.6370    4.2028   -1.1659 O.2       1 <0>        -0.5515
     23 N5        -14.7242    4.5184    1.0307 N.am      1 <0>        -0.6827
     24 C15       -16.0758    5.0765    0.9409 C.3       1 <0>         0.0994
     25 H2        -16.6284    4.5653    0.1526 H         1 <0>         0.0863
     26 C16       -16.7969    4.8839    2.2765 C.3       1 <0>        -0.0864
     27 C17       -16.9928    3.3894    2.5394 C.3       1 <0>        -0.1532
     28 C18       -17.7030    3.1997    3.8549 C.2       1 <0>         0.4615
     29 O3        -18.0200    4.1611    4.5145 O.co2     1 <0>        -0.6385
     30 C19       -15.9918    6.5472    0.6229 C.2       1 <0>         0.4650
     31 O4        -14.9136    7.0750    0.4854 O.co2     1 <0>        -0.6391
     32 H3        -10.3331    2.8159    2.2821 H         1 <0>         0.1246
     33 H4        -12.5986    3.7630    2.1414 H         1 <0>         0.1290
     34 H5        -12.5475    3.2031   -2.1103 H         1 <0>         0.1334
     35 H6        -10.2790    2.2664   -1.9484 H         1 <0>         0.1217
     36 H7         -8.6330    1.1902   -0.5326 H         1 <0>         0.0705
     37 H8         -8.6539    1.4234    1.2319 H         1 <0>         0.0734
     38 H9         -7.9002    3.7665    0.9312 H         1 <0>         0.0759
     39 H10        -7.8793    3.5333   -0.8333 H         1 <0>         0.0727
     40 H11        -6.1944    1.7324   -0.5754 H         1 <0>         0.0718
     41 H12        -6.2153    1.9656    1.1891 H         1 <0>         0.0851
     42 H13         0.5644    1.0569   -0.8649 H         1 <0>         0.4287
     43 H14         0.3432    0.5509    0.7219 H         1 <0>         0.4166
     44 H15        -2.5963    3.7238   -2.9910 H         1 <0>         0.4054
     45 H16        -4.0719    4.0485   -2.2564 H         1 <0>         0.4241
     46 H17       -14.2867    4.4435    1.8931 H         1 <0>         0.3915
     47 H18       -16.1995    5.3185    3.0779 H         1 <0>         0.0575
     48 H19       -17.7684    5.3767    2.2393 H         1 <0>         0.0852
     49 H20       -17.5902    2.9548    1.7380 H         1 <0>         0.0607
     50 H21       -16.0212    2.8966    2.5766 H         1 <0>         0.0574
     51 O5        -17.9835    1.9626    4.2939 O.co2     1 <0>        -0.7907
     52 O6        -17.1148    7.2708    0.4925 O.co2     1 <0>        -0.7689
@<TRIPOS>BOND
     1    1    6 ar
     2    1    2 ar
     3    1   32 1
     4    2    3 ar
     5    2   33 1
     6    3    4 ar
     7    3   21 1
     8    4    5 ar
     9    4   34 1
    10    5    6 ar
    11    5   35 1
    12    6    7 1
    13    7    8 1
    14    7   36 1
    15    7   37 1
    16    8    9 1
    17    8   38 1
    18    8   39 1
    19    9   10 1
    20    9   40 1
    21    9   41 1
    22   10   11 1
    23   11   17 1
    24   11   12 2
    25   12   13 1
    26   12   20 1
    27   13   14 2
    28   14   15 1
    29   14   19 1
    30   15   16 1
    31   15   17 am
    32   17   18 2
    33   19   42 1
    34   19   43 1
    35   20   44 1
    36   20   45 1
    37   21   22 2
    38   21   23 am
    39   23   24 1
    40   23   46 1
    41   24   25 1
    42   24   26 1
    43   24   30 1
    44   26   27 1
    45   26   47 1
    46   26   48 1
    47   27   28 1
    48   27   49 1
    49   27   50 1
    50   28   29 2
    51   28   51 1
    52   30   31 2
    53   30   52 1
@<TRIPOS>MOLECULE
ZINC03807018
   52    53     0     0     0
SMALL
USER_CHARGES

@<TRIPOS>ATOM
      1 C1        -10.8219    2.9047    1.3232 C.ar      1 <0>        -0.1223
      2 C2        -12.0926    3.4361    1.2450 C.ar      1 <0>        -0.0824
      3 C3        -12.7248    3.5456    0.0055 C.ar      1 <0>        -0.1112
      4 C4        -12.0639    3.1207   -1.1481 C.ar      1 <0>        -0.0637
      5 C5        -10.7915    2.5956   -1.0566 C.ar      1 <0>        -0.1277
      6 C6        -10.1703    2.4902    0.1752 C.ar      1 <0>        -0.0757
      7 C7         -8.7802    1.9156    0.2676 C.3       1 <0>        -0.0703
      8 C8         -7.7529    3.0412    0.1310 C.3       1 <0>        -0.0978
      9 C9         -6.3416    2.4578    0.2248 C.3       1 <0>        -0.1041
     10 S1         -5.1237    3.7923    0.0629 S.3       1 <0>        -0.0914
     11 C10        -3.5737    2.9547    0.0430 C.2       1 <0>        -0.4303
     12 C11        -2.7737    2.9703   -1.0934 C.2       1 <0>         0.5304
     13 N1         -1.5998    2.3268   -1.0869 N.2       1 <0>        -0.6255
     14 C12        -1.1849    1.6763   -0.0217 C.2       1 <0>         0.6774
     15 N2         -1.9319    1.6250    1.1148 N.am      1 <0>        -0.6638
     16 H1         -1.5978    1.1167    1.9086 H         1 <0>         0.4165
     17 C13        -3.1222    2.2582    1.1734 C.2       1 <0>         0.5650
     18 O1         -3.7964    2.2216    2.1914 O.2       1 <0>        -0.5287
     19 N3          0.0251    1.0305   -0.0590 N.pl3     1 <0>        -0.8185
     20 N4         -3.1887    3.6486   -2.2267 N.pl3     1 <0>        -0.8146
     21 C14       -14.0888    4.1089   -0.0851 C.2       1 <0>         0.5522
     22 O2        -14.6370    4.2028   -1.1659 O.2       1 <0>        -0.5515
     23 N5        -14.7242    4.5184    1.0307 N.am      1 <0>        -0.6827
     24 C15       -16.0758    5.0765    0.9409 C.3       1 <0>         0.0994
     25 H2        -16.6284    4.5653    0.1526 H         1 <0>         0.0863
     26 C16       -16.7969    4.8839    2.2765 C.3       1 <0>        -0.0864
     27 C17       -16.9928    3.3894    2.5394 C.3       1 <0>        -0.1532
     28 C18       -17.7030    3.1997    3.8549 C.2       1 <0>         0.4615
     29 O3        -18.0200    4.1611    4.5145 O.co2     1 <0>        -0.6385
     30 C19       -15.9918    6.5472    0.6229 C.2       1 <0>         0.4650
     31 O4        -14.9136    7.0750    0.4854 O.co2     1 <0>        -0.6391
     32 H3        -10.3331    2.8159    2.2821 H         1 <0>         0.1246
     33 H4        -12.5986    3.7630    2.1414 H         1 <0>         0.1290
     34 H5        -12.5475    3.2031   -2.1103 H         1 <0>         0.1334
     35 H6        -10.2790    2.2664   -1.9484 H         1 <0>         0.1217
     36 H7         -8.6330    1.1902   -0.5326 H         1 <0>         0.0705
     37 H8         -8.6539    1.4234    1.2319 H         1 <0>         0.0734
     38 H9         -7.9002    3.7665    0.9312 H         1 <0>         0.0759
     39 H10        -7.8793    3.5333   -0.8333 H         1 <0>         0.0727
     40 H11        -6.1944    1.7324   -0.5754 H         1 <0>         0.0718
     41 H12        -6.2153    1.9656    1.1891 H         1 <0>         0.0851
     42 H13         0.5644    1.0569   -0.8649 H         1 <0>         0.4287
     43 H14         0.3432    0.5509    0.7219 H         1 <0>         0.4166
     44 H15        -2.5963    3.7238   -2.9910 H         1 <0>         0.4054
     45 H16        -4.0719    4.0485   -2.2564 H         1 <0>         0.4241
     46 H17       -14.2867    4.4435    1.8931 H         1 <0>         0.3915
     47 H18       -16.1995    5.3185    3.0779 H         1 <0>         0.0575
     48 H19       -17.7684    5.3767    2.2393 H         1 <0>         0.0852
     49 H20       -17.5902    2.9548    1.7380 H         1 <0>         0.0607
     50 H21       -16.0212    2.8966    2.5766 H         1 <0>         0.0574
     51 O5        -17.9835    1.9626    4.2939 O.co2     1 <0>        -0.7907
     52 O6        -17.1148    7.2708    0.4925 O.co2     1 <0>        -0.7689
@<TRIPOS>BOND
     1    1    6 ar
     2    1    2 ar
     3    1   32 1
     4    2    3 ar
     5    2   33 1
     6    3    4 ar
     7    3   21 1
     8    4    5 ar
     9    4   34 1
    10    5    6 ar
    11    5   35 1
    12    6    7 1
    13    7    8 1
    14    7   36 1
    15    7   37 1
    16    8    9 1
    17    8   38 1
    18    8   39 1
    19    9   10 1
    20    9   40 1
    21    9   41 1
    22   10   11 1
    23   11   17 1
    24   11   12 2
    25   12   13 1
    26   12   20 1
    27   13   14 2
    28   14   15 1
    29   14   19 1
    30   15   16 1
    31   15   17 am
    32   17   18 2
    33   19   42 1
    34   19   43 1
    35   20   44 1
    36   20   45 1
    37   21   22 2
    38   21   23 am
    39   23   24 1
    40   23   46 1
    41   24   25 1
    42   24   26 1
    43   24   30 1
    44   26   27 1
    45   26   47 1
    46   26   48 1
    47   27   28 1
    48   27   49 1
    49   27   50 1
    50   28   29 2
    51   28   51 1
    52   30   31 2
    53   30   52 1
@<TRIPOS>MOLECULE
ZINC03807027
   49    50     0     0     0
SMALL
USER_CHARGES

@<TRIPOS>ATOM
      1 C1        -10.9364    2.6725   -0.9322 C.2       1 <0>        -0.1666
      2 C2        -12.1890    3.2175   -0.7982 C.2       1 <0>        -0.0992
      3 C3        -12.5980    3.5524    0.4831 C.2       1 <0>        -0.1919
      4 S1        -11.1825    3.0717    1.4569 S.3       1 <0>         0.1482
      5 C4        -10.1703    2.4902    0.1752 C.2       1 <0>        -0.1814
      6 C5         -8.7802    1.9155    0.2676 C.3       1 <0>        -0.0242
      7 C6         -7.7529    3.0411    0.1310 C.3       1 <0>        -0.0996
      8 C7         -6.3416    2.4578    0.2248 C.3       1 <0>        -0.1053
      9 S2         -5.1237    3.7923    0.0629 S.3       1 <0>        -0.0885
     10 C8         -3.5737    2.9547    0.0430 C.2       1 <0>        -0.4300
     11 C9         -2.7737    2.9703   -1.0934 C.2       1 <0>         0.5303
     12 N1         -1.5998    2.3268   -1.0869 N.2       1 <0>        -0.6260
     13 C10        -1.1849    1.6763   -0.0217 C.2       1 <0>         0.6777
     14 N2         -1.9319    1.6250    1.1148 N.am      1 <0>        -0.6636
     15 H1         -1.5978    1.1167    1.9086 H         1 <0>         0.4169
     16 C11        -3.1222    2.2582    1.1734 C.2       1 <0>         0.5644
     17 O1         -3.7964    2.2216    2.1914 O.2       1 <0>        -0.5266
     18 N3          0.0251    1.0305   -0.0590 N.pl3     1 <0>        -0.8185
     19 N4         -3.1887    3.6486   -2.2267 N.pl3     1 <0>        -0.8152
     20 C12       -13.8654    4.1425    0.9238 C.2       1 <0>         0.5955
     21 O2        -14.7308    4.4038    0.1091 O.2       1 <0>        -0.5381
     22 N5        -14.0722    4.3956    2.2314 N.am      1 <0>        -0.6793
     23 C13       -15.3389    4.9853    2.6719 C.3       1 <0>         0.0995
     24 H2        -16.1514    4.6052    2.0527 H         1 <0>         0.0886
     25 C14       -15.5941    4.6123    4.1336 C.3       1 <0>        -0.0868
     26 C15       -15.7910    3.0992    4.2469 C.3       1 <0>        -0.1541
     27 C16       -16.0423    2.7318    5.6866 C.2       1 <0>         0.4620
     28 O3        -16.0620    3.5918    6.5350 O.co2     1 <0>        -0.6382
     29 C17       -15.2671    6.4849    2.5413 C.2       1 <0>         0.4653
     30 O4        -14.2611    7.0074    2.1232 O.co2     1 <0>        -0.6380
     31 H3        -10.5638    2.3923   -1.9064 H         1 <0>         0.1301
     32 H4        -12.8283    3.3779   -1.6538 H         1 <0>         0.1432
     33 H5         -8.6330    1.1902   -0.5326 H         1 <0>         0.0827
     34 H6         -8.6539    1.4234    1.2319 H         1 <0>         0.0806
     35 H7         -7.9002    3.7665    0.9312 H         1 <0>         0.0787
     36 H8         -7.8793    3.5333   -0.8333 H         1 <0>         0.0749
     37 H9         -6.1944    1.7324   -0.5754 H         1 <0>         0.0730
     38 H10        -6.2153    1.9656    1.1891 H         1 <0>         0.0872
     39 H11         0.5644    1.0569   -0.8649 H         1 <0>         0.4286
     40 H12         0.3432    0.5509    0.7219 H         1 <0>         0.4167
     41 H13        -2.5963    3.7238   -2.9910 H         1 <0>         0.4051
     42 H14        -4.0719    4.0485   -2.2564 H         1 <0>         0.4237
     43 H15       -13.3824    4.1872    2.8807 H         1 <0>         0.3919
     44 H16       -14.7401    4.9139    4.7400 H         1 <0>         0.0586
     45 H17       -16.4896    5.1227    4.4878 H         1 <0>         0.0868
     46 H18       -16.6450    2.7975    3.6405 H         1 <0>         0.0613
     47 H19       -14.8954    2.5887    3.8927 H         1 <0>         0.0574
     48 O5        -16.2444    1.4491    6.0265 O.co2     1 <0>        -0.7904
     49 O6        -16.3207    7.2401    2.8895 O.co2     1 <0>        -0.7671
@<TRIPOS>BOND
     1    1    5 2
     2    1    2 1
     3    1   31 1
     4    2    3 2
     5    2   32 1
     6    3    4 1
     7    3   20 1
     8    4    5 1
     9    5    6 1
    10    6    7 1
    11    6   33 1
    12    6   34 1
    13    7    8 1
    14    7   35 1
    15    7   36 1
    16    8    9 1
    17    8   37 1
    18    8   38 1
    19    9   10 1
    20   10   16 1
    21   10   11 2
    22   11   12 1
    23   11   19 1
    24   12   13 2
    25   13   14 1
    26   13   18 1
    27   14   15 1
    28   14   16 am
    29   16   17 2
    30   18   39 1
    31   18   40 1
    32   19   41 1
    33   19   42 1
    34   20   21 2
    35   20   22 am
    36   22   23 1
    37   22   43 1
    38   23   24 1
    39   23   25 1
    40   23   29 1
    41   25   26 1
    42   25   44 1
    43   25   45 1
    44   26   27 1
    45   26   46 1
    46   26   47 1
    47   27   28 2
    48   27   48 1
    49   29   30 2
    50   29   49 1
@<TRIPOS>MOLECULE
ZINC03807027
   49    50     0     0     0
SMALL
USER_CHARGES

@<TRIPOS>ATOM
      1 C1        -10.9364    2.6725   -0.9322 C.2       1 <0>        -0.1666
      2 C2        -12.1890    3.2175   -0.7982 C.2       1 <0>        -0.0992
      3 C3        -12.5980    3.5524    0.4831 C.2       1 <0>        -0.1919
      4 S1        -11.1825    3.0717    1.4569 S.3       1 <0>         0.1482
      5 C4        -10.1703    2.4902    0.1752 C.2       1 <0>        -0.1814
      6 C5         -8.7802    1.9155    0.2676 C.3       1 <0>        -0.0242
      7 C6         -7.7529    3.0411    0.1310 C.3       1 <0>        -0.0996
      8 C7         -6.3416    2.4578    0.2248 C.3       1 <0>        -0.1053
      9 S2         -5.1237    3.7923    0.0629 S.3       1 <0>        -0.0885
     10 C8         -3.5737    2.9547    0.0430 C.2       1 <0>        -0.4300
     11 C9         -2.7737    2.9703   -1.0934 C.2       1 <0>         0.5303
     12 N1         -1.5998    2.3268   -1.0869 N.2       1 <0>        -0.6260
     13 C10        -1.1849    1.6763   -0.0217 C.2       1 <0>         0.6777
     14 N2         -1.9319    1.6250    1.1148 N.am      1 <0>        -0.6636
     15 H1         -1.5978    1.1167    1.9086 H         1 <0>         0.4169
     16 C11        -3.1222    2.2582    1.1734 C.2       1 <0>         0.5644
     17 O1         -3.7964    2.2216    2.1914 O.2       1 <0>        -0.5266
     18 N3          0.0251    1.0305   -0.0590 N.pl3     1 <0>        -0.8185
     19 N4         -3.1887    3.6486   -2.2267 N.pl3     1 <0>        -0.8152
     20 C12       -13.8654    4.1425    0.9238 C.2       1 <0>         0.5955
     21 O2        -14.7308    4.4038    0.1091 O.2       1 <0>        -0.5381
     22 N5        -14.0722    4.3956    2.2314 N.am      1 <0>        -0.6793
     23 C13       -15.3389    4.9853    2.6719 C.3       1 <0>         0.0995
     24 H2        -16.1514    4.6052    2.0527 H         1 <0>         0.0886
     25 C14       -15.5941    4.6123    4.1336 C.3       1 <0>        -0.0868
     26 C15       -15.7910    3.0992    4.2469 C.3       1 <0>        -0.1541
     27 C16       -16.0423    2.7318    5.6866 C.2       1 <0>         0.4620
     28 O3        -16.0620    3.5918    6.5350 O.co2     1 <0>        -0.6382
     29 C17       -15.2671    6.4849    2.5413 C.2       1 <0>         0.4653
     30 O4        -14.2611    7.0074    2.1232 O.co2     1 <0>        -0.6380
     31 H3        -10.5638    2.3923   -1.9064 H         1 <0>         0.1301
     32 H4        -12.8283    3.3779   -1.6538 H         1 <0>         0.1432
     33 H5         -8.6330    1.1902   -0.5326 H         1 <0>         0.0827
     34 H6         -8.6539    1.4234    1.2319 H         1 <0>         0.0806
     35 H7         -7.9002    3.7665    0.9312 H         1 <0>         0.0787
     36 H8         -7.8793    3.5333   -0.8333 H         1 <0>         0.0749
     37 H9         -6.1944    1.7324   -0.5754 H         1 <0>         0.0730
     38 H10        -6.2153    1.9656    1.1891 H         1 <0>         0.0872
     39 H11         0.5644    1.0569   -0.8649 H         1 <0>         0.4286
     40 H12         0.3432    0.5509    0.7219 H         1 <0>         0.4167
     41 H13        -2.5963    3.7238   -2.9910 H         1 <0>         0.4051
     42 H14        -4.0719    4.0485   -2.2564 H         1 <0>         0.4237
     43 H15       -13.3824    4.1872    2.8807 H         1 <0>         0.3919
     44 H16       -14.7401    4.9139    4.7400 H         1 <0>         0.0586
     45 H17       -16.4896    5.1227    4.4878 H         1 <0>         0.0868
     46 H18       -16.6450    2.7975    3.6405 H         1 <0>         0.0613
     47 H19       -14.8954    2.5887    3.8927 H         1 <0>         0.0574
     48 O5        -16.2444    1.4491    6.0265 O.co2     1 <0>        -0.7904
     49 O6        -16.3207    7.2401    2.8895 O.co2     1 <0>        -0.7671
@<TRIPOS>BOND
     1    1    5 2
     2    1    2 1
     3    1   31 1
     4    2    3 2
     5    2   32 1
     6    3    4 1
     7    3   20 1
     8    4    5 1
     9    5    6 1
    10    6    7 1
    11    6   33 1
    12    6   34 1
    13    7    8 1
    14    7   35 1
    15    7   36 1
    16    8    9 1
    17    8   37 1
    18    8   38 1
    19    9   10 1
    20   10   16 1
    21   10   11 2
    22   11   12 1
    23   11   19 1
    24   12   13 2
    25   13   14 1
    26   13   18 1
    27   14   15 1
    28   14   16 am
    29   16   17 2
    30   18   39 1
    31   18   40 1
    32   19   41 1
    33   19   42 1
    34   20   21 2
    35   20   22 am
    36   22   23 1
    37   22   43 1
    38   23   24 1
    39   23   25 1
    40   23   29 1
    41   25   26 1
    42   25   44 1
    43   25   45 1
    44   26   27 1
    45   26   46 1
    46   26   47 1
    47   27   28 2
    48   27   48 1
    49   29   30 2
    50   29   49 1
@<TRIPOS>MOLECULE
ZINC03807028
   52    53     0     0     0
SMALL
USER_CHARGES

@<TRIPOS>ATOM
      1 C1        -13.0801    3.4436   -1.9924 C.3       1 <0>        -0.1006
      2 C2        -12.1885    3.2188   -0.7984 C.2       1 <0>        -0.0630
      3 C3        -10.9342    2.6776   -0.9329 C.2       1 <0>        -0.1645
      4 C4        -10.1703    2.4902    0.1752 C.2       1 <0>        -0.1776
      5 S1        -11.1793    3.0793    1.4559 S.3       1 <0>         0.1422
      6 C5        -12.5972    3.5544    0.4828 C.2       1 <0>        -0.2007
      7 C6        -13.8640    4.1456    0.9234 C.2       1 <0>         0.5976
      8 O1        -14.7291    4.4079    0.1086 O.2       1 <0>        -0.5356
      9 N1        -14.0709    4.3987    2.2310 N.am      1 <0>        -0.6805
     10 C7        -15.3371    4.9896    2.6713 C.3       1 <0>         0.1005
     11 H1        -16.1498    4.6103    2.0519 H         1 <0>         0.0883
     12 C8        -15.5929    4.6166    4.1329 C.3       1 <0>        -0.0868
     13 C9        -15.7912    3.1037    4.2460 C.3       1 <0>        -0.1538
     14 C10       -16.0431    2.7363    5.6857 C.2       1 <0>         0.4619
     15 O2        -16.0621    3.5963    6.5342 O.co2     1 <0>        -0.6383
     16 C11       -15.2639    6.4891    2.5410 C.2       1 <0>         0.4653
     17 O3        -14.2573    7.0108    2.1231 O.co2     1 <0>        -0.6380
     18 C12        -8.7802    1.9155    0.2676 C.3       1 <0>        -0.0241
     19 C13        -7.7529    3.0411    0.1310 C.3       1 <0>        -0.0995
     20 C14        -6.3416    2.4578    0.2248 C.3       1 <0>        -0.1051
     21 S2         -5.1237    3.7923    0.0629 S.3       1 <0>        -0.0885
     22 C15        -3.5737    2.9547    0.0430 C.2       1 <0>        -0.4300
     23 C16        -2.7737    2.9703   -1.0934 C.2       1 <0>         0.5303
     24 N2         -1.5998    2.3268   -1.0869 N.2       1 <0>        -0.6260
     25 C17        -1.1849    1.6763   -0.0217 C.2       1 <0>         0.6776
     26 N3         -1.9319    1.6250    1.1148 N.am      1 <0>        -0.6636
     27 H2         -1.5978    1.1167    1.9086 H         1 <0>         0.4169
     28 C18        -3.1222    2.2582    1.1734 C.2       1 <0>         0.5644
     29 O4         -3.7964    2.2216    2.1914 O.2       1 <0>        -0.5265
     30 N4          0.0251    1.0305   -0.0590 N.pl3     1 <0>        -0.8185
     31 N5         -3.1887    3.6486   -2.2267 N.pl3     1 <0>        -0.8152
     32 H3        -12.8979    4.4380   -2.3998 H         1 <0>         0.0693
     33 H4        -12.8639    2.6939   -2.7535 H         1 <0>         0.0553
     34 H5        -14.1233    3.3614   -1.6874 H         1 <0>         0.0903
     35 H6        -10.5602    2.4010   -1.9075 H         1 <0>         0.1296
     36 H7        -13.3814    4.1897    2.8804 H         1 <0>         0.3913
     37 H8        -14.7387    4.9174    4.7395 H         1 <0>         0.0582
     38 H9        -16.4880    5.1278    4.4871 H         1 <0>         0.0864
     39 H10       -16.6454    2.8029    3.6394 H         1 <0>         0.0611
     40 H11       -14.8960    2.5924    3.8919 H         1 <0>         0.0573
     41 H12        -8.6330    1.1902   -0.5326 H         1 <0>         0.0826
     42 H13        -8.6539    1.4234    1.2319 H         1 <0>         0.0807
     43 H14        -7.9002    3.7665    0.9312 H         1 <0>         0.0786
     44 H15        -7.8793    3.5333   -0.8333 H         1 <0>         0.0748
     45 H16        -6.1944    1.7324   -0.5754 H         1 <0>         0.0730
     46 H17        -6.2153    1.9656    1.1891 H         1 <0>         0.0871
     47 H18         0.5644    1.0569   -0.8649 H         1 <0>         0.4286
     48 H19         0.3432    0.5509    0.7219 H         1 <0>         0.4167
     49 H20        -2.5963    3.7238   -2.9910 H         1 <0>         0.4051
     50 H21        -4.0719    4.0485   -2.2564 H         1 <0>         0.4237
     51 O5        -16.2465    1.4537    6.0253 O.co2     1 <0>        -0.7905
     52 O6        -16.3169    7.2453    2.8891 O.co2     1 <0>        -0.7677
@<TRIPOS>BOND
     1    1    2 1
     2    1   32 1
     3    1   33 1
     4    1   34 1
     5    2    6 2
     6    2    3 1
     7    3    4 2
     8    3   35 1
     9    4    5 1
    10    4   18 1
    11    5    6 1
    12    6    7 1
    13    7    8 2
    14    7    9 am
    15    9   10 1
    16    9   36 1
    17   10   11 1
    18   10   12 1
    19   10   16 1
    20   12   13 1
    21   12   37 1
    22   12   38 1
    23   13   14 1
    24   13   39 1
    25   13   40 1
    26   14   15 2
    27   14   51 1
    28   16   17 2
    29   16   52 1
    30   18   19 1
    31   18   41 1
    32   18   42 1
    33   19   20 1
    34   19   43 1
    35   19   44 1
    36   20   21 1
    37   20   45 1
    38   20   46 1
    39   21   22 1
    40   22   28 1
    41   22   23 2
    42   23   24 1
    43   23   31 1
    44   24   25 2
    45   25   26 1
    46   25   30 1
    47   26   27 1
    48   26   28 am
    49   28   29 2
    50   30   47 1
    51   30   48 1
    52   31   49 1
    53   31   50 1
@<TRIPOS>MOLECULE
ZINC03807028
   52    53     0     0     0
SMALL
USER_CHARGES

@<TRIPOS>ATOM
      1 C1        -13.0801    3.4436   -1.9924 C.3       1 <0>        -0.1006
      2 C2        -12.1885    3.2188   -0.7984 C.2       1 <0>        -0.0630
      3 C3        -10.9342    2.6776   -0.9329 C.2       1 <0>        -0.1645
      4 C4        -10.1703    2.4902    0.1752 C.2       1 <0>        -0.1776
      5 S1        -11.1793    3.0793    1.4559 S.3       1 <0>         0.1422
      6 C5        -12.5972    3.5544    0.4828 C.2       1 <0>        -0.2007
      7 C6        -13.8640    4.1456    0.9234 C.2       1 <0>         0.5976
      8 O1        -14.7291    4.4079    0.1086 O.2       1 <0>        -0.5356
      9 N1        -14.0709    4.3987    2.2310 N.am      1 <0>        -0.6805
     10 C7        -15.3371    4.9896    2.6713 C.3       1 <0>         0.1005
     11 H1        -16.1498    4.6103    2.0519 H         1 <0>         0.0883
     12 C8        -15.5929    4.6166    4.1329 C.3       1 <0>        -0.0868
     13 C9        -15.7912    3.1037    4.2460 C.3       1 <0>        -0.1538
     14 C10       -16.0431    2.7363    5.6857 C.2       1 <0>         0.4619
     15 O2        -16.0621    3.5963    6.5342 O.co2     1 <0>        -0.6383
     16 C11       -15.2639    6.4891    2.5410 C.2       1 <0>         0.4653
     17 O3        -14.2573    7.0108    2.1231 O.co2     1 <0>        -0.6380
     18 C12        -8.7802    1.9155    0.2676 C.3       1 <0>        -0.0241
     19 C13        -7.7529    3.0411    0.1310 C.3       1 <0>        -0.0995
     20 C14        -6.3416    2.4578    0.2248 C.3       1 <0>        -0.1051
     21 S2         -5.1237    3.7923    0.0629 S.3       1 <0>        -0.0885
     22 C15        -3.5737    2.9547    0.0430 C.2       1 <0>        -0.4300
     23 C16        -2.7737    2.9703   -1.0934 C.2       1 <0>         0.5303
     24 N2         -1.5998    2.3268   -1.0869 N.2       1 <0>        -0.6260
     25 C17        -1.1849    1.6763   -0.0217 C.2       1 <0>         0.6776
     26 N3         -1.9319    1.6250    1.1148 N.am      1 <0>        -0.6636
     27 H2         -1.5978    1.1167    1.9086 H         1 <0>         0.4169
     28 C18        -3.1222    2.2582    1.1734 C.2       1 <0>         0.5644
     29 O4         -3.7964    2.2216    2.1914 O.2       1 <0>        -0.5265
     30 N4          0.0251    1.0305   -0.0590 N.pl3     1 <0>        -0.8185
     31 N5         -3.1887    3.6486   -2.2267 N.pl3     1 <0>        -0.8152
     32 H3        -12.8979    4.4380   -2.3998 H         1 <0>         0.0693
     33 H4        -12.8639    2.6939   -2.7535 H         1 <0>         0.0553
     34 H5        -14.1233    3.3614   -1.6874 H         1 <0>         0.0903
     35 H6        -10.5602    2.4010   -1.9075 H         1 <0>         0.1296
     36 H7        -13.3814    4.1897    2.8804 H         1 <0>         0.3913
     37 H8        -14.7387    4.9174    4.7395 H         1 <0>         0.0582
     38 H9        -16.4880    5.1278    4.4871 H         1 <0>         0.0864
     39 H10       -16.6454    2.8029    3.6394 H         1 <0>         0.0611
     40 H11       -14.8960    2.5924    3.8919 H         1 <0>         0.0573
     41 H12        -8.6330    1.1902   -0.5326 H         1 <0>         0.0826
     42 H13        -8.6539    1.4234    1.2319 H         1 <0>         0.0807
     43 H14        -7.9002    3.7665    0.9312 H         1 <0>         0.0786
     44 H15        -7.8793    3.5333   -0.8333 H         1 <0>         0.0748
     45 H16        -6.1944    1.7324   -0.5754 H         1 <0>         0.0730
     46 H17        -6.2153    1.9656    1.1891 H         1 <0>         0.0871
     47 H18         0.5644    1.0569   -0.8649 H         1 <0>         0.4286
     48 H19         0.3432    0.5509    0.7219 H         1 <0>         0.4167
     49 H20        -2.5963    3.7238   -2.9910 H         1 <0>         0.4051
     50 H21        -4.0719    4.0485   -2.2564 H         1 <0>         0.4237
     51 O5        -16.2465    1.4537    6.0253 O.co2     1 <0>        -0.7905
     52 O6        -16.3169    7.2453    2.8891 O.co2     1 <0>        -0.7677
@<TRIPOS>BOND
     1    1    2 1
     2    1   32 1
     3    1   33 1
     4    1   34 1
     5    2    6 2
     6    2    3 1
     7    3    4 2
     8    3   35 1
     9    4    5 1
    10    4   18 1
    11    5    6 1
    12    6    7 1
    13    7    8 2
    14    7    9 am
    15    9   10 1
    16    9   36 1
    17   10   11 1
    18   10   12 1
    19   10   16 1
    20   12   13 1
    21   12   37 1
    22   12   38 1
    23   13   14 1
    24   13   39 1
    25   13   40 1
    26   14   15 2
    27   14   51 1
    28   16   17 2
    29   16   52 1
    30   18   19 1
    31   18   41 1
    32   18   42 1
    33   19   20 1
    34   19   43 1
    35   19   44 1
    36   20   21 1
    37   20   45 1
    38   20   46 1
    39   21   22 1
    40   22   28 1
    41   22   23 2
    42   23   24 1
    43   23   31 1
    44   24   25 2
    45   25   26 1
    46   25   30 1
    47   26   27 1
    48   26   28 am
    49   28   29 2
    50   30   47 1
    51   30   48 1
    52   31   49 1
    53   31   50 1
@<TRIPOS>MOLECULE
ZINC03807030
   52    53     0     0     0
SMALL
USER_CHARGES

@<TRIPOS>ATOM
      1 C1        -10.4165    2.2815   -2.2916 C.3       1 <0>        -0.0909
      2 C2        -10.9364    2.6725   -0.9322 C.2       1 <0>        -0.1363
      3 C3        -12.1890    3.2175   -0.7982 C.2       1 <0>        -0.0953
      4 C4        -12.5980    3.5524    0.4831 C.2       1 <0>        -0.1894
      5 S1        -11.1825    3.0717    1.4569 S.3       1 <0>         0.1451
      6 C5        -10.1703    2.4902    0.1752 C.2       1 <0>        -0.1828
      7 C6         -8.7802    1.9155    0.2676 C.3       1 <0>        -0.0230
      8 C7         -7.7529    3.0411    0.1310 C.3       1 <0>        -0.0993
      9 C8         -6.3416    2.4578    0.2248 C.3       1 <0>        -0.1049
     10 S2         -5.1237    3.7923    0.0629 S.3       1 <0>        -0.0885
     11 C9         -3.5737    2.9547    0.0430 C.2       1 <0>        -0.4299
     12 C10        -2.7737    2.9703   -1.0934 C.2       1 <0>         0.5302
     13 N1         -1.5998    2.3268   -1.0869 N.2       1 <0>        -0.6260
     14 C11        -1.1849    1.6763   -0.0217 C.2       1 <0>         0.6776
     15 N2         -1.9319    1.6250    1.1148 N.am      1 <0>        -0.6636
     16 H1         -1.5978    1.1167    1.9086 H         1 <0>         0.4168
     17 C12        -3.1222    2.2582    1.1734 C.2       1 <0>         0.5644
     18 O1         -3.7964    2.2216    2.1914 O.2       1 <0>        -0.5265
     19 N3          0.0251    1.0305   -0.0590 N.pl3     1 <0>        -0.8186
     20 N4         -3.1887    3.6486   -2.2267 N.pl3     1 <0>        -0.8152
     21 C13       -13.8654    4.1425    0.9238 C.2       1 <0>         0.5958
     22 O2        -14.7308    4.4038    0.1091 O.2       1 <0>        -0.5380
     23 N5        -14.0722    4.3956    2.2314 N.am      1 <0>        -0.6792
     24 C14       -15.3389    4.9853    2.6719 C.3       1 <0>         0.0996
     25 H2        -16.1514    4.6052    2.0527 H         1 <0>         0.0885
     26 C15       -15.5941    4.6123    4.1336 C.3       1 <0>        -0.0867
     27 C16       -15.7910    3.0992    4.2469 C.3       1 <0>        -0.1541
     28 C17       -16.0423    2.7318    5.6866 C.2       1 <0>         0.4620
     29 O3        -16.0620    3.5918    6.5350 O.co2     1 <0>        -0.6382
     30 C18       -15.2671    6.4849    2.5413 C.2       1 <0>         0.4653
     31 O4        -14.2611    7.0074    2.1232 O.co2     1 <0>        -0.6379
     32 H3        -10.6873    1.2465   -2.5002 H         1 <0>         0.0631
     33 H4        -10.8548    2.9314   -3.0490 H         1 <0>         0.0630
     34 H5         -9.3315    2.3837   -2.3089 H         1 <0>         0.0621
     35 H6        -12.8280    3.3786   -1.6539 H         1 <0>         0.1428
     36 H7         -8.6330    1.1902   -0.5326 H         1 <0>         0.0826
     37 H8         -8.6539    1.4234    1.2319 H         1 <0>         0.0800
     38 H9         -7.9002    3.7665    0.9312 H         1 <0>         0.0785
     39 H10        -7.8793    3.5333   -0.8333 H         1 <0>         0.0747
     40 H11        -6.1944    1.7324   -0.5754 H         1 <0>         0.0729
     41 H12        -6.2153    1.9656    1.1891 H         1 <0>         0.0870
     42 H13         0.5644    1.0569   -0.8649 H         1 <0>         0.4286
     43 H14         0.3432    0.5509    0.7219 H         1 <0>         0.4167
     44 H15        -2.5963    3.7238   -2.9910 H         1 <0>         0.4051
     45 H16        -4.0719    4.0485   -2.2564 H         1 <0>         0.4237
     46 H17       -13.3824    4.1872    2.8807 H         1 <0>         0.3918
     47 H18       -14.7401    4.9139    4.7400 H         1 <0>         0.0585
     48 H19       -16.4896    5.1227    4.4878 H         1 <0>         0.0868
     49 H20       -16.6450    2.7975    3.6405 H         1 <0>         0.0612
     50 H21       -14.8954    2.5887    3.8927 H         1 <0>         0.0574
     51 O5        -16.2444    1.4491    6.0265 O.co2     1 <0>        -0.7904
     52 O6        -16.3207    7.2401    2.8895 O.co2     1 <0>        -0.7671
@<TRIPOS>BOND
     1    1    2 1
     2    1   32 1
     3    1   33 1
     4    1   34 1
     5    2    6 2
     6    2    3 1
     7    3    4 2
     8    3   35 1
     9    4    5 1
    10    4   21 1
    11    5    6 1
    12    6    7 1
    13    7    8 1
    14    7   36 1
    15    7   37 1
    16    8    9 1
    17    8   38 1
    18    8   39 1
    19    9   10 1
    20    9   40 1
    21    9   41 1
    22   10   11 1
    23   11   17 1
    24   11   12 2
    25   12   13 1
    26   12   20 1
    27   13   14 2
    28   14   15 1
    29   14   19 1
    30   15   16 1
    31   15   17 am
    32   17   18 2
    33   19   42 1
    34   19   43 1
    35   20   44 1
    36   20   45 1
    37   21   22 2
    38   21   23 am
    39   23   24 1
    40   23   46 1
    41   24   25 1
    42   24   26 1
    43   24   30 1
    44   26   27 1
    45   26   47 1
    46   26   48 1
    47   27   28 1
    48   27   49 1
    49   27   50 1
    50   28   29 2
    51   28   51 1
    52   30   31 2
    53   30   52 1
@<TRIPOS>MOLECULE
ZINC03807030
   52    53     0     0     0
SMALL
USER_CHARGES

@<TRIPOS>ATOM
      1 C1        -10.4165    2.2815   -2.2916 C.3       1 <0>        -0.0909
      2 C2        -10.9364    2.6725   -0.9322 C.2       1 <0>        -0.1363
      3 C3        -12.1890    3.2175   -0.7982 C.2       1 <0>        -0.0953
      4 C4        -12.5980    3.5524    0.4831 C.2       1 <0>        -0.1894
      5 S1        -11.1825    3.0717    1.4569 S.3       1 <0>         0.1451
      6 C5        -10.1703    2.4902    0.1752 C.2       1 <0>        -0.1828
      7 C6         -8.7802    1.9155    0.2676 C.3       1 <0>        -0.0230
      8 C7         -7.7529    3.0411    0.1310 C.3       1 <0>        -0.0993
      9 C8         -6.3416    2.4578    0.2248 C.3       1 <0>        -0.1049
     10 S2         -5.1237    3.7923    0.0629 S.3       1 <0>        -0.0885
     11 C9         -3.5737    2.9547    0.0430 C.2       1 <0>        -0.4299
     12 C10        -2.7737    2.9703   -1.0934 C.2       1 <0>         0.5302
     13 N1         -1.5998    2.3268   -1.0869 N.2       1 <0>        -0.6260
     14 C11        -1.1849    1.6763   -0.0217 C.2       1 <0>         0.6776
     15 N2         -1.9319    1.6250    1.1148 N.am      1 <0>        -0.6636
     16 H1         -1.5978    1.1167    1.9086 H         1 <0>         0.4168
     17 C12        -3.1222    2.2582    1.1734 C.2       1 <0>         0.5644
     18 O1         -3.7964    2.2216    2.1914 O.2       1 <0>        -0.5265
     19 N3          0.0251    1.0305   -0.0590 N.pl3     1 <0>        -0.8186
     20 N4         -3.1887    3.6486   -2.2267 N.pl3     1 <0>        -0.8152
     21 C13       -13.8654    4.1425    0.9238 C.2       1 <0>         0.5958
     22 O2        -14.7308    4.4038    0.1091 O.2       1 <0>        -0.5380
     23 N5        -14.0722    4.3956    2.2314 N.am      1 <0>        -0.6792
     24 C14       -15.3389    4.9853    2.6719 C.3       1 <0>         0.0996
     25 H2        -16.1514    4.6052    2.0527 H         1 <0>         0.0885
     26 C15       -15.5941    4.6123    4.1336 C.3       1 <0>        -0.0867
     27 C16       -15.7910    3.0992    4.2469 C.3       1 <0>        -0.1541
     28 C17       -16.0423    2.7318    5.6866 C.2       1 <0>         0.4620
     29 O3        -16.0620    3.5918    6.5350 O.co2     1 <0>        -0.6382
     30 C18       -15.2671    6.4849    2.5413 C.2       1 <0>         0.4653
     31 O4        -14.2611    7.0074    2.1232 O.co2     1 <0>        -0.6379
     32 H3        -10.6873    1.2465   -2.5002 H         1 <0>         0.0631
     33 H4        -10.8548    2.9314   -3.0490 H         1 <0>         0.0630
     34 H5         -9.3315    2.3837   -2.3089 H         1 <0>         0.0621
     35 H6        -12.8280    3.3786   -1.6539 H         1 <0>         0.1428
     36 H7         -8.6330    1.1902   -0.5326 H         1 <0>         0.0826
     37 H8         -8.6539    1.4234    1.2319 H         1 <0>         0.0800
     38 H9         -7.9002    3.7665    0.9312 H         1 <0>         0.0785
     39 H10        -7.8793    3.5333   -0.8333 H         1 <0>         0.0747
     40 H11        -6.1944    1.7324   -0.5754 H         1 <0>         0.0729
     41 H12        -6.2153    1.9656    1.1891 H         1 <0>         0.0870
     42 H13         0.5644    1.0569   -0.8649 H         1 <0>         0.4286
     43 H14         0.3432    0.5509    0.7219 H         1 <0>         0.4167
     44 H15        -2.5963    3.7238   -2.9910 H         1 <0>         0.4051
     45 H16        -4.0719    4.0485   -2.2564 H         1 <0>         0.4237
     46 H17       -13.3824    4.1872    2.8807 H         1 <0>         0.3918
     47 H18       -14.7401    4.9139    4.7400 H         1 <0>         0.0585
     48 H19       -16.4896    5.1227    4.4878 H         1 <0>         0.0868
     49 H20       -16.6450    2.7975    3.6405 H         1 <0>         0.0612
     50 H21       -14.8954    2.5887    3.8927 H         1 <0>         0.0574
     51 O5        -16.2444    1.4491    6.0265 O.co2     1 <0>        -0.7904
     52 O6        -16.3207    7.2401    2.8895 O.co2     1 <0>        -0.7671
@<TRIPOS>BOND
     1    1    2 1
     2    1   32 1
     3    1   33 1
     4    1   34 1
     5    2    6 2
     6    2    3 1
     7    3    4 2
     8    3   35 1
     9    4    5 1
    10    4   21 1
    11    5    6 1
    12    6    7 1
    13    7    8 1
    14    7   36 1
    15    7   37 1
    16    8    9 1
    17    8   38 1
    18    8   39 1
    19    9   10 1
    20    9   40 1
    21    9   41 1
    22   10   11 1
    23   11   17 1
    24   11   12 2
    25   12   13 1
    26   12   20 1
    27   13   14 2
    28   14   15 1
    29   14   19 1
    30   15   16 1
    31   15   17 am
    32   17   18 2
    33   19   42 1
    34   19   43 1
    35   20   44 1
    36   20   45 1
    37   21   22 2
    38   21   23 am
    39   23   24 1
    40   23   46 1
    41   24   25 1
    42   24   26 1
    43   24   30 1
    44   26   27 1
    45   26   47 1
    46   26   48 1
    47   27   28 1
    48   27   49 1
    49   27   50 1
    50   28   29 2
    51   28   51 1
    52   30   31 2
    53   30   52 1
@<TRIPOS>MOLECULE
ZINC03807036
   46    47     0     0     0
SMALL
USER_CHARGES

@<TRIPOS>ATOM
      1 C1         -9.3448    1.4512    1.3941 C.2       1 <0>        -0.1616
      2 C2        -10.2524    0.4260    1.2972 C.2       1 <0>        -0.0982
      3 C3        -10.5229   -0.0597    0.0275 C.2       1 <0>        -0.1903
      4 S1         -9.4771    0.9684   -0.9885 S.3       1 <0>         0.1446
      5 C4         -8.7649    1.9330    0.2636 C.2       1 <0>        -0.1789
      6 C5         -7.7529    3.0416    0.1299 C.3       1 <0>        -0.0117
      7 C6         -6.3417    2.4581    0.2242 C.3       1 <0>        -0.1039
      8 S2         -5.1236    3.7925    0.0634 S.3       1 <0>        -0.0915
      9 C7         -3.5736    2.9548    0.0441 C.2       1 <0>        -0.4304
     10 C8         -2.7730    2.9707   -1.0919 C.2       1 <0>         0.5338
     11 N1         -1.5988    2.3279   -1.0846 N.2       1 <0>        -0.6250
     12 C9         -1.1841    1.6777   -0.0191 C.2       1 <0>         0.6792
     13 N2         -1.9316    1.6265    1.1172 N.am      1 <0>        -0.6636
     14 H1         -1.5975    1.1190    1.9114 H         1 <0>         0.4170
     15 C10        -3.1224    2.2588    1.1748 C.2       1 <0>         0.5666
     16 O1         -3.7974    2.2216    2.1923 O.2       1 <0>        -0.5302
     17 N3          0.0261    1.0322   -0.0557 N.pl3     1 <0>        -0.8174
     18 N4         -3.1877    3.6486   -2.2255 N.pl3     1 <0>        -0.8136
     19 C11       -11.4348   -1.1341   -0.3759 C.2       1 <0>         0.5955
     20 O2        -12.0808   -1.7317    0.4649 O.2       1 <0>        -0.5371
     21 N5        -11.5579   -1.4603   -1.6778 N.am      1 <0>        -0.6794
     22 C12       -12.4693   -2.5341   -2.0809 C.3       1 <0>         0.0995
     23 H2        -13.3455   -2.5295   -1.4325 H         1 <0>         0.0889
     24 C13       -12.9064   -2.3146   -3.5306 C.3       1 <0>        -0.0865
     25 C14       -13.7292   -1.0282   -3.6260 C.3       1 <0>        -0.1542
     26 C15       -14.1598   -0.8121   -5.0539 C.2       1 <0>         0.4620
     27 O3        -13.8412   -1.6055   -5.9077 O.co2     1 <0>        -0.6387
     28 C16       -11.7648   -3.8612   -1.9640 C.2       1 <0>         0.4654
     29 O4        -10.6190   -3.9054   -1.5831 O.co2     1 <0>        -0.6388
     30 H3         -9.0942    1.8697    2.3577 H         1 <0>         0.1326
     31 H4        -10.7350    0.0160    2.1721 H         1 <0>         0.1443
     32 H5         -7.9005    3.7667    0.9303 H         1 <0>         0.0918
     33 H6         -7.8788    3.5341   -0.8343 H         1 <0>         0.0859
     34 H7         -6.1942    1.7330   -0.5761 H         1 <0>         0.0793
     35 H8         -6.2159    1.9656    1.1885 H         1 <0>         0.0903
     36 H9          0.5656    1.0585   -0.8614 H         1 <0>         0.4291
     37 H10         0.3439    0.5529    0.7254 H         1 <0>         0.4167
     38 H11        -2.5949    3.7241   -2.9895 H         1 <0>         0.4061
     39 H12        -4.0712    4.0480   -2.2558 H         1 <0>         0.4237
     40 H13       -11.0430   -0.9840   -2.3478 H         1 <0>         0.3915
     41 H14       -12.0255   -2.2305   -4.1669 H         1 <0>         0.0581
     42 H15       -13.5126   -3.1589   -3.8591 H         1 <0>         0.0868
     43 H16       -14.6102   -1.1124   -2.9897 H         1 <0>         0.0615
     44 H17       -13.1230   -0.1840   -3.2975 H         1 <0>         0.0576
     45 O5        -14.8972    0.2619   -5.3773 O.co2     1 <0>        -0.7899
     46 O6        -12.4103   -4.9940   -2.2831 O.co2     1 <0>        -0.7668
@<TRIPOS>BOND
     1    1    5 2
     2    1    2 1
     3    1   30 1
     4    2    3 2
     5    2   31 1
     6    3    4 1
     7    3   19 1
     8    4    5 1
     9    5    6 1
    10    6    7 1
    11    6   32 1
    12    6   33 1
    13    7    8 1
    14    7   34 1
    15    7   35 1
    16    8    9 1
    17    9   15 1
    18    9   10 2
    19   10   11 1
    20   10   18 1
    21   11   12 2
    22   12   13 1
    23   12   17 1
    24   13   14 1
    25   13   15 am
    26   15   16 2
    27   17   36 1
    28   17   37 1
    29   18   38 1
    30   18   39 1
    31   19   20 2
    32   19   21 am
    33   21   22 1
    34   21   40 1
    35   22   23 1
    36   22   24 1
    37   22   28 1
    38   24   25 1
    39   24   41 1
    40   24   42 1
    41   25   26 1
    42   25   43 1
    43   25   44 1
    44   26   27 2
    45   26   45 1
    46   28   29 2
    47   28   46 1
@<TRIPOS>MOLECULE
ZINC03807036
   46    47     0     0     0
SMALL
USER_CHARGES

@<TRIPOS>ATOM
      1 C1         -9.3448    1.4512    1.3941 C.2       1 <0>        -0.1616
      2 C2        -10.2524    0.4260    1.2972 C.2       1 <0>        -0.0982
      3 C3        -10.5229   -0.0597    0.0275 C.2       1 <0>        -0.1903
      4 S1         -9.4771    0.9684   -0.9885 S.3       1 <0>         0.1446
      5 C4         -8.7649    1.9330    0.2636 C.2       1 <0>        -0.1789
      6 C5         -7.7529    3.0416    0.1299 C.3       1 <0>        -0.0117
      7 C6         -6.3417    2.4581    0.2242 C.3       1 <0>        -0.1039
      8 S2         -5.1236    3.7925    0.0634 S.3       1 <0>        -0.0915
      9 C7         -3.5736    2.9548    0.0441 C.2       1 <0>        -0.4304
     10 C8         -2.7730    2.9707   -1.0919 C.2       1 <0>         0.5338
     11 N1         -1.5988    2.3279   -1.0846 N.2       1 <0>        -0.6250
     12 C9         -1.1841    1.6777   -0.0191 C.2       1 <0>         0.6792
     13 N2         -1.9316    1.6265    1.1172 N.am      1 <0>        -0.6636
     14 H1         -1.5975    1.1190    1.9114 H         1 <0>         0.4170
     15 C10        -3.1224    2.2588    1.1748 C.2       1 <0>         0.5666
     16 O1         -3.7974    2.2216    2.1923 O.2       1 <0>        -0.5302
     17 N3          0.0261    1.0322   -0.0557 N.pl3     1 <0>        -0.8174
     18 N4         -3.1877    3.6486   -2.2255 N.pl3     1 <0>        -0.8136
     19 C11       -11.4348   -1.1341   -0.3759 C.2       1 <0>         0.5955
     20 O2        -12.0808   -1.7317    0.4649 O.2       1 <0>        -0.5371
     21 N5        -11.5579   -1.4603   -1.6778 N.am      1 <0>        -0.6794
     22 C12       -12.4693   -2.5341   -2.0809 C.3       1 <0>         0.0995
     23 H2        -13.3455   -2.5295   -1.4325 H         1 <0>         0.0889
     24 C13       -12.9064   -2.3146   -3.5306 C.3       1 <0>        -0.0865
     25 C14       -13.7292   -1.0282   -3.6260 C.3       1 <0>        -0.1542
     26 C15       -14.1598   -0.8121   -5.0539 C.2       1 <0>         0.4620
     27 O3        -13.8412   -1.6055   -5.9077 O.co2     1 <0>        -0.6387
     28 C16       -11.7648   -3.8612   -1.9640 C.2       1 <0>         0.4654
     29 O4        -10.6190   -3.9054   -1.5831 O.co2     1 <0>        -0.6388
     30 H3         -9.0942    1.8697    2.3577 H         1 <0>         0.1326
     31 H4        -10.7350    0.0160    2.1721 H         1 <0>         0.1443
     32 H5         -7.9005    3.7667    0.9303 H         1 <0>         0.0918
     33 H6         -7.8788    3.5341   -0.8343 H         1 <0>         0.0859
     34 H7         -6.1942    1.7330   -0.5761 H         1 <0>         0.0793
     35 H8         -6.2159    1.9656    1.1885 H         1 <0>         0.0903
     36 H9          0.5656    1.0585   -0.8614 H         1 <0>         0.4291
     37 H10         0.3439    0.5529    0.7254 H         1 <0>         0.4167
     38 H11        -2.5949    3.7241   -2.9895 H         1 <0>         0.4061
     39 H12        -4.0712    4.0480   -2.2558 H         1 <0>         0.4237
     40 H13       -11.0430   -0.9840   -2.3478 H         1 <0>         0.3915
     41 H14       -12.0255   -2.2305   -4.1669 H         1 <0>         0.0581
     42 H15       -13.5126   -3.1589   -3.8591 H         1 <0>         0.0868
     43 H16       -14.6102   -1.1124   -2.9897 H         1 <0>         0.0615
     44 H17       -13.1230   -0.1840   -3.2975 H         1 <0>         0.0576
     45 O5        -14.8972    0.2619   -5.3773 O.co2     1 <0>        -0.7899
     46 O6        -12.4103   -4.9940   -2.2831 O.co2     1 <0>        -0.7668
@<TRIPOS>BOND
     1    1    5 2
     2    1    2 1
     3    1   30 1
     4    2    3 2
     5    2   31 1
     6    3    4 1
     7    3   19 1
     8    4    5 1
     9    5    6 1
    10    6    7 1
    11    6   32 1
    12    6   33 1
    13    7    8 1
    14    7   34 1
    15    7   35 1
    16    8    9 1
    17    9   15 1
    18    9   10 2
    19   10   11 1
    20   10   18 1
    21   11   12 2
    22   12   13 1
    23   12   17 1
    24   13   14 1
    25   13   15 am
    26   15   16 2
    27   17   36 1
    28   17   37 1
    29   18   38 1
    30   18   39 1
    31   19   20 2
    32   19   21 am
    33   21   22 1
    34   21   40 1
    35   22   23 1
    36   22   24 1
    37   22   28 1
    38   24   25 1
    39   24   41 1
    40   24   42 1
    41   25   26 1
    42   25   43 1
    43   25   44 1
    44   26   27 2
    45   26   45 1
    46   28   29 2
    47   28   46 1
@<TRIPOS>MOLECULE
ZINC03807039
   49    50     0     0     0
SMALL
USER_CHARGES

@<TRIPOS>ATOM
      1 C1         -9.2170    1.2734   -0.8655 C.ar      1 <0>        -0.1216
      2 C2        -10.1398    0.2543   -0.7497 C.ar      1 <0>        -0.0840
      3 C3        -10.6249   -0.1039    0.5091 C.ar      1 <0>        -0.1098
      4 C4        -10.1686    0.5691    1.6435 C.ar      1 <0>        -0.0633
      5 C5         -9.2421    1.5831    1.5142 C.ar      1 <0>        -0.1235
      6 C6         -8.7649    1.9330    0.2636 C.ar      1 <0>        -0.0730
      7 C7         -7.7529    3.0416    0.1299 C.3       1 <0>        -0.0582
      8 C8         -6.3417    2.4581    0.2242 C.3       1 <0>        -0.0994
      9 S1         -5.1236    3.7925    0.0634 S.3       1 <0>        -0.0977
     10 C9         -3.5736    2.9548    0.0441 C.2       1 <0>        -0.4287
     11 C10        -2.7730    2.9707   -1.0919 C.2       1 <0>         0.5318
     12 N1         -1.5988    2.3279   -1.0846 N.2       1 <0>        -0.6258
     13 C11        -1.1841    1.6777   -0.0191 C.2       1 <0>         0.6788
     14 N2         -1.9316    1.6265    1.1172 N.am      1 <0>        -0.6634
     15 H1         -1.5975    1.1190    1.9114 H         1 <0>         0.4172
     16 C12        -3.1224    2.2588    1.1748 C.2       1 <0>         0.5655
     17 O1         -3.7974    2.2216    2.1923 O.2       1 <0>        -0.5283
     18 N3          0.0261    1.0322   -0.0557 N.pl3     1 <0>        -0.8177
     19 N4         -3.1877    3.6486   -2.2255 N.pl3     1 <0>        -0.8150
     20 C13       -11.6181   -1.1912    0.6401 C.2       1 <0>         0.5520
     21 O2        -12.0391   -1.5008    1.7376 O.2       1 <0>        -0.5504
     22 N5        -12.0566   -1.8392   -0.4573 N.am      1 <0>        -0.6829
     23 C14       -13.0408   -2.9166   -0.3274 C.3       1 <0>         0.0994
     24 H2        -13.7316   -2.6820    0.4824 H         1 <0>         0.0866
     25 C15       -13.8191   -3.0569   -1.6371 C.3       1 <0>        -0.0862
     26 C16       -14.6381   -1.7880   -1.8822 C.3       1 <0>        -0.1533
     27 C17       -15.4047   -1.9263   -3.1723 C.2       1 <0>         0.4616
     28 O3        -15.3061   -2.9361   -3.8283 O.co2     1 <0>        -0.6388
     29 C18       -12.3314   -4.2109   -0.0234 C.2       1 <0>         0.4651
     30 O4        -11.1273   -4.2314    0.0747 O.co2     1 <0>        -0.6398
     31 H3         -8.8436    1.5541   -1.8393 H         1 <0>         0.1242
     32 H4        -10.4888   -0.2625   -1.6314 H         1 <0>         0.1291
     33 H5        -10.5398    0.2965    2.6204 H         1 <0>         0.1344
     34 H6         -8.8882    2.1047    2.3912 H         1 <0>         0.1243
     35 H7         -7.9005    3.7667    0.9303 H         1 <0>         0.0798
     36 H8         -7.8788    3.5341   -0.8343 H         1 <0>         0.0789
     37 H9         -6.1942    1.7330   -0.5761 H         1 <0>         0.0766
     38 H10        -6.2159    1.9656    1.1885 H         1 <0>         0.0882
     39 H11         0.5656    1.0585   -0.8614 H         1 <0>         0.4288
     40 H12         0.3439    0.5529    0.7254 H         1 <0>         0.4169
     41 H13        -2.5949    3.7241   -2.9895 H         1 <0>         0.4053
     42 H14        -4.0712    4.0480   -2.2558 H         1 <0>         0.4232
     43 H15       -11.7207   -1.5921   -1.3331 H         1 <0>         0.3912
     44 H16       -13.1206   -3.2033   -2.4610 H         1 <0>         0.0572
     45 H17       -14.4887   -3.9146   -1.5718 H         1 <0>         0.0852
     46 H18       -15.3366   -1.6417   -1.0584 H         1 <0>         0.0610
     47 H19       -13.9685   -0.9304   -1.9476 H         1 <0>         0.0575
     48 O5        -16.1970   -0.9276   -3.5925 O.co2     1 <0>        -0.7904
     49 O6        -13.0372   -5.3412    0.1384 O.co2     1 <0>        -0.7688
@<TRIPOS>BOND
     1    1    6 ar
     2    1    2 ar
     3    1   31 1
     4    2    3 ar
     5    2   32 1
     6    3    4 ar
     7    3   20 1
     8    4    5 ar
     9    4   33 1
    10    5    6 ar
    11    5   34 1
    12    6    7 1
    13    7    8 1
    14    7   35 1
    15    7   36 1
    16    8    9 1
    17    8   37 1
    18    8   38 1
    19    9   10 1
    20   10   16 1
    21   10   11 2
    22   11   12 1
    23   11   19 1
    24   12   13 2
    25   13   14 1
    26   13   18 1
    27   14   15 1
    28   14   16 am
    29   16   17 2
    30   18   39 1
    31   18   40 1
    32   19   41 1
    33   19   42 1
    34   20   21 2
    35   20   22 am
    36   22   23 1
    37   22   43 1
    38   23   24 1
    39   23   25 1
    40   23   29 1
    41   25   26 1
    42   25   44 1
    43   25   45 1
    44   26   27 1
    45   26   46 1
    46   26   47 1
    47   27   28 2
    48   27   48 1
    49   29   30 2
    50   29   49 1
@<TRIPOS>MOLECULE
ZINC03807039
   49    50     0     0     0
SMALL
USER_CHARGES

@<TRIPOS>ATOM
      1 C1         -9.2170    1.2734   -0.8655 C.ar      1 <0>        -0.1216
      2 C2        -10.1398    0.2543   -0.7497 C.ar      1 <0>        -0.0840
      3 C3        -10.6249   -0.1039    0.5091 C.ar      1 <0>        -0.1098
      4 C4        -10.1686    0.5691    1.6435 C.ar      1 <0>        -0.0633
      5 C5         -9.2421    1.5831    1.5142 C.ar      1 <0>        -0.1235
      6 C6         -8.7649    1.9330    0.2636 C.ar      1 <0>        -0.0730
      7 C7         -7.7529    3.0416    0.1299 C.3       1 <0>        -0.0582
      8 C8         -6.3417    2.4581    0.2242 C.3       1 <0>        -0.0994
      9 S1         -5.1236    3.7925    0.0634 S.3       1 <0>        -0.0977
     10 C9         -3.5736    2.9548    0.0441 C.2       1 <0>        -0.4287
     11 C10        -2.7730    2.9707   -1.0919 C.2       1 <0>         0.5318
     12 N1         -1.5988    2.3279   -1.0846 N.2       1 <0>        -0.6258
     13 C11        -1.1841    1.6777   -0.0191 C.2       1 <0>         0.6788
     14 N2         -1.9316    1.6265    1.1172 N.am      1 <0>        -0.6634
     15 H1         -1.5975    1.1190    1.9114 H         1 <0>         0.4172
     16 C12        -3.1224    2.2588    1.1748 C.2       1 <0>         0.5655
     17 O1         -3.7974    2.2216    2.1923 O.2       1 <0>        -0.5283
     18 N3          0.0261    1.0322   -0.0557 N.pl3     1 <0>        -0.8177
     19 N4         -3.1877    3.6486   -2.2255 N.pl3     1 <0>        -0.8150
     20 C13       -11.6181   -1.1912    0.6401 C.2       1 <0>         0.5520
     21 O2        -12.0391   -1.5008    1.7376 O.2       1 <0>        -0.5504
     22 N5        -12.0566   -1.8392   -0.4573 N.am      1 <0>        -0.6829
     23 C14       -13.0408   -2.9166   -0.3274 C.3       1 <0>         0.0994
     24 H2        -13.7316   -2.6820    0.4824 H         1 <0>         0.0866
     25 C15       -13.8191   -3.0569   -1.6371 C.3       1 <0>        -0.0862
     26 C16       -14.6381   -1.7880   -1.8822 C.3       1 <0>        -0.1533
     27 C17       -15.4047   -1.9263   -3.1723 C.2       1 <0>         0.4616
     28 O3        -15.3061   -2.9361   -3.8283 O.co2     1 <0>        -0.6388
     29 C18       -12.3314   -4.2109   -0.0234 C.2       1 <0>         0.4651
     30 O4        -11.1273   -4.2314    0.0747 O.co2     1 <0>        -0.6398
     31 H3         -8.8436    1.5541   -1.8393 H         1 <0>         0.1242
     32 H4        -10.4888   -0.2625   -1.6314 H         1 <0>         0.1291
     33 H5        -10.5398    0.2965    2.6204 H         1 <0>         0.1344
     34 H6         -8.8882    2.1047    2.3912 H         1 <0>         0.1243
     35 H7         -7.9005    3.7667    0.9303 H         1 <0>         0.0798
     36 H8         -7.8788    3.5341   -0.8343 H         1 <0>         0.0789
     37 H9         -6.1942    1.7330   -0.5761 H         1 <0>         0.0766
     38 H10        -6.2159    1.9656    1.1885 H         1 <0>         0.0882
     39 H11         0.5656    1.0585   -0.8614 H         1 <0>         0.4288
     40 H12         0.3439    0.5529    0.7254 H         1 <0>         0.4169
     41 H13        -2.5949    3.7241   -2.9895 H         1 <0>         0.4053
     42 H14        -4.0712    4.0480   -2.2558 H         1 <0>         0.4232
     43 H15       -11.7207   -1.5921   -1.3331 H         1 <0>         0.3912
     44 H16       -13.1206   -3.2033   -2.4610 H         1 <0>         0.0572
     45 H17       -14.4887   -3.9146   -1.5718 H         1 <0>         0.0852
     46 H18       -15.3366   -1.6417   -1.0584 H         1 <0>         0.0610
     47 H19       -13.9685   -0.9304   -1.9476 H         1 <0>         0.0575
     48 O5        -16.1970   -0.9276   -3.5925 O.co2     1 <0>        -0.7904
     49 O6        -13.0372   -5.3412    0.1384 O.co2     1 <0>        -0.7688
@<TRIPOS>BOND
     1    1    6 ar
     2    1    2 ar
     3    1   31 1
     4    2    3 ar
     5    2   32 1
     6    3    4 ar
     7    3   20 1
     8    4    5 ar
     9    4   33 1
    10    5    6 ar
    11    5   34 1
    12    6    7 1
    13    7    8 1
    14    7   35 1
    15    7   36 1
    16    8    9 1
    17    8   37 1
    18    8   38 1
    19    9   10 1
    20   10   16 1
    21   10   11 2
    22   11   12 1
    23   11   19 1
    24   12   13 2
    25   13   14 1
    26   13   18 1
    27   14   15 1
    28   14   16 am
    29   16   17 2
    30   18   39 1
    31   18   40 1
    32   19   41 1
    33   19   42 1
    34   20   21 2
    35   20   22 am
    36   22   23 1
    37   22   43 1
    38   23   24 1
    39   23   25 1
    40   23   29 1
    41   25   26 1
    42   25   44 1
    43   25   45 1
    44   26   27 1
    45   26   46 1
    46   26   47 1
    47   27   28 2
    48   27   48 1
    49   29   30 2
    50   29   49 1
@<TRIPOS>MOLECULE
ZINC04617874
   55    57     0     0     0
SMALL
USER_CHARGES

@<TRIPOS>ATOM
      1 C1         -0.2718   -3.2313    2.6493 C.ar      1 <0>        -0.0438
      2 C2         -0.3436   -4.6053    2.6977 C.ar      1 <0>        -0.1584
      3 C3          0.6298   -5.3308    3.3773 C.ar      1 <0>         0.1896
      4 C4          1.6818   -4.6714    4.0051 C.ar      1 <0>        -0.1765
      5 C5          1.7627   -3.2979    3.9557 C.ar      1 <0>        -0.0239
      6 C6          0.7867   -2.5661    3.2740 C.ar      1 <0>        -0.1323
      7 C7          0.8703   -1.0935    3.2189 C.2       1 <0>         0.5561
      8 O1          1.7891   -0.5159    3.7670 O.2       1 <0>        -0.5530
      9 N1         -0.0718   -0.3892    2.5610 N.am      1 <0>        -0.6836
     10 C8          0.0111    1.0724    2.5063 C.3       1 <0>         0.1001
     11 H1          1.0569    1.3753    2.4543 H         1 <0>         0.0861
     12 C9         -0.7288    1.5792    1.2668 C.3       1 <0>        -0.0857
     13 C10        -0.0127    1.0858    0.0080 C.3       1 <0>        -0.1531
     14 C11        -0.7416    1.5850   -1.2129 C.2       1 <0>         0.4620
     15 O2         -1.7322    2.2656   -1.0889 O.co2     1 <0>        -0.6397
     16 C12        -0.6205    1.6580    3.7429 C.2       1 <0>         0.4655
     17 O3         -1.0916    0.9292    4.5836 O.co2     1 <0>        -0.6397
     18 N2          0.5511   -6.7221    3.4289 N.am      1 <0>        -0.5395
     19 C13        -0.5559   -7.4181    2.7683 C.3       1 <0>         0.1063
     20 C14        -0.1627   -7.7494    1.3273 C.3       1 <0>         0.0614
     21 H2          0.6616   -8.4625    1.3289 H         1 <0>         0.0954
     22 C15        -1.3668   -8.3547    0.5926 C.3       1 <0>         0.0935
     23 N3         -0.9297   -8.6818   -0.7744 N.pl3     1 <0>        -0.7123
     24 C16        -0.1213   -7.7661   -1.4342 C.2       1 <0>         0.4279
     25 C17         0.4607   -6.7179   -0.7403 C.2       1 <0>        -0.1896
     26 C18         1.2852   -5.8253   -1.4444 C.2       1 <0>         0.5554
     27 O4          1.8202   -4.8890   -0.8702 O.2       1 <0>        -0.5098
     28 N4          1.4760   -6.0193   -2.7655 N.am      1 <0>        -0.6595
     29 H3          2.0625   -5.3947   -3.2812 H         1 <0>         0.4189
     30 C19         0.8732   -7.0620   -3.3991 C.2       1 <0>         0.6546
     31 N5          0.1005   -7.9039   -2.7478 N.2       1 <0>        -0.6153
     32 N6          1.0752   -7.2384   -4.7447 N.pl3     1 <0>        -0.8244
     33 N7          0.2506   -6.5231    0.6371 N.pl3     1 <0>        -0.5856
     34 C20         1.4934   -7.4264    4.0864 C.2       1 <0>         0.4977
     35 O5          1.4250   -8.6364    4.1312 O.2       1 <0>        -0.5446
     36 H4         -1.0301   -2.6684    2.1254 H         1 <0>         0.1315
     37 H5         -1.1591   -5.1202    2.2117 H         1 <0>         0.1228
     38 H6          2.4356   -5.2375    4.5321 H         1 <0>         0.1270
     39 H7          2.5798   -2.7867    4.4430 H         1 <0>         0.1393
     40 H8         -0.8048   -0.8501    2.1237 H         1 <0>         0.3902
     41 H9         -0.7436    2.6691    1.2728 H         1 <0>         0.0843
     42 H10        -1.7514    1.2020    1.2746 H         1 <0>         0.0565
     43 H11         0.0021   -0.0041    0.0020 H         1 <0>         0.0583
     44 H12         1.0099    1.4631    0.0003 H         1 <0>         0.0606
     45 H13        -0.7775   -8.3402    3.3056 H         1 <0>         0.1026
     46 H14        -1.4381   -6.7779    2.7662 H         1 <0>         0.0904
     47 H15        -1.6956   -9.2599    1.1032 H         1 <0>         0.0930
     48 H16        -2.1814   -7.6313    0.5576 H         1 <0>         0.0691
     49 H17        -1.1982   -9.5106   -1.2008 H         1 <0>         0.4077
     50 H18         0.6501   -7.9781   -5.2061 H         1 <0>         0.4246
     51 H19         1.6432   -6.6233   -5.2345 H         1 <0>         0.4153
     52 H20        -0.4083   -5.7766    0.8004 H         1 <0>         0.3464
     53 H21         2.3095   -6.9133    4.5733 H         1 <0>         0.1403
     54 O6         -0.2903    1.2736   -2.4381 O.co2     1 <0>        -0.7910
     55 O7         -0.6597    2.9892    3.9104 O.co2     1 <0>        -0.7697
@<TRIPOS>BOND
     1    1    6 ar
     2    1    2 ar
     3    1   36 1
     4    2    3 ar
     5    2   37 1
     6    3    4 ar
     7    3   18 1
     8    4    5 ar
     9    4   38 1
    10    5    6 ar
    11    5   39 1
    12    6    7 1
    13    7    8 2
    14    7    9 am
    15    9   10 1
    16    9   40 1
    17   10   11 1
    18   10   12 1
    19   10   16 1
    20   12   13 1
    21   12   41 1
    22   12   42 1
    23   13   14 1
    24   13   43 1
    25   13   44 1
    26   14   15 2
    27   14   54 1
    28   16   17 2
    29   16   55 1
    30   18   19 1
    31   18   34 am
    32   19   20 1
    33   19   45 1
    34   19   46 1
    35   20   21 1
    36   20   33 1
    37   20   22 1
    38   22   23 1
    39   22   47 1
    40   22   48 1
    41   23   24 1
    42   23   49 1
    43   24   31 1
    44   24   25 2
    45   25   26 1
    46   25   33 1
    47   26   27 2
    48   26   28 am
    49   28   29 1
    50   28   30 1
    51   30   31 2
    52   30   32 1
    53   32   50 1
    54   32   51 1
    55   33   52 1
    56   34   35 2
    57   34   53 1
@<TRIPOS>MOLECULE
ZINC04617874
   55    57     0     0     0
SMALL
USER_CHARGES

@<TRIPOS>ATOM
      1 C1         -0.2707   -3.2325    2.6503 C.ar      1 <0>        -0.0428
      2 C2         -0.3422   -4.6066    2.6985 C.ar      1 <0>        -0.1596
      3 C3          0.6315   -5.3320    3.3777 C.ar      1 <0>         0.1869
      4 C4          1.6836   -4.6725    4.0053 C.ar      1 <0>        -0.1751
      5 C5          1.7642   -3.2990    3.9561 C.ar      1 <0>        -0.0230
      6 C6          0.7879   -2.5673    3.2748 C.ar      1 <0>        -0.1299
      7 C7          0.8712   -1.0946    3.2199 C.2       1 <0>         0.5562
      8 O1          1.7900   -0.5170    3.7678 O.2       1 <0>        -0.5525
      9 N1         -0.0712   -0.3904    2.5624 N.am      1 <0>        -0.6831
     10 C8          0.0114    1.0712    2.5079 C.3       1 <0>         0.1000
     11 H1          1.0571    1.3743    2.4557 H         1 <0>         0.0865
     12 C9         -0.7290    1.5781    1.2687 C.3       1 <0>        -0.0853
     13 C10        -0.0132    1.0851    0.0097 C.3       1 <0>        -0.1538
     14 C11        -0.7425    1.5843   -1.2109 C.2       1 <0>         0.4620
     15 O2         -1.7332    2.2647   -1.0865 O.co2     1 <0>        -0.6417
     16 C12        -0.6200    1.6565    3.7448 C.2       1 <0>         0.4659
     17 O3         -1.0907    0.9275    4.5855 O.co2     1 <0>        -0.6404
     18 N2          0.5531   -6.7233    3.4291 N.am      1 <0>        -0.5398
     19 C13        -0.5540   -7.4194    2.7687 C.3       1 <0>         0.1066
     20 C14        -0.1612   -7.7504    1.3275 C.3       1 <0>         0.0535
     21 H2          0.6632   -8.4633    1.3287 H         1 <0>         0.0971
     22 C15        -1.3654   -8.3558    0.5930 C.3       1 <0>         0.0996
     23 N3         -0.9286   -8.6826   -0.7741 N.pl3     1 <0>        -0.7362
     24 C16        -0.1206   -7.7666   -1.4340 C.2       1 <0>         0.3605
     25 C17         0.4614   -6.7184   -0.7401 C.2       1 <0>        -0.1263
     26 C18         1.2860   -5.8259   -1.4442 C.2       1 <0>         0.5336
     27 O4          1.8210   -4.8896   -0.8700 O.2       1 <0>        -0.4939
     28 N4          1.4775   -6.0204   -2.7651 N.2       1 <0>        -0.6171
     29 H3         -0.3277   -8.6607   -3.2417 H         1 <0>         0.4118
     30 C19         0.8747   -7.0630   -3.3987 C.2       1 <0>         0.6330
     31 N5          0.1016   -7.9047   -2.7475 N.pl3     1 <0>        -0.6102
     32 N6          1.0774   -7.2400   -4.7442 N.pl3     1 <0>        -0.8248
     33 N7          0.2517   -6.5239    0.6374 N.pl3     1 <0>        -0.5816
     34 C20         1.4957   -7.4276    4.0862 C.2       1 <0>         0.4986
     35 O5          1.4275   -8.6376    4.1308 O.2       1 <0>        -0.5461
     36 H4         -1.0293   -2.6697    2.1267 H         1 <0>         0.1322
     37 H5         -1.1578   -5.1215    2.2126 H         1 <0>         0.1213
     38 H6          2.4376   -5.2386    4.5320 H         1 <0>         0.1273
     39 H7          2.5813   -2.7877    4.4432 H         1 <0>         0.1401
     40 H8         -0.8043   -0.8513    2.1253 H         1 <0>         0.3902
     41 H9         -0.7440    2.6680    1.2749 H         1 <0>         0.0840
     42 H10        -1.7515    1.2007    1.2768 H         1 <0>         0.0561
     43 H11         0.0018   -0.0048    0.0035 H         1 <0>         0.0592
     44 H12         1.0094    1.4625    0.0017 H         1 <0>         0.0610
     45 H13        -0.7753   -8.3416    3.3059 H         1 <0>         0.1028
     46 H14        -1.4363   -6.7794    2.7669 H         1 <0>         0.0911
     47 H15        -1.6939   -9.2611    1.1036 H         1 <0>         0.0957
     48 H16        -2.1801   -7.6325    0.5584 H         1 <0>         0.0719
     49 H17        -1.1971   -9.5113   -1.2006 H         1 <0>         0.4025
     50 H18         0.6523   -7.9797   -5.2056 H         1 <0>         0.4066
     51 H19         1.6459   -6.6253   -5.2338 H         1 <0>         0.4320
     52 H20        -0.4073   -5.7775    0.8010 H         1 <0>         0.3548
     53 H21         2.3118   -6.9144    4.5729 H         1 <0>         0.1414
     54 O6         -0.2915    1.2732   -2.4363 O.co2     1 <0>        -0.7888
     55 O7         -0.6593    2.9877    3.9126 O.co2     1 <0>        -0.7699
@<TRIPOS>BOND
     1    1    6 ar
     2    1    2 ar
     3    1   36 1
     4    2    3 ar
     5    2   37 1
     6    3    4 ar
     7    3   18 1
     8    4    5 ar
     9    4   38 1
    10    5    6 ar
    11    5   39 1
    12    6    7 1
    13    7    8 2
    14    7    9 am
    15    9   10 1
    16    9   40 1
    17   10   11 1
    18   10   12 1
    19   10   16 1
    20   12   13 1
    21   12   41 1
    22   12   42 1
    23   13   14 1
    24   13   43 1
    25   13   44 1
    26   14   15 2
    27   14   54 1
    28   16   17 2
    29   16   55 1
    30   18   19 1
    31   18   34 am
    32   19   20 1
    33   19   45 1
    34   19   46 1
    35   20   21 1
    36   20   33 1
    37   20   22 1
    38   22   23 1
    39   22   47 1
    40   22   48 1
    41   23   24 1
    42   23   49 1
    43   24   25 2
    44   24   31 1
    45   25   33 1
    46   25   26 1
    47   26   28 1
    48   26   27 2
    49   28   30 2
    50   29   31 1
    51   30   32 1
    52   30   31 1
    53   32   50 1
    54   32   51 1
    55   33   52 1
    56   34   35 2
    57   34   53 1
@<TRIPOS>MOLECULE
ZINC04617875
   54    55     0     0     0
SMALL
USER_CHARGES

@<TRIPOS>ATOM
      1 C1         -8.3822    7.1714    2.8543 C.ar      1 <0>        -0.1242
      2 C2         -9.5939    7.8310    2.8577 C.ar      1 <0>        -0.0822
      3 C3        -10.7805    7.1037    2.9637 C.ar      1 <0>        -0.1133
      4 C4        -10.7326    5.7121    3.0606 C.ar      1 <0>        -0.0637
      5 C5         -9.5145    5.0646    3.0512 C.ar      1 <0>        -0.1298
      6 C6         -8.3420    5.7914    2.9454 C.ar      1 <0>        -0.0740
      7 C7         -7.0150    5.0773    2.9357 C.3       1 <0>        -0.0767
      8 C8         -6.6317    4.7328    1.4951 C.3       1 <0>        -0.1152
      9 C9         -5.2844    4.0078    1.4853 C.3       1 <0>        -0.1106
     10 C10        -4.9012    3.6633    0.0447 C.3       1 <0>        -0.0284
     11 C11        -3.5741    2.9492    0.0350 C.2       1 <0>        -0.3966
     12 C12        -3.5172    1.5628    0.0272 C.2       1 <0>         0.4863
     13 N1         -2.3289    0.9474    0.0182 N.2       1 <0>        -0.6261
     14 C13        -1.2062    1.6343    0.0167 C.2       1 <0>         0.6630
     15 N2         -1.2084    2.9952    0.0296 N.am      1 <0>        -0.6649
     16 H1         -0.3425    3.4955    0.0364 H         1 <0>         0.4141
     17 C14        -2.3764    3.6710    0.0333 C.2       1 <0>         0.5555
     18 O1         -2.3873    4.8919    0.0399 O.2       1 <0>        -0.5446
     19 N3         -0.0111    0.9658    0.0074 N.pl3     1 <0>        -0.8231
     20 N4         -4.6815    0.8214    0.0283 N.pl3     1 <0>        -0.8287
     21 C15       -12.0824    7.8043    2.9737 C.2       1 <0>         0.5524
     22 O2        -13.1141    7.1683    3.0664 O.2       1 <0>        -0.5520
     23 N5        -12.1252    9.1481    2.8799 N.am      1 <0>        -0.6829
     24 C16       -13.4152    9.8423    2.8898 C.3       1 <0>         0.0994
     25 H2        -14.1052    9.3175    3.5505 H         1 <0>         0.0862
     26 C17       -13.2197   11.2748    3.3905 C.3       1 <0>        -0.0863
     27 C18       -12.7639   11.2468    4.8508 C.3       1 <0>        -0.1532
     28 C19       -12.5713   12.6577    5.3440 C.2       1 <0>         0.4615
     29 O3        -12.7774   13.5900    4.6036 O.co2     1 <0>        -0.6386
     30 C20       -13.9809    9.8712    1.4933 C.2       1 <0>         0.4650
     31 O4        -13.3692    9.3639    0.5831 O.co2     1 <0>        -0.6393
     32 H3         -7.4631    7.7333    2.7761 H         1 <0>         0.1238
     33 H4         -9.6241    8.9079    2.7824 H         1 <0>         0.1283
     34 H5        -11.6472    5.1435    3.1425 H         1 <0>         0.1328
     35 H6         -9.4761    3.9878    3.1261 H         1 <0>         0.1209
     36 H7         -7.0914    4.1607    3.5205 H         1 <0>         0.0679
     37 H8         -6.2518    5.7230    3.3702 H         1 <0>         0.0703
     38 H9         -6.5553    5.6495    0.9103 H         1 <0>         0.0666
     39 H10        -7.3949    4.0872    1.0606 H         1 <0>         0.0623
     40 H11        -5.3608    3.0911    2.0701 H         1 <0>         0.0534
     41 H12        -4.5212    4.6534    1.9198 H         1 <0>         0.0627
     42 H13        -4.8248    4.5799   -0.5401 H         1 <0>         0.0720
     43 H14        -5.6644    3.0176   -0.3898 H         1 <0>         0.0555
     44 H15         0.0021   -0.0041    0.0020 H         1 <0>         0.4268
     45 H16         0.8223    1.4622    0.0021 H         1 <0>         0.4147
     46 H17        -4.6394   -0.1477    0.0225 H         1 <0>         0.4037
     47 H18        -5.5418    1.2695    0.0348 H         1 <0>         0.4168
     48 H19       -11.3019    9.6556    2.8058 H         1 <0>         0.3914
     49 H20       -12.4632   11.7719    2.7833 H         1 <0>         0.0574
     50 H21       -14.1615   11.8181    3.3143 H         1 <0>         0.0851
     51 H22       -13.5203   10.7497    5.4581 H         1 <0>         0.0607
     52 H23       -11.8220   10.7035    4.9271 H         1 <0>         0.0575
     53 O5        -12.1707   12.8787    6.6059 O.co2     1 <0>        -0.7907
     54 O6        -15.1642   10.4605    1.2605 O.co2     1 <0>        -0.7689
@<TRIPOS>BOND
     1    1    6 ar
     2    1    2 ar
     3    1   32 1
     4    2    3 ar
     5    2   33 1
     6    3    4 ar
     7    3   21 1
     8    4    5 ar
     9    4   34 1
    10    5    6 ar
    11    5   35 1
    12    6    7 1
    13    7    8 1
    14    7   36 1
    15    7   37 1
    16    8    9 1
    17    8   38 1
    18    8   39 1
    19    9   10 1
    20    9   40 1
    21    9   41 1
    22   10   11 1
    23   10   42 1
    24   10   43 1
    25   11   17 1
    26   11   12 2
    27   12   13 1
    28   12   20 1
    29   13   14 2
    30   14   15 1
    31   14   19 1
    32   15   16 1
    33   15   17 am
    34   17   18 2
    35   19   44 1
    36   19   45 1
    37   20   46 1
    38   20   47 1
    39   21   22 2
    40   21   23 am
    41   23   24 1
    42   23   48 1
    43   24   25 1
    44   24   26 1
    45   24   30 1
    46   26   27 1
    47   26   49 1
    48   26   50 1
    49   27   28 1
    50   27   51 1
    51   27   52 1
    52   28   29 2
    53   28   53 1
    54   30   31 2
    55   30   54 1
@<TRIPOS>MOLECULE
ZINC04617875
   54    55     0     0     0
SMALL
USER_CHARGES

@<TRIPOS>ATOM
      1 C1         -8.3951    7.1717    2.8210 C.ar      1 <0>        -0.1236
      2 C2         -9.6067    7.8313    2.8187 C.ar      1 <0>        -0.0819
      3 C3        -10.7938    7.1041    2.9192 C.ar      1 <0>        -0.1130
      4 C4        -10.7465    5.7125    3.0163 C.ar      1 <0>        -0.0641
      5 C5         -9.5284    5.0649    3.0126 C.ar      1 <0>        -0.1302
      6 C6         -8.3553    5.7917    2.9122 C.ar      1 <0>        -0.0742
      7 C7         -7.0283    5.0775    2.9087 C.3       1 <0>        -0.0768
      8 C8         -6.6384    4.7330    1.4699 C.3       1 <0>        -0.1148
      9 C9         -5.2911    4.0080    1.4664 C.3       1 <0>        -0.1101
     10 C10        -4.9012    3.6635    0.0275 C.3       1 <0>        -0.0363
     11 C11        -3.5741    2.9493    0.0240 C.2       1 <0>        -0.3403
     12 C12        -3.5172    1.5629    0.0165 C.2       1 <0>         0.4314
     13 N1         -2.3289    0.9474    0.0133 N.pl3     1 <0>        -0.6175
     14 C13        -1.2062    1.6343    0.0174 C.2       1 <0>         0.6357
     15 N2         -1.2084    2.9952    0.0303 N.2       1 <0>        -0.6286
     16 H1         -2.2934   -0.0519    0.0078 H         1 <0>         0.4149
     17 C14        -2.3764    3.6710    0.0337 C.2       1 <0>         0.5354
     18 O1         -2.3873    4.8919    0.0403 O.2       1 <0>        -0.5295
     19 N3         -0.0111    0.9658    0.0085 N.pl3     1 <0>        -0.8238
     20 N4         -4.6815    0.8216    0.0121 N.pl3     1 <0>        -0.8521
     21 C15       -12.0957    7.8048    2.9232 C.2       1 <0>         0.5524
     22 O2        -13.1279    7.1688    3.0111 O.2       1 <0>        -0.5524
     23 N5        -12.1381    9.1486    2.8292 N.am      1 <0>        -0.6827
     24 C16       -13.4281    9.8428    2.8331 C.3       1 <0>         0.0995
     25 H2        -14.1211    9.3180    3.4906 H         1 <0>         0.0862
     26 C17       -13.2348   11.2753    3.3347 C.3       1 <0>        -0.0864
     27 C18       -12.7858   11.2473    4.7971 C.3       1 <0>        -0.1532
     28 C19       -12.5954   12.6582    5.2912 C.2       1 <0>         0.4615
     29 O3        -12.7981   13.5905    4.5499 O.co2     1 <0>        -0.6385
     30 C20       -13.9873    9.8718    1.4340 C.2       1 <0>         0.4651
     31 O4        -13.3714    9.3644    0.5266 O.co2     1 <0>        -0.6394
     32 H3         -7.4756    7.7336    2.7470 H         1 <0>         0.1247
     33 H4         -9.6365    8.9083    2.7433 H         1 <0>         0.1287
     34 H5        -11.6615    5.1439    3.0940 H         1 <0>         0.1325
     35 H6         -9.4904    3.9881    3.0877 H         1 <0>         0.1202
     36 H7         -7.1075    4.1609    3.4931 H         1 <0>         0.0673
     37 H8         -6.2671    5.7232    3.3468 H         1 <0>         0.0717
     38 H9         -6.5592    5.6497    0.8855 H         1 <0>         0.0683
     39 H10        -7.3996    4.0875    1.0319 H         1 <0>         0.0617
     40 H11        -5.3702    3.0913    2.0508 H         1 <0>         0.0521
     41 H12        -4.5299    4.6535    1.9044 H         1 <0>         0.0674
     42 H13        -4.8220    4.5801   -0.5569 H         1 <0>         0.0804
     43 H14        -5.6624    3.0178   -0.4105 H         1 <0>         0.0535
     44 H15         0.0021   -0.0041    0.0031 H         1 <0>         0.4085
     45 H16         0.8223    1.4622    0.0035 H         1 <0>         0.4313
     46 H17        -4.6395   -0.1475    0.0065 H         1 <0>         0.3991
     47 H18        -5.5419    1.2697    0.0147 H         1 <0>         0.4270
     48 H19       -11.3144    9.6560    2.7589 H         1 <0>         0.3916
     49 H20       -12.4755   11.7724    2.7310 H         1 <0>         0.0576
     50 H21       -14.1762   11.8186    3.2541 H         1 <0>         0.0851
     51 H22       -13.5450   10.7502    5.4009 H         1 <0>         0.0606
     52 H23       -11.8443   10.7039    4.8778 H         1 <0>         0.0575
     53 O5        -12.2007   12.8791    6.5550 O.co2     1 <0>        -0.7906
     54 O6        -15.1694   10.4611    1.1957 O.co2     1 <0>        -0.7688
@<TRIPOS>BOND
     1    1    6 ar
     2    1    2 ar
     3    1   32 1
     4    2    3 ar
     5    2   33 1
     6    3    4 ar
     7    3   21 1
     8    4    5 ar
     9    4   34 1
    10    5    6 ar
    11    5   35 1
    12    6    7 1
    13    7    8 1
    14    7   36 1
    15    7   37 1
    16    8    9 1
    17    8   38 1
    18    8   39 1
    19    9   10 1
    20    9   40 1
    21    9   41 1
    22   10   11 1
    23   10   42 1
    24   10   43 1
    25   11   17 1
    26   11   12 2
    27   12   20 1
    28   12   13 1
    29   13   16 1
    30   13   14 1
    31   14   19 1
    32   14   15 2
    33   15   17 1
    34   17   18 2
    35   19   44 1
    36   19   45 1
    37   20   46 1
    38   20   47 1
    39   21   22 2
    40   21   23 am
    41   23   24 1
    42   23   48 1
    43   24   25 1
    44   24   26 1
    45   24   30 1
    46   26   27 1
    47   26   49 1
    48   26   50 1
    49   27   28 1
    50   27   51 1
    51   27   52 1
    52   28   29 2
    53   28   53 1
    54   30   31 2
    55   30   54 1
@<TRIPOS>MOLECULE
ZINC04617877
   52    53     0     0     0
SMALL
USER_CHARGES

@<TRIPOS>ATOM
      1 C1        -12.0979    3.4383    1.2454 C.ar      1 <0>        -0.1251
      2 C2        -10.8232    2.9051    1.3220 C.ar      1 <0>        -0.1039
      3 C3        -10.1703    2.4902    0.1752 C.ar      1 <0>        -0.0983
      4 C4        -10.7912    2.5960   -1.0524 C.ar      1 <0>        -0.0607
      5 C5        -12.0787    3.1280   -1.1361 C.ar      1 <0>        -0.1068
      6 C6        -12.7299    3.5497    0.0244 C.ar      1 <0>        -0.0881
      7 C7        -12.7503    3.2439   -2.4481 C.2       1 <0>         0.5524
      8 O1        -12.1810    2.8755   -3.4570 O.2       1 <0>        -0.5509
      9 N1        -13.9937    3.7581   -2.5256 N.am      1 <0>        -0.6826
     10 C8        -14.6592    3.8729   -3.8257 C.3       1 <0>         0.0996
     11 H1        -14.3755    3.0292   -4.4548 H         1 <0>         0.0862
     12 C9        -16.1758    3.8717   -3.6242 C.3       1 <0>        -0.0864
     13 C10       -16.6147    2.5176   -3.0631 C.3       1 <0>        -0.1532
     14 C11       -18.1085    2.5164   -2.8646 C.2       1 <0>         0.4615
     15 O2        -18.7558    3.4979   -3.1433 O.co2     1 <0>        -0.6386
     16 C12       -14.2420    5.1588   -4.4917 C.2       1 <0>         0.4650
     17 O3        -13.4681    5.9029   -3.9372 O.co2     1 <0>        -0.6390
     18 C13        -8.7802    1.9156    0.2676 C.3       1 <0>        -0.0677
     19 C14        -7.7529    3.0412    0.1310 C.3       1 <0>        -0.0988
     20 C15        -6.3416    2.4578    0.2248 C.3       1 <0>        -0.1036
     21 S1         -5.1237    3.7923    0.0629 S.3       1 <0>        -0.0920
     22 C16        -3.5737    2.9547    0.0430 C.2       1 <0>        -0.4313
     23 C17        -2.7737    2.9703   -1.0934 C.2       1 <0>         0.5313
     24 N2         -1.5998    2.3268   -1.0869 N.2       1 <0>        -0.6243
     25 C18        -1.1849    1.6763   -0.0217 C.2       1 <0>         0.6768
     26 N3         -1.9319    1.6250    1.1148 N.am      1 <0>        -0.6640
     27 H2         -1.5978    1.1167    1.9086 H         1 <0>         0.4157
     28 C19        -3.1222    2.2582    1.1734 C.2       1 <0>         0.5661
     29 O4         -3.7964    2.2216    2.1914 O.2       1 <0>        -0.5324
     30 N4          0.0251    1.0305   -0.0590 N.pl3     1 <0>        -0.8188
     31 N5         -3.1887    3.6486   -2.2267 N.pl3     1 <0>        -0.8126
     32 H3        -12.6005    3.7642    2.1440 H         1 <0>         0.1246
     33 H4        -10.3345    2.8160    2.2810 H         1 <0>         0.1198
     34 H5        -10.2819    2.2683   -1.9466 H         1 <0>         0.1327
     35 H6        -13.7264    3.9619   -0.0336 H         1 <0>         0.1281
     36 H7        -14.4480    4.0520   -1.7206 H         1 <0>         0.3915
     37 H8        -16.4500    4.6611   -2.9243 H         1 <0>         0.0575
     38 H9        -16.6695    4.0461   -4.5802 H         1 <0>         0.0852
     39 H10       -16.3405    1.7282   -3.7629 H         1 <0>         0.0607
     40 H11       -16.1210    2.3432   -2.1071 H         1 <0>         0.0574
     41 H12        -8.6330    1.1902   -0.5326 H         1 <0>         0.0727
     42 H13        -8.6539    1.4234    1.2319 H         1 <0>         0.0715
     43 H14        -7.9002    3.7665    0.9312 H         1 <0>         0.0733
     44 H15        -7.8793    3.5333   -0.8333 H         1 <0>         0.0755
     45 H16        -6.1944    1.7324   -0.5754 H         1 <0>         0.0732
     46 H17        -6.2153    1.9656    1.1891 H         1 <0>         0.0838
     47 H18         0.5644    1.0569   -0.8649 H         1 <0>         0.4289
     48 H19         0.3432    0.5509    0.7219 H         1 <0>         0.4161
     49 H20        -2.5963    3.7238   -2.9910 H         1 <0>         0.4061
     50 H21        -4.0719    4.0485   -2.2564 H         1 <0>         0.4253
     51 O5        -18.7200    1.4250   -2.3782 O.co2     1 <0>        -0.7906
     52 O6        -14.7300    5.4775   -5.7008 O.co2     1 <0>        -0.7688
@<TRIPOS>BOND
     1    1    6 ar
     2    1    2 ar
     3    1   32 1
     4    2    3 ar
     5    2   33 1
     6    3    4 ar
     7    3   18 1
     8    4    5 ar
     9    4   34 1
    10    5    6 ar
    11    5    7 1
    12    6   35 1
    13    7    8 2
    14    7    9 am
    15    9   10 1
    16    9   36 1
    17   10   11 1
    18   10   12 1
    19   10   16 1
    20   12   13 1
    21   12   37 1
    22   12   38 1
    23   13   14 1
    24   13   39 1
    25   13   40 1
    26   14   15 2
    27   14   51 1
    28   16   17 2
    29   16   52 1
    30   18   19 1
    31   18   41 1
    32   18   42 1
    33   19   20 1
    34   19   43 1
    35   19   44 1
    36   20   21 1
    37   20   45 1
    38   20   46 1
    39   21   22 1
    40   22   28 1
    41   22   23 2
    42   23   24 1
    43   23   31 1
    44   24   25 2
    45   25   26 1
    46   25   30 1
    47   26   27 1
    48   26   28 am
    49   28   29 2
    50   30   47 1
    51   30   48 1
    52   31   49 1
    53   31   50 1
@<TRIPOS>MOLECULE
ZINC04617877
   52    53     0     0     0
SMALL
USER_CHARGES

@<TRIPOS>ATOM
      1 C1        -12.0904    3.4792    1.2521 C.ar      1 <0>        -0.1249
      2 C2        -10.8179    2.9406    1.3271 C.ar      1 <0>        -0.1032
      3 C3        -10.1669    2.5261    0.1791 C.ar      1 <0>        -0.0983
      4 C4        -10.7876    2.6377   -1.0481 C.ar      1 <0>        -0.0609
      5 C5        -12.0729    3.1751   -1.1302 C.ar      1 <0>        -0.1074
      6 C6        -12.7222    3.5964    0.0316 C.ar      1 <0>        -0.0881
      7 C7        -12.7443    3.2973   -2.4417 C.2       1 <0>         0.5527
      8 O1        -12.1767    2.9292   -3.4517 O.2       1 <0>        -0.5517
      9 N1        -13.9856    3.8167   -2.5176 N.am      1 <0>        -0.6826
     10 C8        -14.6509    3.9377   -3.8173 C.3       1 <0>         0.0997
     11 H1        -14.3707    3.0945   -4.4487 H         1 <0>         0.0861
     12 C9        -16.1674    3.9421   -3.6155 C.3       1 <0>        -0.0864
     13 C10       -16.6117    2.5883   -3.0579 C.3       1 <0>        -0.1532
     14 C11       -18.1055    2.5926   -2.8592 C.2       1 <0>         0.4615
     15 O2        -18.7488    3.5775   -3.1351 O.co2     1 <0>        -0.6387
     16 C12       -14.2286    5.2236   -4.4799 C.2       1 <0>         0.4651
     17 O3        -13.4516    5.9631   -3.9236 O.co2     1 <0>        -0.6392
     18 C13        -8.7791    1.9456    0.2697 C.3       1 <0>        -0.0678
     19 C14        -7.7473    3.0674    0.1359 C.3       1 <0>        -0.0987
     20 C15        -6.3383    2.4781    0.2279 C.3       1 <0>        -0.0995
     21 S1         -5.1151    3.8080    0.0693 S.3       1 <0>        -0.0944
     22 C16        -3.5685    2.9642    0.0469 C.2       1 <0>        -0.3839
     23 C17        -2.7686    2.9796   -1.0897 C.2       1 <0>         0.4883
     24 N2         -1.5971    2.3317   -1.0849 N.pl3     1 <0>        -0.6164
     25 C18        -1.1845    1.6771   -0.0214 C.2       1 <0>         0.6402
     26 N3         -1.9315    1.6258    1.1151 N.2       1 <0>        -0.6218
     27 H2         -1.0252    2.3457   -1.9051 H         1 <0>         0.4188
     28 C19        -3.1220    2.2586    1.1736 C.2       1 <0>         0.5430
     29 O4         -3.7962    2.2220    2.1916 O.2       1 <0>        -0.5184
     30 N4          0.0257    1.0317   -0.0585 N.pl3     1 <0>        -0.8210
     31 N5         -3.1811    3.6626   -2.2211 N.pl3     1 <0>        -0.8366
     32 H3        -12.5916    3.8047    2.1517 H         1 <0>         0.1249
     33 H4        -10.3294    2.8470    2.2858 H         1 <0>         0.1206
     34 H5        -10.2798    2.3103   -1.9433 H         1 <0>         0.1323
     35 H6        -13.7170    4.0128   -0.0251 H         1 <0>         0.1281
     36 H7        -14.4386    4.1103   -1.7118 H         1 <0>         0.3916
     37 H8        -16.4383    4.7307   -2.9135 H         1 <0>         0.0575
     38 H9        -16.6606    4.1210   -4.5710 H         1 <0>         0.0851
     39 H10       -16.3408    1.7996   -3.7599 H         1 <0>         0.0606
     40 H11       -16.1185    2.4093   -2.1025 H         1 <0>         0.0575
     41 H12        -8.6350    1.2218   -0.5325 H         1 <0>         0.0729
     42 H13        -8.6546    1.4504    1.2326 H         1 <0>         0.0733
     43 H14        -7.8915    3.7912    0.9380 H         1 <0>         0.0745
     44 H15        -7.8719    3.5626   -0.8271 H         1 <0>         0.0749
     45 H16        -6.1942    1.7542   -0.5743 H         1 <0>         0.0742
     46 H17        -6.2139    1.9828    1.1908 H         1 <0>         0.0892
     47 H18         0.5650    1.0581   -0.8644 H         1 <0>         0.4101
     48 H19         0.3440    0.5524    0.7225 H         1 <0>         0.4322
     49 H20        -2.5885    3.7374   -2.9853 H         1 <0>         0.4020
     50 H21        -4.0627    4.0661   -2.2495 H         1 <0>         0.4354
     51 O5        -18.7213    1.5024   -2.3756 O.co2     1 <0>        -0.7904
     52 O6        -14.7155    5.5475   -5.6881 O.co2     1 <0>        -0.7689
@<TRIPOS>BOND
     1    1    6 ar
     2    1    2 ar
     3    1   32 1
     4    2    3 ar
     5    2   33 1
     6    3    4 ar
     7    3   18 1
     8    4    5 ar
     9    4   34 1
    10    5    6 ar
    11    5    7 1
    12    6   35 1
    13    7    8 2
    14    7    9 am
    15    9   10 1
    16    9   36 1
    17   10   11 1
    18   10   12 1
    19   10   16 1
    20   12   13 1
    21   12   37 1
    22   12   38 1
    23   13   14 1
    24   13   39 1
    25   13   40 1
    26   14   15 2
    27   14   51 1
    28   16   17 2
    29   16   52 1
    30   18   19 1
    31   18   41 1
    32   18   42 1
    33   19   20 1
    34   19   43 1
    35   19   44 1
    36   20   21 1
    37   20   45 1
    38   20   46 1
    39   21   22 1
    40   22   28 1
    41   22   23 2
    42   23   31 1
    43   23   24 1
    44   24   27 1
    45   24   25 1
    46   25   30 1
    47   25   26 2
    48   26   28 1
    49   28   29 2
    50   30   47 1
    51   30   48 1
    52   31   49 1
    53   31   50 1
@<TRIPOS>MOLECULE
ZINC04617880
   53    55     0     0     0
SMALL
USER_CHARGES

@<TRIPOS>ATOM
      1 C1        -11.8522    4.5560   -0.9500 C.ar      1 <0>        -0.1262
      2 C2        -10.5666    4.1460   -1.2568 C.ar      1 <0>        -0.1055
      3 C3         -9.4864    4.6554   -0.5586 C.ar      1 <0>        -0.0986
      4 C4         -9.6840    5.5851    0.4416 C.ar      1 <0>        -0.0591
      5 C5        -10.9774    6.0071    0.7522 C.ar      1 <0>        -0.1053
      6 C6        -12.0635    5.4849    0.0476 C.ar      1 <0>        -0.0879
      7 C7        -11.1966    7.0027    1.8230 C.2       1 <0>         0.5511
      8 O1        -10.2491    7.4554    2.4351 O.2       1 <0>        -0.5478
      9 N1        -12.4470    7.4082    2.1205 N.am      1 <0>        -0.6830
     10 C8        -12.6642    8.3947    3.1816 C.3       1 <0>         0.0995
     11 H1        -11.8411    9.1092    3.1874 H         1 <0>         0.0866
     12 C9        -13.9797    9.1340    2.9291 C.3       1 <0>        -0.0861
     13 C10       -13.8682    9.9467    1.6376 C.3       1 <0>        -0.1533
     14 C11       -15.1639   10.6750    1.3889 C.2       1 <0>         0.4615
     15 O2        -16.0823   10.5562    2.1651 O.co2     1 <0>        -0.6390
     16 C12       -12.7298    7.6933    4.5138 C.2       1 <0>         0.4653
     17 O3        -12.6077    6.4925    4.5710 O.co2     1 <0>        -0.6398
     18 C13        -8.0904    4.1985   -0.8953 C.3       1 <0>        -0.0756
     19 C14        -7.7331    2.9794   -0.0426 C.3       1 <0>        -0.0937
     20 C15        -6.3158    2.5156   -0.3844 C.3       1 <0>        -0.1060
     21 H2         -6.2399    2.3153   -1.4532 H         1 <0>         0.0972
     22 C16        -5.9754    1.2448    0.4099 C.3       1 <0>         0.1258
     23 N2         -4.6594    0.7685   -0.0047 N.pl3     1 <0>        -0.7095
     24 C17        -3.5275    1.5558    0.0251 C.2       1 <0>         0.4785
     25 C18        -3.5755    2.9393    0.0475 C.2       1 <0>        -0.3915
     26 C19        -2.3780    3.6685    0.0434 C.2       1 <0>         0.5742
     27 O4         -2.3937    4.8900    0.0568 O.2       1 <0>        -0.5258
     28 N3         -1.2076    2.9967    0.0296 N.am      1 <0>        -0.6592
     29 H3         -0.3420    3.4975    0.0289 H         1 <0>         0.4187
     30 C20        -1.2085    1.6357    0.0167 C.2       1 <0>         0.6598
     31 N4         -2.3268    0.9479    0.0182 N.2       1 <0>        -0.6162
     32 N5         -0.0111    0.9658    0.0074 N.pl3     1 <0>        -0.8234
     33 S1         -5.1154    3.7968    0.0906 S.3       1 <0>        -0.0383
     34 H4        -12.6915    4.1512   -1.4959 H         1 <0>         0.1239
     35 H5        -10.4061    3.4221   -2.0420 H         1 <0>         0.1185
     36 H6         -8.8395    5.9851    0.9832 H         1 <0>         0.1348
     37 H7        -13.0670    5.8071    0.2833 H         1 <0>         0.1280
     38 H8        -13.2032    7.0469    1.6320 H         1 <0>         0.3910
     39 H9        -14.7903    8.4115    2.8349 H         1 <0>         0.0571
     40 H10       -14.1856    9.8044    3.7636 H         1 <0>         0.0851
     41 H11       -13.0576   10.6693    1.7318 H         1 <0>         0.0610
     42 H12       -13.6622    9.2763    0.8032 H         1 <0>         0.0574
     43 H13        -7.3852    5.0041   -0.6909 H         1 <0>         0.0812
     44 H14        -8.0403    3.9309   -1.9508 H         1 <0>         0.0726
     45 H15        -8.4383    2.1738   -0.2470 H         1 <0>         0.0823
     46 H16        -7.7832    3.2470    1.0129 H         1 <0>         0.0834
     47 H17        -5.9623    1.4728    1.4757 H         1 <0>         0.0839
     48 H18        -6.7234    0.4776    0.2097 H         1 <0>         0.1029
     49 H19        -4.5770   -0.1463   -0.3163 H         1 <0>         0.4071
     50 H20         0.0021   -0.0041    0.0020 H         1 <0>         0.4268
     51 H21         0.8223    1.4622    0.0021 H         1 <0>         0.4145
     52 O5        -15.2978   11.4556    0.3052 O.co2     1 <0>        -0.7905
     53 O6        -12.9239    8.4024    5.6368 O.co2     1 <0>        -0.7686
@<TRIPOS>BOND
     1    1    6 ar
     2    1    2 ar
     3    1   34 1
     4    2    3 ar
     5    2   35 1
     6    3    4 ar
     7    3   18 1
     8    4    5 ar
     9    4   36 1
    10    5    6 ar
    11    5    7 1
    12    6   37 1
    13    7    8 2
    14    7    9 am
    15    9   10 1
    16    9   38 1
    17   10   11 1
    18   10   12 1
    19   10   16 1
    20   12   13 1
    21   12   39 1
    22   12   40 1
    23   13   14 1
    24   13   41 1
    25   13   42 1
    26   14   15 2
    27   14   52 1
    28   16   17 2
    29   16   53 1
    30   18   19 1
    31   18   43 1
    32   18   44 1
    33   19   20 1
    34   19   45 1
    35   19   46 1
    36   20   21 1
    37   20   33 1
    38   20   22 1
    39   22   23 1
    40   22   47 1
    41   22   48 1
    42   23   24 1
    43   23   49 1
    44   24   31 1
    45   24   25 2
    46   25   26 1
    47   25   33 1
    48   26   27 2
    49   26   28 am
    50   28   29 1
    51   28   30 1
    52   30   31 2
    53   30   32 1
    54   32   50 1
    55   32   51 1
@<TRIPOS>MOLECULE
ZINC04617880
   53    55     0     0     0
SMALL
USER_CHARGES

@<TRIPOS>ATOM
      1 C1        -11.8475    4.5565   -1.0001 C.ar      1 <0>        -0.1262
      2 C2        -10.5605    4.1464   -1.3009 C.ar      1 <0>        -0.1056
      3 C3         -9.4835    4.6558   -0.5976 C.ar      1 <0>        -0.0994
      4 C4         -9.6858    5.5855    0.4017 C.ar      1 <0>        -0.0589
      5 C5        -10.9806    6.0075    0.7062 C.ar      1 <0>        -0.1046
      6 C6        -12.0634    5.4854   -0.0035 C.ar      1 <0>        -0.0875
      7 C7        -11.2048    7.0031    1.7759 C.2       1 <0>         0.5506
      8 O1        -10.2602    7.4558    2.3925 O.2       1 <0>        -0.5471
      9 N1        -12.4566    7.4087    2.0675 N.am      1 <0>        -0.6829
     10 C8        -12.6788    8.3952    3.1276 C.3       1 <0>         0.0994
     11 H1        -11.8557    9.1097    3.1373 H         1 <0>         0.0868
     12 C9        -13.9930    9.1346    2.8689 C.3       1 <0>        -0.0860
     13 C10       -13.8754    9.9473    1.5779 C.3       1 <0>        -0.1534
     14 C11       -15.1699   10.6756    1.3231 C.2       1 <0>         0.4616
     15 O2        -16.0919   10.5569    2.0950 O.co2     1 <0>        -0.6390
     16 C12       -12.7507    7.6938    4.4595 C.2       1 <0>         0.4655
     17 O3        -12.6289    6.4930    4.5172 O.co2     1 <0>        -0.6403
     18 C13        -8.0860    4.1988   -0.9277 C.3       1 <0>        -0.0762
     19 C14        -7.7328    2.9797   -0.0733 C.3       1 <0>        -0.0939
     20 C15        -6.3139    2.5158   -0.4085 C.3       1 <0>        -0.1150
     21 H2         -6.2330    2.3155   -1.4769 H         1 <0>         0.0993
     22 C16        -5.9773    1.2450    0.3874 C.3       1 <0>         0.1308
     23 N2         -4.6594    0.7687   -0.0210 N.pl3     1 <0>        -0.7336
     24 C17        -3.5276    1.5559    0.0142 C.2       1 <0>         0.4180
     25 C18        -3.5756    2.9394    0.0363 C.2       1 <0>        -0.3346
     26 C19        -2.3781    3.6686    0.0357 C.2       1 <0>         0.5501
     27 O4         -2.3939    4.8901    0.0489 O.2       1 <0>        -0.5128
     28 N3         -1.2078    2.9969    0.0146 N.2       1 <0>        -0.6196
     29 H3         -2.2855   -0.0511    0.0015 H         1 <0>         0.4157
     30 C20        -1.2086    1.6359    0.0020 C.2       1 <0>         0.6383
     31 N4         -2.3269    0.9481    0.0055 N.pl3     1 <0>        -0.6132
     32 N5         -0.0112    0.9662   -0.0147 N.pl3     1 <0>        -0.8234
     33 S1         -5.1157    3.7970    0.0722 S.3       1 <0>        -0.0164
     34 H4        -12.6842    4.1517   -1.5500 H         1 <0>         0.1240
     35 H5        -10.3963    3.4225   -2.0853 H         1 <0>         0.1182
     36 H6         -8.8438    5.9854    0.9472 H         1 <0>         0.1352
     37 H7        -13.0680    5.8076    0.2274 H         1 <0>         0.1283
     38 H8        -13.2105    7.0474    1.5755 H         1 <0>         0.3909
     39 H9        -14.8032    8.4121    2.7709 H         1 <0>         0.0570
     40 H10       -14.2028    9.8050    3.7024 H         1 <0>         0.0852
     41 H11       -13.0652   10.6698    1.6759 H         1 <0>         0.0612
     42 H12       -13.6655    9.2768    0.7445 H         1 <0>         0.0573
     43 H13        -7.3817    5.0044   -0.7200 H         1 <0>         0.0819
     44 H14        -8.0309    3.9312   -1.9830 H         1 <0>         0.0730
     45 H15        -8.4370    2.1741   -0.2811 H         1 <0>         0.0825
     46 H16        -7.7878    3.2473    0.9819 H         1 <0>         0.0841
     47 H17        -5.9692    1.4730    1.4533 H         1 <0>         0.0863
     48 H18        -6.7244    0.4778    0.1837 H         1 <0>         0.1054
     49 H19        -4.5755   -0.1462   -0.3322 H         1 <0>         0.4012
     50 H20         0.0020   -0.0037   -0.0200 H         1 <0>         0.4089
     51 H21         0.8221    1.4626   -0.0254 H         1 <0>         0.4314
     52 O5        -15.2986   11.4562    0.2388 O.co2     1 <0>        -0.7903
     53 O6        -12.9500    8.4029    5.5815 O.co2     1 <0>        -0.7682
@<TRIPOS>BOND
     1    1    6 ar
     2    1    2 ar
     3    1   34 1
     4    2    3 ar
     5    2   35 1
     6    3    4 ar
     7    3   18 1
     8    4    5 ar
     9    4   36 1
    10    5    6 ar
    11    5    7 1
    12    6   37 1
    13    7    8 2
    14    7    9 am
    15    9   10 1
    16    9   38 1
    17   10   11 1
    18   10   12 1
    19   10   16 1
    20   12   13 1
    21   12   39 1
    22   12   40 1
    23   13   14 1
    24   13   41 1
    25   13   42 1
    26   14   15 2
    27   14   52 1
    28   16   17 2
    29   16   53 1
    30   18   19 1
    31   18   43 1
    32   18   44 1
    33   19   20 1
    34   19   45 1
    35   19   46 1
    36   20   21 1
    37   20   33 1
    38   20   22 1
    39   22   23 1
    40   22   47 1
    41   22   48 1
    42   23   24 1
    43   23   49 1
    44   24   25 2
    45   24   31 1
    46   25   33 1
    47   25   26 1
    48   26   28 1
    49   26   27 2
    50   28   30 2
    51   29   31 1
    52   30   32 1
    53   30   31 1
    54   32   50 1
    55   32   51 1
@<TRIPOS>MOLECULE
ZINC04617881
   53    55     0     0     0
SMALL
USER_CHARGES

@<TRIPOS>ATOM
      1 C1          2.7297   -1.1484   -2.3502 C.ar      1 <0>        -0.1262
      2 C2          2.0744   -0.7017   -1.2161 C.ar      1 <0>        -0.1055
      3 C3          0.7074   -0.4901   -1.2379 C.ar      1 <0>        -0.0986
      4 C4         -0.0124   -0.7283   -2.3906 C.ar      1 <0>        -0.0590
      5 C5          0.6433   -1.1730   -3.5396 C.ar      1 <0>        -0.1053
      6 C6          2.0228   -1.3850   -3.5107 C.ar      1 <0>        -0.0879
      7 C7         -0.1207   -1.4241   -4.7802 C.2       1 <0>         0.5510
      8 O1         -1.3218   -1.2387   -4.8024 O.2       1 <0>        -0.5477
      9 N1          0.5147   -1.8587   -5.8865 N.am      1 <0>        -0.6830
     10 C8         -0.2423   -2.1075   -7.1159 C.3       1 <0>         0.0996
     11 H1         -1.0502   -1.3805   -7.1986 H         1 <0>         0.0866
     12 C9          0.6881   -1.9757   -8.3233 C.3       1 <0>        -0.0862
     13 C10         1.1773   -0.5303   -8.4347 C.3       1 <0>        -0.1531
     14 C11         2.0937   -0.4004   -9.6240 C.2       1 <0>         0.4615
     15 O2          2.3312   -1.3650  -10.3118 O.co2     1 <0>        -0.6386
     16 C12        -0.8206   -3.4986   -7.0768 C.2       1 <0>         0.4649
     17 O3         -0.6209   -4.2093   -6.1203 O.co2     1 <0>        -0.6392
     18 C13         0.0021   -0.0041    0.0020 C.3       1 <0>        -0.0761
     19 C14        -0.0187    1.5258    0.0104 C.3       1 <0>        -0.0930
     20 C15        -0.7348    2.0192    1.2692 C.3       1 <0>        -0.1064
     21 H2         -0.2553    1.6025    2.1550 H         1 <0>         0.0972
     22 C16        -0.6935    3.5544    1.3252 C.3       1 <0>         0.1261
     23 N2         -1.2950    3.9961    2.5796 N.pl3     1 <0>        -0.7094
     24 C17        -2.5621    3.6282    2.9807 C.2       1 <0>         0.4786
     25 C18        -3.2214    2.5239    2.4680 C.2       1 <0>        -0.3920
     26 C19        -4.4978    2.2008    2.9500 C.2       1 <0>         0.5741
     27 O4         -5.0987    1.2295    2.5164 O.2       1 <0>        -0.5255
     28 N3         -5.0506    2.9820    3.9015 N.am      1 <0>        -0.6593
     29 H3         -5.9580    2.7665    4.2623 H         1 <0>         0.4187
     30 C20        -4.3698    4.0640    4.3687 C.2       1 <0>         0.6600
     31 N4         -3.1741    4.3706    3.9217 N.2       1 <0>        -0.6165
     32 N5         -4.9476    4.8541    5.3302 N.pl3     1 <0>        -0.8233
     33 S1         -2.4832    1.5199    1.2209 S.3       1 <0>        -0.0382
     34 H4          3.7969   -1.3123   -2.3264 H         1 <0>         0.1239
     35 H5          2.6325   -0.5179   -0.3100 H         1 <0>         0.1185
     36 H6         -1.0802   -0.5673   -2.4050 H         1 <0>         0.1348
     37 H7          2.5353   -1.7339   -4.3950 H         1 <0>         0.1280
     38 H8          1.4731   -2.0067   -5.8688 H         1 <0>         0.3910
     39 H9          1.5431   -2.6400   -8.1974 H         1 <0>         0.0572
     40 H10         0.1474   -2.2472   -9.2299 H         1 <0>         0.0851
     41 H11         0.3223    0.1340   -8.5606 H         1 <0>         0.0609
     42 H12         1.7179   -0.2588   -7.5280 H         1 <0>         0.0574
     43 H13         0.5293   -0.3651    0.8851 H         1 <0>         0.0726
     44 H14        -1.0205   -0.3814    0.0098 H         1 <0>         0.0814
     45 H15         1.0039    1.9031    0.0027 H         1 <0>         0.0824
     46 H16        -0.5459    1.8868   -0.8726 H         1 <0>         0.0829
     47 H17         0.3411    3.8941    1.2765 H         1 <0>         0.1029
     48 H18        -1.2549    3.9658    0.4863 H         1 <0>         0.0839
     49 H19        -0.7779    4.5766    3.1598 H         1 <0>         0.4072
     50 H20        -4.4731    5.6283    5.6713 H         1 <0>         0.4268
     51 H21        -5.8306    4.6385    5.6689 H         1 <0>         0.4145
     52 O5          2.6461    0.7868   -9.9191 O.co2     1 <0>        -0.7909
     53 O6         -1.5575   -3.9482   -8.1047 O.co2     1 <0>        -0.7688
@<TRIPOS>BOND
     1    1    6 ar
     2    1    2 ar
     3    1   34 1
     4    2    3 ar
     5    2   35 1
     6    3    4 ar
     7    3   18 1
     8    4    5 ar
     9    4   36 1
    10    5    6 ar
    11    5    7 1
    12    6   37 1
    13    7    8 2
    14    7    9 am
    15    9   10 1
    16    9   38 1
    17   10   11 1
    18   10   12 1
    19   10   16 1
    20   12   13 1
    21   12   39 1
    22   12   40 1
    23   13   14 1
    24   13   41 1
    25   13   42 1
    26   14   15 2
    27   14   52 1
    28   16   17 2
    29   16   53 1
    30   18   19 1
    31   18   43 1
    32   18   44 1
    33   19   20 1
    34   19   45 1
    35   19   46 1
    36   20   21 1
    37   20   33 1
    38   20   22 1
    39   22   23 1
    40   22   47 1
    41   22   48 1
    42   23   24 1
    43   23   49 1
    44   24   31 1
    45   24   25 2
    46   25   26 1
    47   25   33 1
    48   26   27 2
    49   26   28 am
    50   28   29 1
    51   28   30 1
    52   30   31 2
    53   30   32 1
    54   32   50 1
    55   32   51 1
@<TRIPOS>MOLECULE
ZINC04617881
   53    55     0     0     0
SMALL
USER_CHARGES

@<TRIPOS>ATOM
      1 C1          2.7313   -1.1509   -2.3466 C.ar      1 <0>        -0.1262
      2 C2          2.0756   -0.7039   -1.2128 C.ar      1 <0>        -0.1056
      3 C3          0.7087   -0.4921   -1.2351 C.ar      1 <0>        -0.0993
      4 C4         -0.0108   -0.7304   -2.3880 C.ar      1 <0>        -0.0588
      5 C5          0.6453   -1.1755   -3.5367 C.ar      1 <0>        -0.1047
      6 C6          2.0247   -1.3877   -3.5073 C.ar      1 <0>        -0.0874
      7 C7         -0.1183   -1.4267   -4.7775 C.2       1 <0>         0.5505
      8 O1         -1.3194   -1.2412   -4.8002 O.2       1 <0>        -0.5470
      9 N1          0.5174   -1.8617   -5.8835 N.am      1 <0>        -0.6829
     10 C8         -0.2392   -2.1106   -7.1131 C.3       1 <0>         0.0996
     11 H1         -1.0470   -1.3835   -7.1963 H         1 <0>         0.0867
     12 C9          0.6916   -1.9792   -8.3202 C.3       1 <0>        -0.0862
     13 C10         1.1811   -0.5339   -8.4318 C.3       1 <0>        -0.1530
     14 C11         2.0979   -0.4044   -9.6208 C.2       1 <0>         0.4615
     15 O2          2.3355   -1.3692  -10.3083 O.co2     1 <0>        -0.6384
     16 C12        -0.8178   -3.5016   -7.0739 C.2       1 <0>         0.4648
     17 O3         -0.6185   -4.2122   -6.1172 O.co2     1 <0>        -0.6391
     18 C13         0.0030   -0.0057    0.0044 C.3       1 <0>        -0.0766
     19 C14        -0.0176    1.5242    0.0125 C.3       1 <0>        -0.0932
     20 C15        -0.7340    2.0180    1.2709 C.3       1 <0>        -0.1154
     21 H2         -0.2549    1.6014    2.1570 H         1 <0>         0.0994
     22 C16        -0.6925    3.5532    1.3266 C.3       1 <0>         0.1311
     23 N2         -1.2944    3.9952    2.5807 N.pl3     1 <0>        -0.7337
     24 C17        -2.5617    3.6276    2.9814 C.2       1 <0>         0.4181
     25 C18        -3.2210    2.5233    2.4687 C.2       1 <0>        -0.3349
     26 C19        -4.4976    2.2006    2.9503 C.2       1 <0>         0.5499
     27 O4         -5.0985    1.2293    2.5167 O.2       1 <0>        -0.5125
     28 N3         -5.0503    2.9815    3.9021 N.2       1 <0>        -0.6195
     29 H3         -2.7066    5.1743    4.2898 H         1 <0>         0.4157
     30 C20        -4.3695    4.0635    4.3693 C.2       1 <0>         0.6383
     31 N4         -3.1737    4.3701    3.9223 N.pl3     1 <0>        -0.6133
     32 N5         -4.9471    4.8534    5.3311 N.pl3     1 <0>        -0.8234
     33 S1         -2.4825    1.5189    1.2221 S.3       1 <0>        -0.0162
     34 H4          3.7984   -1.3150   -2.3224 H         1 <0>         0.1240
     35 H5          2.6334   -0.5200   -0.3066 H         1 <0>         0.1182
     36 H6         -1.0785   -0.5693   -2.4028 H         1 <0>         0.1352
     37 H7          2.5375   -1.7369   -4.3913 H         1 <0>         0.1283
     38 H8          1.4757   -2.0098   -5.8654 H         1 <0>         0.3909
     39 H9          1.5465   -2.6436   -8.1939 H         1 <0>         0.0572
     40 H10         0.1512   -2.2508   -9.2270 H         1 <0>         0.0852
     41 H11         0.3262    0.1305   -8.5581 H         1 <0>         0.0609
     42 H12         1.7214   -0.2623   -7.5249 H         1 <0>         0.0571
     43 H13         0.5298   -0.3666    0.8878 H         1 <0>         0.0730
     44 H14        -1.0197   -0.3829    0.0119 H         1 <0>         0.0820
     45 H15         1.0051    1.9013    0.0050 H         1 <0>         0.0826
     46 H16        -0.5444    1.8851   -0.8708 H         1 <0>         0.0835
     47 H17         0.3421    3.8927    1.2782 H         1 <0>         0.1054
     48 H18        -1.2536    3.9645    0.4874 H         1 <0>         0.0862
     49 H19        -0.7774    4.5758    3.1609 H         1 <0>         0.4013
     50 H20        -4.4726    5.6276    5.6721 H         1 <0>         0.4089
     51 H21        -5.8300    4.6376    5.6700 H         1 <0>         0.4314
     52 O5          2.6506    0.7826   -9.9159 O.co2     1 <0>        -0.7910
     53 O6         -1.5544   -3.9513   -8.1020 O.co2     1 <0>        -0.7685
@<TRIPOS>BOND
     1    1    6 ar
     2    1    2 ar
     3    1   34 1
     4    2    3 ar
     5    2   35 1
     6    3    4 ar
     7    3   18 1
     8    4    5 ar
     9    4   36 1
    10    5    6 ar
    11    5    7 1
    12    6   37 1
    13    7    8 2
    14    7    9 am
    15    9   10 1
    16    9   38 1
    17   10   11 1
    18   10   12 1
    19   10   16 1
    20   12   13 1
    21   12   39 1
    22   12   40 1
    23   13   14 1
    24   13   41 1
    25   13   42 1
    26   14   15 2
    27   14   52 1
    28   16   17 2
    29   16   53 1
    30   18   19 1
    31   18   43 1
    32   18   44 1
    33   19   20 1
    34   19   45 1
    35   19   46 1
    36   20   21 1
    37   20   33 1
    38   20   22 1
    39   22   23 1
    40   22   47 1
    41   22   48 1
    42   23   24 1
    43   23   49 1
    44   24   25 2
    45   24   31 1
    46   25   33 1
    47   25   26 1
    48   26   28 1
    49   26   27 2
    50   28   30 2
    51   29   31 1
    52   30   32 1
    53   30   31 1
    54   32   50 1
    55   32   51 1
@<TRIPOS>MOLECULE
ZINC04617883
   53    55     0     0     0
SMALL
USER_CHARGES

@<TRIPOS>ATOM
      1 C1          3.4586    6.9245    1.3295 C.3       1 <0>        -0.0939
      2 C2          4.4492    6.0772    2.0858 C.2       1 <0>        -0.1314
      3 C3          5.7385    6.5117    2.2674 C.2       1 <0>        -0.0945
      4 C4          6.5919    5.6784    2.9735 C.2       1 <0>        -0.1876
      5 S1          5.5233    4.3035    3.3617 S.3       1 <0>         0.1378
      6 C5          4.0763    4.8744    2.5964 C.2       1 <0>        -0.1842
      7 C6          2.7295    4.2025    2.5212 C.3       1 <0>        -0.0308
      8 C7          2.6633    3.3318    1.2648 C.3       1 <0>        -0.0941
      9 C8          1.2960    2.6496    1.1885 C.3       1 <0>        -0.1050
     10 H1          1.1001    2.1088    2.1144 H         1 <0>         0.1009
     11 C9          1.2636    1.6770   -0.0010 C.3       1 <0>         0.1261
     12 N1         -0.0111    0.9658    0.0074 N.pl3     1 <0>        -0.7078
     13 C10        -1.2332    1.6047    0.0168 C.2       1 <0>         0.4835
     14 C11        -1.3876    2.9232    0.4152 C.2       1 <0>        -0.3945
     15 C12        -2.6680    3.4944    0.4165 C.2       1 <0>         0.5761
     16 O1         -2.8309    4.6547    0.7623 O.2       1 <0>        -0.5291
     17 N2         -3.7175    2.7394    0.0136 N.am      1 <0>        -0.6614
     18 H2         -4.6389    3.1277    0.0015 H         1 <0>         0.4183
     19 C13        -3.5152    1.4507   -0.3749 C.2       1 <0>         0.6620
     20 N3         -2.3187    0.9104   -0.3719 N.2       1 <0>        -0.6163
     21 N4         -4.5884    0.6974   -0.7793 N.pl3     1 <0>        -0.8226
     22 S2         -0.0023    3.8935    0.9132 S.3       1 <0>        -0.0467
     23 C14         8.0030    5.8775    3.3168 C.2       1 <0>         0.5953
     24 O2          8.5768    6.8926    2.9680 O.2       1 <0>        -0.5372
     25 N5          8.6651    4.9365    4.0186 N.am      1 <0>        -0.6793
     26 C15        10.0754    5.1354    4.3616 C.3       1 <0>         0.0995
     27 H3         10.2561    6.1924    4.5572 H         1 <0>         0.0886
     28 C16        10.4164    4.3200    5.6105 C.3       1 <0>        -0.0865
     29 C17         9.6289    4.8628    6.8047 C.3       1 <0>        -0.1541
     30 C18         9.9648    4.0597    8.0348 C.2       1 <0>         0.4619
     31 O3         10.7532    3.1468    7.9637 O.co2     1 <0>        -0.6387
     32 C19        10.9404    4.6819    3.2139 C.2       1 <0>         0.4656
     33 O4         10.4311    4.2381    2.2122 O.co2     1 <0>        -0.6387
     34 H4          2.9422    7.5870    2.0240 H         1 <0>         0.0653
     35 H5          3.9848    7.5194    0.5829 H         1 <0>         0.0630
     36 H6          2.7325    6.2798    0.8344 H         1 <0>         0.0652
     37 H7          6.0734    7.4615    1.8774 H         1 <0>         0.1433
     38 H8          1.9472    4.9604    2.4796 H         1 <0>         0.0912
     39 H9          2.5848    3.5789    3.4034 H         1 <0>         0.0808
     40 H10         3.4457    2.5740    1.3064 H         1 <0>         0.0878
     41 H11         2.8080    3.9554    0.3826 H         1 <0>         0.0832
     42 H12         2.0814    0.9620    0.0894 H         1 <0>         0.1058
     43 H13         1.3657    2.2329   -0.9330 H         1 <0>         0.0835
     44 H14         0.0021   -0.0041    0.0020 H         1 <0>         0.4090
     45 H15        -4.4578   -0.2223   -1.0583 H         1 <0>         0.4275
     46 H16        -5.4777    1.0847   -0.7862 H         1 <0>         0.4146
     47 H17         8.2078    4.1274    4.2965 H         1 <0>         0.3914
     48 H18        10.1525    3.2754    5.4457 H         1 <0>         0.0581
     49 H19        11.4845    4.3971    5.8143 H         1 <0>         0.0867
     50 H20         9.8929    5.9074    6.9695 H         1 <0>         0.0615
     51 H21         8.5609    4.7857    6.6009 H         1 <0>         0.0574
     52 O5          9.3882    4.3584    9.2096 O.co2     1 <0>        -0.7899
     53 O6         12.2766    4.7711    3.3045 O.co2     1 <0>        -0.7667
@<TRIPOS>BOND
     1    1    2 1
     2    1   34 1
     3    1   35 1
     4    1   36 1
     5    2    6 2
     6    2    3 1
     7    3    4 2
     8    3   37 1
     9    4    5 1
    10    4   23 1
    11    5    6 1
    12    6    7 1
    13    7    8 1
    14    7   38 1
    15    7   39 1
    16    8    9 1
    17    8   40 1
    18    8   41 1
    19    9   10 1
    20    9   22 1
    21    9   11 1
    22   11   12 1
    23   11   42 1
    24   11   43 1
    25   12   13 1
    26   12   44 1
    27   13   20 1
    28   13   14 2
    29   14   15 1
    30   14   22 1
    31   15   16 2
    32   15   17 am
    33   17   18 1
    34   17   19 1
    35   19   20 2
    36   19   21 1
    37   21   45 1
    38   21   46 1
    39   23   24 2
    40   23   25 am
    41   25   26 1
    42   25   47 1
    43   26   27 1
    44   26   28 1
    45   26   32 1
    46   28   29 1
    47   28   48 1
    48   28   49 1
    49   29   30 1
    50   29   50 1
    51   29   51 1
    52   30   31 2
    53   30   52 1
    54   32   33 2
    55   32   53 1
@<TRIPOS>MOLECULE
ZINC04617883
   53    55     0     0     0
SMALL
USER_CHARGES

@<TRIPOS>ATOM
      1 C1          3.4586    6.9253    1.3267 C.3       1 <0>        -0.0945
      2 C2          4.4496    6.0782    2.0827 C.2       1 <0>        -0.1299
      3 C3          5.7389    6.5128    2.2638 C.2       1 <0>        -0.0947
      4 C4          6.5926    5.6797    2.9697 C.2       1 <0>        -0.1864
      5 S1          5.5243    4.3047    3.3583 S.3       1 <0>         0.1370
      6 C5          4.0770    4.8754    2.5935 C.2       1 <0>        -0.1859
      7 C6          2.7302    4.2033    2.5188 C.3       1 <0>        -0.0311
      8 C7          2.6637    3.3326    1.2625 C.3       1 <0>        -0.0944
      9 C8          1.2964    2.6502    1.1867 C.3       1 <0>        -0.1139
     10 H1          1.1009    2.1094    2.1127 H         1 <0>         0.1029
     11 C9          1.2637    1.6775   -0.0027 C.3       1 <0>         0.1311
     12 N1         -0.0109    0.9662    0.0062 N.pl3     1 <0>        -0.7323
     13 C10        -1.2331    1.6050    0.0160 C.2       1 <0>         0.4242
     14 C11        -1.3875    2.9235    0.4144 C.2       1 <0>        -0.3378
     15 C12        -2.6687    3.4928    0.4214 C.2       1 <0>         0.5517
     16 O1         -2.8316    4.6531    0.7673 O.2       1 <0>        -0.5164
     17 N2         -3.7189    2.7364    0.0231 N.2       1 <0>        -0.6207
     18 H2         -2.2120   -0.0409   -0.6610 H         1 <0>         0.4170
     19 C13        -3.5166    1.4477   -0.3656 C.2       1 <0>         0.6392
     20 N3         -2.3194    0.9090   -0.3676 N.pl3     1 <0>        -0.6136
     21 N4         -4.5905    0.6929   -0.7653 N.pl3     1 <0>        -0.8229
     22 S2         -0.0021    3.8939    0.9118 S.3       1 <0>        -0.0255
     23 C14         8.0038    5.8789    3.3124 C.2       1 <0>         0.5950
     24 O2          8.5774    6.8941    2.9634 O.2       1 <0>        -0.5366
     25 N5          8.6663    4.9381    4.0141 N.am      1 <0>        -0.6792
     26 C15        10.0767    5.1371    4.3565 C.3       1 <0>         0.0994
     27 H3         10.2573    6.1942    4.5520 H         1 <0>         0.0888
     28 C16        10.4182    4.3218    5.6054 C.3       1 <0>        -0.0864
     29 C17         9.6311    4.8646    6.7998 C.3       1 <0>        -0.1542
     30 C18         9.9675    4.0616    8.0298 C.2       1 <0>         0.4619
     31 O3         10.7560    3.1488    7.9585 O.co2     1 <0>        -0.6388
     32 C19        10.9413    4.6837    3.2086 C.2       1 <0>         0.4657
     33 O4         10.4317    4.2397    2.2071 O.co2     1 <0>        -0.6391
     34 H4          2.9424    7.5878    2.0213 H         1 <0>         0.0663
     35 H5          3.9845    7.5203    0.5799 H         1 <0>         0.0634
     36 H6          2.7324    6.2805    0.8319 H         1 <0>         0.0649
     37 H7          6.0736    7.4627    1.8736 H         1 <0>         0.1438
     38 H8          1.9478    4.9611    2.4775 H         1 <0>         0.0917
     39 H9          2.5859    3.5798    3.4011 H         1 <0>         0.0811
     40 H10         3.4462    2.5748    1.3038 H         1 <0>         0.0880
     41 H11         2.8080    3.9561    0.3802 H         1 <0>         0.0838
     42 H12         2.0816    0.9626    0.0874 H         1 <0>         0.1084
     43 H13         1.3654    2.2334   -0.9348 H         1 <0>         0.0858
     44 H14         0.0024   -0.0037    0.0008 H         1 <0>         0.4031
     45 H15        -4.4599   -0.2267   -1.0444 H         1 <0>         0.4096
     46 H16        -5.4803    1.0792   -0.7688 H         1 <0>         0.4315
     47 H17         8.2092    4.1289    4.2922 H         1 <0>         0.3913
     48 H18        10.1544    3.2772    5.4407 H         1 <0>         0.0580
     49 H19        11.4864    4.3991    5.8088 H         1 <0>         0.0868
     50 H20         9.8950    5.9093    6.9645 H         1 <0>         0.0616
     51 H21         8.5630    4.7874    6.5964 H         1 <0>         0.0573
     52 O5          9.3913    4.3603    9.2048 O.co2     1 <0>        -0.7897
     53 O6         12.2776    4.7730    3.2987 O.co2     1 <0>        -0.7665
@<TRIPOS>BOND
     1    1    2 1
     2    1   34 1
     3    1   35 1
     4    1   36 1
     5    2    6 2
     6    2    3 1
     7    3    4 2
     8    3   37 1
     9    4    5 1
    10    4   23 1
    11    5    6 1
    12    6    7 1
    13    7    8 1
    14    7   38 1
    15    7   39 1
    16    8    9 1
    17    8   40 1
    18    8   41 1
    19    9   10 1
    20    9   22 1
    21    9   11 1
    22   11   12 1
    23   11   42 1
    24   11   43 1
    25   12   13 1
    26   12   44 1
    27   13   14 2
    28   13   20 1
    29   14   22 1
    30   14   15 1
    31   15   17 1
    32   15   16 2
    33   17   19 2
    34   18   20 1
    35   19   21 1
    36   19   20 1
    37   21   45 1
    38   21   46 1
    39   23   24 2
    40   23   25 am
    41   25   26 1
    42   25   47 1
    43   26   27 1
    44   26   28 1
    45   26   32 1
    46   28   29 1
    47   28   48 1
    48   28   49 1
    49   29   30 1
    50   29   50 1
    51   29   51 1
    52   30   31 2
    53   30   52 1
    54   32   33 2
    55   32   53 1
@<TRIPOS>MOLECULE
ZINC04617884
   53    55     0     0     0
SMALL
USER_CHARGES

@<TRIPOS>ATOM
      1 C1          0.1045    8.7498    3.1092 C.3       1 <0>        -0.0903
      2 C2         -0.1679    7.7712    1.9960 C.2       1 <0>        -0.1360
      3 C3         -0.3695    6.4421    2.2736 C.2       1 <0>        -0.0962
      4 C4         -0.6150    5.6028    1.1982 C.2       1 <0>        -0.1892
      5 S1         -0.5423    6.7377   -0.1764 S.3       1 <0>         0.1491
      6 C5         -0.2173    8.1944    0.7056 C.2       1 <0>        -0.1842
      7 C6         -0.0286    9.5904    0.1704 C.3       1 <0>        -0.0309
      8 C7          1.4509    9.8202   -0.1445 C.3       1 <0>        -0.0937
      9 C8          1.6425   11.2376   -0.6879 C.3       1 <0>        -0.1063
     10 H1          1.2341   11.9622    0.0166 H         1 <0>         0.0989
     11 C9          3.1379   11.5130   -0.9114 C.3       1 <0>         0.1267
     12 N1          3.3025   12.9001   -1.3353 N.pl3     1 <0>        -0.7094
     13 C10         2.6432   13.4422   -2.4185 C.2       1 <0>         0.4797
     14 C11         1.4945   12.8853   -2.9546 C.2       1 <0>        -0.3914
     15 C12         0.8728   13.5096   -4.0453 C.2       1 <0>         0.5743
     16 O1         -0.1449   13.0413   -4.5325 O.2       1 <0>        -0.5253
     17 N2          1.4186   14.6373   -4.5470 N.am      1 <0>        -0.6592
     18 H2          0.9883   15.1011   -5.3214 H         1 <0>         0.4191
     19 C13         2.5564   15.1417   -3.9960 C.2       1 <0>         0.6607
     20 N3          3.1414   14.5626   -2.9732 N.2       1 <0>        -0.6164
     21 N4          3.1059   16.2833   -4.5227 N.pl3     1 <0>        -0.8229
     22 S2          0.8076   11.4008   -2.2955 S.3       1 <0>        -0.0404
     23 C14        -0.8633    4.1582    1.1915 C.2       1 <0>         0.5953
     24 O2         -0.8708    3.5372    2.2382 O.2       1 <0>        -0.5383
     25 N5         -1.0832    3.5176    0.0263 N.am      1 <0>        -0.6788
     26 C15        -1.3313    2.0738    0.0196 C.3       1 <0>         0.0997
     27 H3         -1.8950    1.7979    0.9108 H         1 <0>         0.0884
     28 C16        -2.1344    1.7001   -1.2279 C.3       1 <0>        -0.0867
     29 C17        -3.5185    2.3483   -1.1565 C.3       1 <0>        -0.1542
     30 C18        -4.3095    1.9802   -2.3852 C.2       1 <0>         0.4620
     31 O3         -3.8169    1.2721   -3.2312 O.co2     1 <0>        -0.6385
     32 C19        -0.0161    1.3381    0.0094 C.2       1 <0>         0.4656
     33 O4          1.0219    1.9564    0.0028 O.co2     1 <0>        -0.6387
     34 H4          1.1788    8.8132    3.2824 H         1 <0>         0.0634
     35 H5         -0.2773    9.7321    2.8311 H         1 <0>         0.0617
     36 H6         -0.3909    8.4118    4.0194 H         1 <0>         0.0622
     37 H7         -0.3386    6.0669    3.2858 H         1 <0>         0.1426
     38 H8         -0.6170    9.7136   -0.7388 H         1 <0>         0.0860
     39 H9         -0.3577   10.3133    0.9169 H         1 <0>         0.0856
     40 H10         2.0393    9.6970    0.7648 H         1 <0>         0.0857
     41 H11         1.7801    9.0973   -0.8910 H         1 <0>         0.0843
     42 H12         3.6827   11.3479    0.0181 H         1 <0>         0.1032
     43 H13         3.5210   10.8451   -1.6830 H         1 <0>         0.0843
     44 H14         3.9053   13.4682   -0.8306 H         1 <0>         0.4076
     45 H15         3.9167   16.6528   -4.1394 H         1 <0>         0.4269
     46 H16         2.6834   16.7209   -5.2783 H         1 <0>         0.4147
     47 H17        -1.0772    4.0125   -0.8079 H         1 <0>         0.3920
     48 H18        -1.6122    2.0554   -2.1162 H         1 <0>         0.0586
     49 H19        -2.2428    0.6167   -1.2791 H         1 <0>         0.0867
     50 H20        -4.0408    1.9929   -0.2682 H         1 <0>         0.0612
     51 H21        -3.4101    3.4317   -1.1052 H         1 <0>         0.0577
     52 O5         -5.5615    2.4391   -2.5398 O.co2     1 <0>        -0.7900
     53 O6          0.0021   -0.0041    0.0020 O.co2     1 <0>        -0.7670
@<TRIPOS>BOND
     1    1    2 1
     2    1   34 1
     3    1   35 1
     4    1   36 1
     5    2    6 2
     6    2    3 1
     7    3    4 2
     8    3   37 1
     9    4    5 1
    10    4   23 1
    11    5    6 1
    12    6    7 1
    13    7    8 1
    14    7   38 1
    15    7   39 1
    16    8    9 1
    17    8   40 1
    18    8   41 1
    19    9   10 1
    20    9   22 1
    21    9   11 1
    22   11   12 1
    23   11   42 1
    24   11   43 1
    25   12   13 1
    26   12   44 1
    27   13   20 1
    28   13   14 2
    29   14   15 1
    30   14   22 1
    31   15   16 2
    32   15   17 am
    33   17   18 1
    34   17   19 1
    35   19   20 2
    36   19   21 1
    37   21   45 1
    38   21   46 1
    39   23   24 2
    40   23   25 am
    41   25   26 1
    42   25   47 1
    43   26   27 1
    44   26   28 1
    45   26   32 1
    46   28   29 1
    47   28   48 1
    48   28   49 1
    49   29   30 1
    50   29   50 1
    51   29   51 1
    52   30   31 2
    53   30   52 1
    54   32   33 2
    55   32   53 1
@<TRIPOS>MOLECULE
ZINC04617884
   53    55     0     0     0
SMALL
USER_CHARGES

@<TRIPOS>ATOM
      1 C1          0.1024    8.7526    3.1110 C.3       1 <0>        -0.0901
      2 C2         -0.1700    7.7736    1.9981 C.2       1 <0>        -0.1354
      3 C3         -0.3718    6.4447    2.2761 C.2       1 <0>        -0.0971
      4 C4         -0.6173    5.6051    1.2009 C.2       1 <0>        -0.1882
      5 S1         -0.5442    6.7395   -0.1740 S.3       1 <0>         0.1513
      6 C5         -0.2191    8.1964    0.7075 C.2       1 <0>        -0.1861
      7 C6         -0.0301    9.5922    0.1719 C.3       1 <0>        -0.0313
      8 C7          1.4495    9.8217   -0.1429 C.3       1 <0>        -0.0940
      9 C8          1.6414   11.2389   -0.6867 C.3       1 <0>        -0.1153
     10 H1          1.2330   11.9638    0.0175 H         1 <0>         0.1010
     11 C9          3.1369   11.5139   -0.9101 C.3       1 <0>         0.1316
     12 N1          3.3017   12.9009   -1.3344 N.pl3     1 <0>        -0.7335
     13 C10         2.6427   13.4427   -2.4179 C.2       1 <0>         0.4196
     14 C11         1.4940   12.8858   -2.9540 C.2       1 <0>        -0.3342
     15 C12         0.8682   13.5140   -4.0401 C.2       1 <0>         0.5500
     16 O1         -0.1496   13.0458   -4.5272 O.2       1 <0>        -0.5122
     17 N2          1.4097   14.6459   -4.5370 N.2       1 <0>        -0.6190
     18 H2          3.9722   14.9682   -2.5923 H         1 <0>         0.4160
     19 C13         2.5477   15.1502   -3.9863 C.2       1 <0>         0.6386
     20 N3          3.1367   14.5672   -2.9680 N.pl3     1 <0>        -0.6134
     21 N4          3.0928   16.2962   -4.5081 N.pl3     1 <0>        -0.8232
     22 S2          0.8067   11.4017   -2.2945 S.3       1 <0>        -0.0185
     23 C14        -0.8659    4.1605    1.1947 C.2       1 <0>         0.5950
     24 O2         -0.8736    3.5398    2.2416 O.2       1 <0>        -0.5382
     25 N5         -1.0857    3.5195    0.0297 N.am      1 <0>        -0.6785
     26 C15        -1.3340    2.0758    0.0234 C.3       1 <0>         0.0996
     27 H3         -1.8979    1.8003    0.9146 H         1 <0>         0.0885
     28 C16        -2.1370    1.7018   -1.2241 C.3       1 <0>        -0.0868
     29 C17        -3.5210    2.3502   -1.1531 C.3       1 <0>        -0.1542
     30 C18        -4.3119    1.9819   -2.3818 C.2       1 <0>         0.4619
     31 O3         -3.8193    1.2734   -3.2275 O.co2     1 <0>        -0.6385
     32 C19        -0.0189    1.3399    0.0137 C.2       1 <0>         0.4658
     33 O4          1.0192    1.9580    0.0070 O.co2     1 <0>        -0.6390
     34 H4          1.1767    8.8159    3.2843 H         1 <0>         0.0629
     35 H5         -0.2792    9.7348    2.8325 H         1 <0>         0.0615
     36 H6         -0.3932    8.4150    4.0212 H         1 <0>         0.0625
     37 H7         -0.3412    6.0698    3.2884 H         1 <0>         0.1427
     38 H8         -0.6184    9.7152   -0.7374 H         1 <0>         0.0866
     39 H9         -0.3592   10.3154    0.9181 H         1 <0>         0.0859
     40 H10         2.0377    9.6987    0.7666 H         1 <0>         0.0859
     41 H11         1.7787    9.0985   -0.8891 H         1 <0>         0.0849
     42 H12         3.6815   11.3491    0.0195 H         1 <0>         0.1058
     43 H13         3.5200   10.8457   -1.6814 H         1 <0>         0.0867
     44 H14         3.9046   13.4690   -0.8298 H         1 <0>         0.4018
     45 H15         3.9037   16.6656   -4.1249 H         1 <0>         0.4090
     46 H16         2.6672   16.7369   -5.2601 H         1 <0>         0.4316
     47 H17        -1.0795    4.0142   -0.8047 H         1 <0>         0.3921
     48 H18        -1.6146    2.0567   -2.1124 H         1 <0>         0.0587
     49 H19        -2.2456    0.6184   -1.2749 H         1 <0>         0.0868
     50 H20        -4.0435    1.9952   -0.2648 H         1 <0>         0.0611
     51 H21        -3.4124    3.4336   -1.1022 H         1 <0>         0.0576
     52 O5         -5.5638    2.4409   -2.5367 O.co2     1 <0>        -0.7896
     53 O6         -0.0010   -0.0023    0.0067 O.co2     1 <0>        -0.7667
@<TRIPOS>BOND
     1    1    2 1
     2    1   34 1
     3    1   35 1
     4    1   36 1
     5    2    6 2
     6    2    3 1
     7    3    4 2
     8    3   37 1
     9    4    5 1
    10    4   23 1
    11    5    6 1
    12    6    7 1
    13    7    8 1
    14    7   38 1
    15    7   39 1
    16    8    9 1
    17    8   40 1
    18    8   41 1
    19    9   10 1
    20    9   22 1
    21    9   11 1
    22   11   12 1
    23   11   42 1
    24   11   43 1
    25   12   13 1
    26   12   44 1
    27   13   14 2
    28   13   20 1
    29   14   22 1
    30   14   15 1
    31   15   17 1
    32   15   16 2
    33   17   19 2
    34   18   20 1
    35   19   21 1
    36   19   20 1
    37   21   45 1
    38   21   46 1
    39   23   24 2
    40   23   25 am
    41   25   26 1
    42   25   47 1
    43   26   27 1
    44   26   28 1
    45   26   32 1
    46   28   29 1
    47   28   48 1
    48   28   49 1
    49   29   30 1
    50   29   50 1
    51   29   51 1
    52   30   31 2
    53   30   52 1
    54   32   33 2
    55   32   53 1
