@<TRIPOS>MOLECULE
ZINC00004778
   34    37     0     0     0
SMALL
USER_CHARGES

@<TRIPOS>ATOM
      1 C1          1.2009    3.5776    0.0093 C.3       1 <0>        -0.1171
      2 C2          1.1846    2.0707    0.0019 C.ar      1 <0>        -0.0485
      3 C3         -0.0166    1.3754    0.0096 C.ar      1 <0>        -0.1578
      4 C4          0.0021   -0.0041    0.0020 C.ar      1 <0>         0.1156
      5 N1          1.1438   -0.6656    0.0011 N.ar      1 <0>        -0.4763
      6 C5          2.3142   -0.0435    0.0086 C.ar      1 <0>         0.3673
      7 C6          2.3733    1.3479   -0.0124 C.ar      1 <0>         0.0849
      8 N2          3.5842    2.0329   -0.0667 N.am      1 <0>        -0.6433
      9 C7          4.6968    1.7301    0.5850 C.2       1 <0>         0.5792
     10 O1          5.6525    2.4641    0.4238 O.2       1 <0>        -0.5253
     11 C8          4.8747    0.5864    1.4842 C.ar      1 <0>        -0.2003
     12 C9          5.6243    0.7273    2.6581 C.ar      1 <0>        -0.0033
     13 C10         5.8044   -0.3850    3.4615 C.ar      1 <0>        -0.1891
     14 C11         5.2491   -1.5942    3.0834 C.ar      1 <0>         0.1472
     15 N3          4.5338   -1.7020    1.9810 N.ar      1 <0>        -0.4921
     16 C12         4.3102   -0.6636    1.1889 C.ar      1 <0>         0.4133
     17 N4          3.4817   -0.8033    0.0877 N.pl3     1 <0>        -0.5541
     18 C13         3.8275   -1.7407   -0.9837 C.3       1 <0>         0.1069
     19 C14         5.0054   -2.6867   -0.7418 C.3       1 <0>        -0.1739
     20 C15         5.1508   -1.5170   -1.7183 C.3       1 <0>        -0.2003
     21 H1          1.2144    3.9357    1.0386 H         1 <0>         0.0839
     22 H2          2.0899    3.9339   -0.5111 H         1 <0>         0.0692
     23 H3          0.3101    3.9531   -0.4944 H         1 <0>         0.0826
     24 H4         -0.9559    1.9085    0.0170 H         1 <0>         0.1477
     25 H5         -0.9300   -0.5497   -0.0029 H         1 <0>         0.1677
     26 H6          3.6165    2.8132   -0.6421 H         1 <0>         0.4115
     27 H7          6.0515    1.6812    2.9303 H         1 <0>         0.1491
     28 H8          6.3735   -0.3095    4.3763 H         1 <0>         0.1496
     29 H9          5.4038   -2.4655    3.7025 H         1 <0>         0.1689
     30 H10         2.9875   -2.1213   -1.5647 H         1 <0>         0.1323
     31 H11         5.5230   -2.6116    0.2146 H         1 <0>         0.1037
     32 H12         4.9405   -3.6896   -1.1639 H         1 <0>         0.1056
     33 H13         5.1815   -1.7507   -2.7825 H         1 <0>         0.1046
     34 H14         5.7640   -0.6721   -1.4047 H         1 <0>         0.0905
@<TRIPOS>BOND
     1    1    2 1
     2    1   21 1
     3    1   22 1
     4    1   23 1
     5    2    7 ar
     6    2    3 ar
     7    3    4 ar
     8    3   24 1
     9    4    5 ar
    10    4   25 1
    11    5    6 ar
    12    6   17 1
    13    6    7 ar
    14    7    8 1
    15    8    9 am
    16    8   26 1
    17    9   10 2
    18    9   11 1
    19   11   16 ar
    20   11   12 ar
    21   12   13 ar
    22   12   27 1
    23   13   14 ar
    24   13   28 1
    25   14   15 ar
    26   14   29 1
    27   15   16 ar
    28   16   17 1
    29   17   18 1
    30   18   20 1
    31   18   19 1
    32   18   30 1
    33   19   20 1
    34   19   31 1
    35   19   32 1
    36   20   33 1
    37   20   34 1
@<TRIPOS>MOLECULE
ZINC00005563
   40    43     0     0     0
SMALL
USER_CHARGES

@<TRIPOS>ATOM
      1 C1         -0.0127    1.0858    0.0080 C.3       1 <0>        -0.1689
      2 C2         -0.7288    1.5792    1.2668 C.3       1 <0>         0.1372
      3 N1         -2.1032    1.0722    1.2772 N.pl3     1 <0>        -0.5810
      4 C3         -3.1138    1.8211    0.6927 C.ar      1 <0>         0.3936
      5 C4         -3.8290    1.3014   -0.4000 C.ar      1 <0>        -0.0752
      6 C5         -4.8643    2.0519   -0.9563 C.ar      1 <0>        -0.0209
      7 C6         -5.1341    3.2999   -0.4139 C.ar      1 <0>        -0.1779
      8 C7         -4.3749    3.7545    0.6468 C.ar      1 <0>         0.1297
      9 N2         -3.4050    3.0217    1.1605 N.ar      1 <0>        -0.4927
     10 C8         -3.4882   -0.0244   -0.9561 C.2       1 <0>         0.2559
     11 N3         -3.5405   -0.3511   -2.2316 N.2       1 <0>        -0.4623
     12 C9         -3.1548   -1.6236   -2.3794 C.2       1 <0>        -0.0116
     13 C10        -2.8509   -2.1201   -1.1638 C.2       1 <0>        -0.0189
     14 N4         -3.0635   -1.1136   -0.2545 N.pl3     1 <0>        -0.3837
     15 C11        -2.8733   -1.2189    1.1331 C.ar      1 <0>         0.0228
     16 C12        -2.3793   -0.1526    1.8786 C.ar      1 <0>         0.4321
     17 N5         -2.1673   -0.2915    3.1819 N.ar      1 <0>        -0.5352
     18 C13        -2.4255   -1.4237    3.8149 C.ar      1 <0>         0.3485
     19 C14        -2.9338   -2.5193    3.1341 C.ar      1 <0>        -0.1791
     20 C15        -3.1629   -2.4197    1.7701 C.ar      1 <0>        -0.0316
     21 O1         -2.1904   -1.5140    5.1486 O.3       1 <0>        -0.2996
     22 C16        -1.6670   -0.3521    5.7952 C.3       1 <0>         0.0379
     23 C17        -2.3688   -3.5152   -0.8602 C.3       1 <0>        -0.0832
     24 H1          0.0021   -0.0041    0.0020 H         1 <0>         0.0513
     25 H2          1.0099    1.4631    0.0003 H         1 <0>         0.0717
     26 H3         -0.5399    1.4469   -0.8751 H         1 <0>         0.0571
     27 H4         -0.2017    1.2182    2.1499 H         1 <0>         0.0796
     28 H5         -0.7436    2.6691    1.2728 H         1 <0>         0.0847
     29 H6         -5.4402    1.6720   -1.7871 H         1 <0>         0.1495
     30 H7         -5.9292    3.9097   -0.8168 H         1 <0>         0.1481
     31 H8         -4.5788    4.7297    1.0638 H         1 <0>         0.1658
     32 H9         -3.0962   -2.1614   -3.3141 H         1 <0>         0.1792
     33 H10        -3.1480   -3.4385    3.6591 H         1 <0>         0.1590
     34 H11        -3.5580   -3.2574    1.2146 H         1 <0>         0.1580
     35 H12        -0.7099   -0.0866    5.3464 H         1 <0>         0.0616
     36 H13        -2.3661    0.4758    5.6765 H         1 <0>         0.0621
     37 H14        -1.5259   -0.5591    6.8561 H         1 <0>         0.1017
     38 H15        -3.2252   -4.1623   -0.6705 H         1 <0>         0.0780
     39 H16        -1.8056   -3.8982   -1.7112 H         1 <0>         0.0887
     40 H17        -1.7270   -3.4943    0.0206 H         1 <0>         0.0681
@<TRIPOS>BOND
     1    1    2 1
     2    1   24 1
     3    1   25 1
     4    1   26 1
     5    2    3 1
     6    2   27 1
     7    2   28 1
     8    3   16 1
     9    3    4 1
    10    4    9 ar
    11    4    5 ar
    12    5    6 ar
    13    5   10 1
    14    6    7 ar
    15    6   29 1
    16    7    8 ar
    17    7   30 1
    18    8    9 ar
    19    8   31 1
    20   10   14 1
    21   10   11 2
    22   11   12 1
    23   12   13 2
    24   12   32 1
    25   13   14 1
    26   13   23 1
    27   14   15 1
    28   15   20 ar
    29   15   16 ar
    30   16   17 ar
    31   17   18 ar
    32   18   19 ar
    33   18   21 1
    34   19   20 ar
    35   19   33 1
    36   20   34 1
    37   21   22 1
    38   22   35 1
    39   22   36 1
    40   22   37 1
    41   23   38 1
    42   23   39 1
    43   23   40 1
@<TRIPOS>MOLECULE
ZINC00005722
   32    33     0     0     0
SMALL
USER_CHARGES

@<TRIPOS>ATOM
      1 C1          1.1971    1.7993   -0.0168 C.ar      1 <0>        -0.0721
      2 C2          0.0128    1.0780   -0.0076 C.ar      1 <0>        -0.1728
      3 C3         -1.1899    1.7583    0.0055 C.ar      1 <0>         0.1066
      4 N1         -1.2190    3.0767    0.0205 N.ar      1 <0>        -0.4774
      5 C4         -0.1132    3.7948    0.0122 C.ar      1 <0>         0.1285
      6 C5          1.1265    3.1837   -0.0067 C.ar      1 <0>        -0.1662
      7 C6         -0.2019    5.2992    0.0229 C.3       1 <0>        -0.0814
      8 C7         -1.0721    5.7670   -1.1454 C.3       1 <0>         0.1321
      9 N2         -1.1584    7.2294   -1.1350 N.pl3     1 <0>        -0.6819
     10 C8         -1.8779    7.8688   -2.0784 C.2       1 <0>         0.5206
     11 S1         -2.6910    6.9719   -3.2889 S.2       1 <0>        -0.4978
     12 N3         -1.9572    9.2142   -2.0689 N.pl3     1 <0>        -0.6191
     13 C9         -2.6092    9.8811   -3.1045 C.ar      1 <0>         0.3547
     14 C10        -2.5942   11.2710   -3.1457 C.ar      1 <0>        -0.1932
     15 C11        -3.2407   11.9206   -4.1819 C.ar      1 <0>        -0.0244
     16 C12        -3.8926   11.1545   -5.1401 C.ar      1 <0>        -0.1691
     17 C13        -3.8714    9.7774   -5.0335 C.ar      1 <0>         0.1560
     18 N4         -3.2414    9.1858   -4.0365 N.ar      1 <0>        -0.4030
     19 Br1        -4.7986   11.9880   -6.5755 Br        1 <0>        -0.0386
     20 H1          2.1518    1.2945   -0.0312 H         1 <0>         0.1365
     21 H2          0.0302   -0.0019   -0.0150 H         1 <0>         0.1373
     22 H3         -2.1167    1.2039    0.0079 H         1 <0>         0.1593
     23 H4          2.0287    3.7774   -0.0131 H         1 <0>         0.1350
     24 H5         -0.6456    5.6303    0.9618 H         1 <0>         0.0906
     25 H6          0.7975    5.7228   -0.0761 H         1 <0>         0.0865
     26 H7         -0.6284    5.4359   -2.0843 H         1 <0>         0.0880
     27 H8         -2.0715    5.3434   -1.0464 H         1 <0>         0.1021
     28 H9         -0.6977    7.7376   -0.4491 H         1 <0>         0.3956
     29 H10        -1.5606    9.7182   -1.3412 H         1 <0>         0.4098
     30 H11        -2.0808   11.8356   -2.3814 H         1 <0>         0.1412
     31 H12        -3.2423   12.9989   -4.2422 H         1 <0>         0.1481
     32 H13        -4.3766    9.1773   -5.7759 H         1 <0>         0.1685
@<TRIPOS>BOND
     1    1    6 ar
     2    1    2 ar
     3    1   20 1
     4    2    3 ar
     5    2   21 1
     6    3    4 ar
     7    3   22 1
     8    4    5 ar
     9    5    6 ar
    10    5    7 1
    11    6   23 1
    12    7    8 1
    13    7   24 1
    14    7   25 1
    15    8    9 1
    16    8   26 1
    17    8   27 1
    18    9   10 1
    19    9   28 1
    20   10   11 2
    21   10   12 1
    22   12   13 1
    23   12   29 1
    24   13   18 ar
    25   13   14 ar
    26   14   15 ar
    27   14   30 1
    28   15   16 ar
    29   15   31 1
    30   16   17 ar
    31   16   19 1
    32   17   18 ar
    33   17   32 1
@<TRIPOS>MOLECULE
ZINC00005723
   30    31     0     0     0
SMALL
USER_CHARGES

@<TRIPOS>ATOM
      1 C1          8.4280    2.9547   -0.0625 C.ar      1 <0>        -0.1176
      2 C2          7.8456    2.5945    1.1383 C.ar      1 <0>        -0.1175
      3 C3          6.6578    1.8875    1.1458 C.ar      1 <0>        -0.1114
      4 C4          6.0526    1.5402   -0.0475 C.ar      1 <0>        -0.0861
      5 C5          6.6379    1.8954   -1.2484 C.ar      1 <0>        -0.1114
      6 C6          7.8230    2.6070   -1.2559 C.ar      1 <0>        -0.1175
      7 C7          4.7579    0.7690   -0.0392 C.3       1 <0>        -0.0924
      8 C8          3.5816    1.7473   -0.0228 C.3       1 <0>         0.1289
      9 N1          2.3230    0.9976   -0.0148 N.pl3     1 <0>        -0.6787
     10 C9          1.1468    1.6555   -0.0000 C.2       1 <0>         0.5247
     11 S1          1.1236    3.3673    0.0094 S.2       1 <0>        -0.5062
     12 N2         -0.0111    0.9658    0.0074 N.pl3     1 <0>        -0.5818
     13 C10        -1.2236    1.6441    0.0168 C.2       1 <0>         0.2872
     14 N3         -1.4459    2.9441    0.0308 N.2       1 <0>        -0.4475
     15 C11        -2.6731    3.4273    0.0347 C.2       1 <0>         0.0459
     16 C12        -3.7106    2.5554    0.0347 C.2       1 <0>        -0.2155
     17 S2         -2.8353    0.9977    0.0209 S.3       1 <0>         0.0447
     18 H1          9.3558    3.5074   -0.0684 H         1 <0>         0.1231
     19 H2          8.3185    2.8658    2.0706 H         1 <0>         0.1238
     20 H3          6.2028    1.6061    2.0840 H         1 <0>         0.1224
     21 H4          6.1673    1.6203   -2.1807 H         1 <0>         0.1224
     22 H5          8.2781    2.8881   -2.1941 H         1 <0>         0.1238
     23 H6          4.7171    0.1368    0.8478 H         1 <0>         0.0808
     24 H7          4.7001    0.1464   -0.9321 H         1 <0>         0.0808
     25 H8          3.6224    2.3795   -0.9098 H         1 <0>         0.0924
     26 H9          3.6393    2.3699    0.8701 H         1 <0>         0.0924
     27 H10         2.3361    0.0277   -0.0201 H         1 <0>         0.3974
     28 H11         0.0021   -0.0041    0.0020 H         1 <0>         0.4168
     29 H12        -2.8472    4.4931    0.0424 H         1 <0>         0.1753
     30 H13        -4.7732    2.7488    0.0411 H         1 <0>         0.2008
@<TRIPOS>BOND
     1    1    6 ar
     2    1    2 ar
     3    1   18 1
     4    2    3 ar
     5    2   19 1
     6    3    4 ar
     7    3   20 1
     8    4    5 ar
     9    4    7 1
    10    5    6 ar
    11    5   21 1
    12    6   22 1
    13    7    8 1
    14    7   23 1
    15    7   24 1
    16    8    9 1
    17    8   25 1
    18    8   26 1
    19    9   10 1
    20    9   27 1
    21   10   11 2
    22   10   12 1
    23   12   13 1
    24   12   28 1
    25   13   17 1
    26   13   14 2
    27   14   15 1
    28   15   16 2
    29   15   29 1
    30   16   17 1
    31   16   30 1
@<TRIPOS>MOLECULE
ZINC00006488
   42    43     0     0     0
SMALL
USER_CHARGES

@<TRIPOS>ATOM
      1 C1         -4.9080    2.4540    3.8589 C.3       1 <0>        -0.1509
      2 C2         -4.3150    1.9557    5.1783 C.3       1 <0>         0.0948
      3 C3         -5.0241    0.6678    5.6020 C.3       1 <0>        -0.1724
      4 O1         -2.8978    1.6927    5.0032 O.3       1 <0>        -0.3496
      5 C4         -2.1081    1.8548    6.0817 C.2       1 <0>         0.6634
      6 O2         -2.5901    2.2064    7.1403 O.2       1 <0>        -0.5249
      7 N1         -0.7831    1.6271    5.9872 N.am      1 <0>        -0.5414
      8 C5         -0.2027    1.2201    4.7751 C.ar      1 <0>         0.1782
      9 C6         -0.7486    1.5955    3.5613 C.ar      1 <0>        -0.1369
     10 C7         -0.1485    1.1819    2.3802 C.ar      1 <0>         0.1587
     11 C8          0.9915    0.3920    2.4191 C.ar      1 <0>        -0.1978
     12 C9          1.5415    0.0202    3.6316 C.ar      1 <0>        -0.0605
     13 C10         0.9459    0.4277    4.8147 C.ar      1 <0>         0.0402
     14 N2          1.4823    0.0504    6.0523 N.pl3     1 <0>        -0.5530
     15 C11         1.0881    0.6582    7.1871 C.2       1 <0>         0.3114
     16 S1          1.7163    0.1321    8.6903 S.2       1 <0>        -0.4899
     17 C12         0.1007    1.7965    7.1502 C.3       1 <0>         0.2017
     18 H1         -0.4940    1.7931    8.0637 H         1 <0>         0.1631
     19 C13         0.8534    3.1233    7.0322 C.3       1 <0>        -0.1095
     20 S2         -0.3266    4.4980    7.1233 S.3       1 <0>        -0.2110
     21 C14         0.7111    5.9780    6.9701 C.3       1 <0>        -0.1295
     22 O3         -0.6816    1.5467    1.1837 O.3       1 <0>        -0.3066
     23 C15        -0.0127    1.0858    0.0080 C.3       1 <0>         0.0233
     24 H2         -4.7719    1.6942    3.0893 H         1 <0>         0.0693
     25 H3         -5.9719    2.6514    3.9903 H         1 <0>         0.0835
     26 H4         -4.4029    3.3715    3.5570 H         1 <0>         0.0672
     27 H5         -4.4512    2.7155    5.9478 H         1 <0>         0.0926
     28 H6         -4.6016    0.3128    6.5419 H         1 <0>         0.0627
     29 H7         -6.0880    0.8652    5.7334 H         1 <0>         0.0792
     30 H8         -4.8879   -0.0920    4.8324 H         1 <0>         0.0660
     31 H9         -1.6376    2.2080    3.5326 H         1 <0>         0.1626
     32 H10         1.4538    0.0697    1.4978 H         1 <0>         0.1442
     33 H11         2.4318   -0.5907    3.6568 H         1 <0>         0.1446
     34 H12         2.1449   -0.6569    6.0922 H         1 <0>         0.4327
     35 H13         1.5723    3.2069    7.8473 H         1 <0>         0.1153
     36 H14         1.3798    3.1588    6.0784 H         1 <0>         0.0896
     37 H15         1.4330    6.0016    7.7864 H         1 <0>         0.0805
     38 H16         1.2405    5.9535    6.0176 H         1 <0>         0.0763
     39 H17         0.0835    6.8680    7.0142 H         1 <0>         0.1071
     40 H18         0.0021   -0.0041    0.0020 H         1 <0>         0.0602
     41 H19         1.0099    1.4631    0.0003 H         1 <0>         0.0598
     42 H20        -0.5399    1.4469   -0.8751 H         1 <0>         0.1059
@<TRIPOS>BOND
     1    1    2 1
     2    1   24 1
     3    1   25 1
     4    1   26 1
     5    2    3 1
     6    2    4 1
     7    2   27 1
     8    3   28 1
     9    3   29 1
    10    3   30 1
    11    4    5 1
    12    5    6 2
    13    5    7 am
    14    7   17 1
    15    7    8 1
    16    8   13 ar
    17    8    9 ar
    18    9   10 ar
    19    9   31 1
    20   10   11 ar
    21   10   22 1
    22   11   12 ar
    23   11   32 1
    24   12   13 ar
    25   12   33 1
    26   13   14 1
    27   14   15 1
    28   14   34 1
    29   15   16 2
    30   15   17 1
    31   17   18 1
    32   17   19 1
    33   19   20 1
    34   19   35 1
    35   19   36 1
    36   20   21 1
    37   21   37 1
    38   21   38 1
    39   21   39 1
    40   22   23 1
    41   23   40 1
    42   23   41 1
    43   23   42 1
@<TRIPOS>MOLECULE
ZINC00006595
   38    38     0     0     0
SMALL
USER_CHARGES

@<TRIPOS>ATOM
      1 C1         -8.0791    4.1069    1.0857 C.3       1 <0>        -0.1717
      2 C2         -7.5318    3.9007   -0.3282 C.3       1 <0>         0.0834
      3 C3         -7.4923    5.2434   -1.0606 C.3       1 <0>        -0.1507
      4 O1         -6.1899    3.3512   -0.2523 O.3       1 <0>        -0.3510
      5 C4         -6.0790    2.0087   -0.2343 C.2       1 <0>         0.5059
      6 O2         -7.0759    1.3161   -0.2806 O.2       1 <0>        -0.4784
      7 C5         -4.7455    1.3790   -0.1582 C.ar      1 <0>        -0.1138
      8 C6         -3.5981    2.1723   -0.1048 C.ar      1 <0>        -0.0481
      9 C7         -2.3506    1.5741   -0.0331 C.ar      1 <0>         0.1085
     10 C8         -2.2430    0.1880   -0.0201 C.ar      1 <0>        -0.0239
     11 C9         -3.3778   -0.5988   -0.0670 C.ar      1 <0>        -0.1115
     12 C10        -4.6273   -0.0134   -0.1388 C.ar      1 <0>         0.0293
     13 Cl1        -6.0495   -1.0068   -0.2042 Cl        1 <0>        -0.0192
     14 N1         -1.1974    2.3657    0.0206 N.pl3     1 <0>        -0.5919
     15 C11        -0.1920    2.0361    0.8555 C.2       1 <0>         0.5034
     16 S1         -0.3812    0.7344    1.9512 S.2       1 <0>        -0.5805
     17 O3          0.9642    2.7277    0.8240 O.3       1 <0>        -0.3086
     18 C12         2.0055    2.3134    1.7473 C.3       1 <0>         0.0796
     19 C13         2.8888    1.2576    1.0794 C.3       1 <0>        -0.1705
     20 C14         2.8590    3.5242    2.1301 C.3       1 <0>        -0.1523
     21 H1         -8.1072    3.1503    1.6074 H         1 <0>         0.0631
     22 H2         -7.4336    4.7978    1.6280 H         1 <0>         0.0665
     23 H3         -9.0864    4.5194    1.0287 H         1 <0>         0.0770
     24 H4         -8.1772    3.2098   -0.8705 H         1 <0>         0.0883
     25 H5         -7.1024    5.0966   -2.0678 H         1 <0>         0.0650
     26 H6         -8.4996    5.6560   -1.1175 H         1 <0>         0.0808
     27 H7         -6.8468    5.9343   -0.5182 H         1 <0>         0.0679
     28 H8         -3.6826    3.2489   -0.1198 H         1 <0>         0.1526
     29 H9         -1.2689   -0.2754    0.0315 H         1 <0>         0.1581
     30 H10        -3.2876   -1.6749   -0.0525 H         1 <0>         0.1538
     31 H11        -1.1218    3.1514   -0.5431 H         1 <0>         0.4206
     32 H12         1.5500    1.8921    2.6434 H         1 <0>         0.1215
     33 H13         2.2808    0.3950    0.8067 H         1 <0>         0.0717
     34 H14         3.3443    1.6790    0.1833 H         1 <0>         0.0641
     35 H15         3.6704    0.9466    1.7725 H         1 <0>         0.0852
     36 H16         2.2297    4.2764    2.6059 H         1 <0>         0.0672
     37 H17         3.6407    3.2132    2.8232 H         1 <0>         0.0904
     38 H18         3.3145    3.9456    1.2340 H         1 <0>         0.0683
@<TRIPOS>BOND
     1    1    2 1
     2    1   21 1
     3    1   22 1
     4    1   23 1
     5    2    3 1
     6    2    4 1
     7    2   24 1
     8    3   25 1
     9    3   26 1
    10    3   27 1
    11    4    5 1
    12    5    6 2
    13    5    7 1
    14    7   12 ar
    15    7    8 ar
    16    8    9 ar
    17    8   28 1
    18    9   10 ar
    19    9   14 1
    20   10   11 ar
    21   10   29 1
    22   11   12 ar
    23   11   30 1
    24   12   13 1
    25   14   15 1
    26   14   31 1
    27   15   16 2
    28   15   17 1
    29   17   18 1
    30   18   19 1
    31   18   20 1
    32   18   32 1
    33   19   33 1
    34   19   34 1
    35   19   35 1
    36   20   36 1
    37   20   37 1
    38   20   38 1
@<TRIPOS>MOLECULE
ZINC00006732
   40    41     0     0     0
SMALL
USER_CHARGES

@<TRIPOS>ATOM
      1 C1          5.2911    1.4713    7.1965 C.3       1 <0>        -0.1119
      2 C2          5.1422    0.0101    6.8589 C.2       1 <0>         0.1339
      3 C3          4.1342   -0.5403    6.1220 C.2       1 <0>        -0.2387
      4 C4          4.4203   -1.9818    6.0747 C.2       1 <0>        -0.1931
      5 C5          5.5569   -2.1554    6.7665 C.2       1 <0>        -0.0239
      6 O1          5.9751   -0.9677    7.2309 O.3       1 <0>        -0.1701
      7 C6          2.9948    0.1615    5.5080 C.2       1 <0>         0.4140
      8 S1          2.8366    1.8568    5.6870 S.2       1 <0>        -0.5348
      9 N1          2.0765   -0.5306    4.8052 N.pl3     1 <0>        -0.5919
     10 C7          1.0415    0.1453    4.1511 C.ar      1 <0>         0.1437
     11 C8          0.3446    1.1523    4.8074 C.ar      1 <0>        -0.0925
     12 C9         -0.6773    1.8203    4.1613 C.ar      1 <0>        -0.0647
     13 C10        -1.0060    1.4925    2.8586 C.ar      1 <0>        -0.0575
     14 C11        -0.3161    0.4833    2.2000 C.ar      1 <0>         0.1465
     15 C12         0.7097   -0.1888    2.8454 C.ar      1 <0>        -0.1993
     16 O2         -0.6430    0.1587    0.9212 O.3       1 <0>        -0.2936
     17 C13         0.1125   -0.8851    0.3035 C.3       1 <0>         0.0873
     18 C14        -0.3882   -1.1041   -1.1010 C.2       1 <0>        -0.1744
     19 C15         0.4641   -1.2771   -2.0807 C.2       1 <0>        -0.1044
     20 C16         1.9280   -1.4712   -1.7804 C.3       1 <0>        -0.1332
     21 C17        -0.0195   -1.2820   -3.5080 C.3       1 <0>        -0.1202
     22 Cl1        -2.2863    2.3395    2.0480 Cl        1 <0>        -0.0488
     23 H1          4.7780    1.6815    8.1349 H         1 <0>         0.0993
     24 H2          6.3486    1.7148    7.2981 H         1 <0>         0.0776
     25 H3          4.8542    2.0744    6.4005 H         1 <0>         0.1413
     26 H4          3.8362   -2.7448    5.5817 H         1 <0>         0.1573
     27 H5          6.0533   -3.1009    6.9282 H         1 <0>         0.2133
     28 H6          2.1333   -1.4975    4.7530 H         1 <0>         0.4141
     29 H7          0.6019    1.4127    5.8235 H         1 <0>         0.1565
     30 H8         -1.2177    2.6031    4.6729 H         1 <0>         0.1490
     31 H9          1.2498   -0.9714    2.3334 H         1 <0>         0.1385
     32 H10        -0.0016   -1.8047    0.8774 H         1 <0>         0.0686
     33 H11         1.1650   -0.6034    0.2742 H         1 <0>         0.0742
     34 H12        -1.4496   -1.1184   -1.2998 H         1 <0>         0.1227
     35 H13         2.0712   -1.5445   -0.7023 H         1 <0>         0.0637
     36 H14         2.2783   -2.3870   -2.2566 H         1 <0>         0.0739
     37 H15         2.4935   -0.6225   -2.1651 H         1 <0>         0.0713
     38 H16         0.0095   -0.2673   -3.9049 H         1 <0>         0.0746
     39 H17         0.6246   -1.9252   -4.1076 H         1 <0>         0.0649
     40 H18        -1.0423   -1.6571   -3.5438 H         1 <0>         0.0669
@<TRIPOS>BOND
     1    1    2 1
     2    1   23 1
     3    1   24 1
     4    1   25 1
     5    2    6 1
     6    2    3 2
     7    3    4 1
     8    3    7 1
     9    4    5 2
    10    4   26 1
    11    5    6 1
    12    5   27 1
    13    7    8 2
    14    7    9 1
    15    9   10 1
    16    9   28 1
    17   10   15 ar
    18   10   11 ar
    19   11   12 ar
    20   11   29 1
    21   12   13 ar
    22   12   30 1
    23   13   14 ar
    24   13   22 1
    25   14   15 ar
    26   14   16 1
    27   15   31 1
    28   16   17 1
    29   17   18 1
    30   17   32 1
    31   17   33 1
    32   18   19 2
    33   18   34 1
    34   19   20 1
    35   19   21 1
    36   20   35 1
    37   20   36 1
    38   20   37 1
    39   21   38 1
    40   21   39 1
    41   21   40 1
@<TRIPOS>MOLECULE
ZINC00014547
   44    46     0     0     0
SMALL
USER_CHARGES

@<TRIPOS>ATOM
      1 C1          2.9712   -2.9848   -1.4817 C.3       1 <0>        -0.1485
      2 C2          2.4819   -2.8442   -0.0389 C.3       1 <0>        -0.0691
      3 C3          1.1816   -2.0826   -0.0214 C.2       1 <0>        -0.1350
      4 C4          1.1909   -0.6800   -0.0187 C.2       1 <0>        -0.1248
      5 C5          0.0021   -0.0041    0.0020 C.2       1 <0>         0.0994
      6 C6         -1.2062   -0.7352    0.0096 C.2       1 <0>         0.5143
      7 O1         -2.2760   -0.1474    0.0230 O.2       1 <0>        -0.5550
      8 N1         -1.1769   -2.0816    0.0016 N.am      1 <0>        -0.5934
      9 H1         -2.0353   -2.5946    0.0070 H         1 <0>         0.4227
     10 C7          0.0067   -2.7518   -0.0137 C.2       1 <0>         0.0962
     11 C8          0.0085   -4.2587   -0.0218 C.3       1 <0>        -0.1154
     12 N2         -0.0169    1.3962    0.0097 N.pl3     1 <0>        -0.7283
     13 C9         -1.2954    2.1114    0.0197 C.3       1 <0>         0.2356
     14 C10        -1.0402    3.5966    0.0265 C.2       1 <0>         0.2257
     15 N3         -0.9195    4.3341   -1.0361 N.2       1 <0>        -0.4539
     16 C11        -0.6963    5.6207   -0.6538 C.ar      1 <0>         0.0191
     17 C12        -0.4947    6.8141   -1.3491 C.ar      1 <0>        -0.0281
     18 C13        -0.2901    7.9840   -0.6526 C.ar      1 <0>        -0.1209
     19 C14        -0.2824    7.9834    0.7346 C.ar      1 <0>        -0.0875
     20 C15        -0.4797    6.8117    1.4346 C.ar      1 <0>        -0.0667
     21 C16        -0.6877    5.6242    0.7492 C.ar      1 <0>         0.0171
     22 O2         -0.9108    4.3476    1.1315 O.3       1 <0>        -0.2063
     23 C17        -0.4690    6.8216    2.9416 C.3       1 <0>        -0.1146
     24 C18        -0.5021    6.8223   -2.8561 C.3       1 <0>        -0.1131
     25 H2          3.9117   -3.5357   -1.4944 H         1 <0>         0.0580
     26 H3          2.2264   -3.5240   -2.0671 H         1 <0>         0.0544
     27 H4          3.1241   -1.9949   -1.9116 H         1 <0>         0.0558
     28 H5          3.2267   -2.3050    0.5464 H         1 <0>         0.0730
     29 H6          2.3290   -3.8341    0.3910 H         1 <0>         0.0741
     30 H7          2.1261   -0.1400   -0.0289 H         1 <0>         0.1310
     31 H8         -1.0186   -4.6234   -0.0136 H         1 <0>         0.0696
     32 H9          0.5139   -4.6166   -0.9188 H         1 <0>         0.0864
     33 H10         0.5316   -4.6262    0.8610 H         1 <0>         0.0873
     34 H11         0.8164    1.8926    0.0044 H         1 <0>         0.4072
     35 H12        -1.8676    1.8452   -0.8691 H         1 <0>         0.1134
     36 H13        -1.8592    1.8355    0.9108 H         1 <0>         0.0999
     37 H14        -0.1344    8.9080   -1.1896 H         1 <0>         0.1392
     38 H15        -0.1202    8.9071    1.2703 H         1 <0>         0.1422
     39 H16         0.5465    6.6501    3.2988 H         1 <0>         0.0747
     40 H17        -0.8223    7.7880    3.3011 H         1 <0>         0.0751
     41 H18        -1.1233    6.0338    3.3148 H         1 <0>         0.0682
     42 H19        -1.5166    6.9987   -3.2135 H         1 <0>         0.0757
     43 H20         0.1536    7.6141   -3.2184 H         1 <0>         0.0713
     44 H21        -0.1486    5.8600   -3.2264 H         1 <0>         0.0739
@<TRIPOS>BOND
     1    1    2 1
     2    1   25 1
     3    1   26 1
     4    1   27 1
     5    2    3 1
     6    2   28 1
     7    2   29 1
     8    3   10 2
     9    3    4 1
    10    4    5 2
    11    4   30 1
    12    5    6 1
    13    5   12 1
    14    6    7 2
    15    6    8 am
    16    8    9 1
    17    8   10 1
    18   10   11 1
    19   11   31 1
    20   11   32 1
    21   11   33 1
    22   12   13 1
    23   12   34 1
    24   13   14 1
    25   13   35 1
    26   13   36 1
    27   14   22 1
    28   14   15 2
    29   15   16 1
    30   16   21 ar
    31   16   17 ar
    32   17   18 ar
    33   17   24 1
    34   18   19 ar
    35   18   37 1
    36   19   20 ar
    37   19   38 1
    38   20   21 ar
    39   20   23 1
    40   21   22 1
    41   23   39 1
    42   23   40 1
    43   23   41 1
    44   24   42 1
    45   24   43 1
    46   24   44 1
@<TRIPOS>MOLECULE
ZINC00014547
   44    46     0     0     0
SMALL
USER_CHARGES

@<TRIPOS>ATOM
      1 C1          2.9712   -2.9848   -1.4817 C.3       1 <0>        -0.1485
      2 C2          2.4819   -2.8442   -0.0389 C.3       1 <0>        -0.0691
      3 C3          1.1816   -2.0826   -0.0214 C.2       1 <0>        -0.1350
      4 C4          1.1909   -0.6800   -0.0187 C.2       1 <0>        -0.1248
      5 C5          0.0021   -0.0041    0.0020 C.2       1 <0>         0.0994
      6 C6         -1.2062   -0.7352    0.0096 C.2       1 <0>         0.5143
      7 O1         -2.2760   -0.1474    0.0230 O.2       1 <0>        -0.5550
      8 N1         -1.1769   -2.0816    0.0016 N.am      1 <0>        -0.5934
      9 H1         -2.0353   -2.5946    0.0070 H         1 <0>         0.4227
     10 C7          0.0067   -2.7518   -0.0137 C.2       1 <0>         0.0962
     11 C8          0.0085   -4.2587   -0.0218 C.3       1 <0>        -0.1154
     12 N2         -0.0169    1.3962    0.0097 N.pl3     1 <0>        -0.7283
     13 C9         -1.2954    2.1114    0.0197 C.3       1 <0>         0.2356
     14 C10        -1.0402    3.5966    0.0265 C.2       1 <0>         0.2257
     15 N3         -0.9195    4.3341   -1.0361 N.2       1 <0>        -0.4539
     16 C11        -0.6963    5.6207   -0.6538 C.ar      1 <0>         0.0191
     17 C12        -0.4947    6.8141   -1.3491 C.ar      1 <0>        -0.0281
     18 C13        -0.2901    7.9840   -0.6526 C.ar      1 <0>        -0.1209
     19 C14        -0.2824    7.9834    0.7346 C.ar      1 <0>        -0.0875
     20 C15        -0.4797    6.8117    1.4346 C.ar      1 <0>        -0.0667
     21 C16        -0.6877    5.6242    0.7492 C.ar      1 <0>         0.0171
     22 O2         -0.9108    4.3476    1.1315 O.3       1 <0>        -0.2063
     23 C17        -0.4690    6.8216    2.9416 C.3       1 <0>        -0.1146
     24 C18        -0.5021    6.8223   -2.8561 C.3       1 <0>        -0.1131
     25 H2          3.9117   -3.5357   -1.4944 H         1 <0>         0.0580
     26 H3          2.2264   -3.5240   -2.0671 H         1 <0>         0.0544
     27 H4          3.1241   -1.9949   -1.9116 H         1 <0>         0.0558
     28 H5          3.2267   -2.3050    0.5464 H         1 <0>         0.0730
     29 H6          2.3290   -3.8341    0.3910 H         1 <0>         0.0741
     30 H7          2.1261   -0.1400   -0.0289 H         1 <0>         0.1310
     31 H8         -1.0186   -4.6234   -0.0136 H         1 <0>         0.0696
     32 H9          0.5139   -4.6166   -0.9188 H         1 <0>         0.0864
     33 H10         0.5316   -4.6262    0.8610 H         1 <0>         0.0873
     34 H11         0.8164    1.8926    0.0044 H         1 <0>         0.4072
     35 H12        -1.8676    1.8452   -0.8691 H         1 <0>         0.1134
     36 H13        -1.8592    1.8355    0.9108 H         1 <0>         0.0999
     37 H14        -0.1344    8.9080   -1.1896 H         1 <0>         0.1392
     38 H15        -0.1202    8.9071    1.2703 H         1 <0>         0.1422
     39 H16         0.5465    6.6501    3.2988 H         1 <0>         0.0747
     40 H17        -0.8223    7.7880    3.3011 H         1 <0>         0.0751
     41 H18        -1.1233    6.0338    3.3148 H         1 <0>         0.0682
     42 H19        -1.5166    6.9987   -3.2135 H         1 <0>         0.0757
     43 H20         0.1536    7.6141   -3.2184 H         1 <0>         0.0713
     44 H21        -0.1486    5.8600   -3.2264 H         1 <0>         0.0739
@<TRIPOS>BOND
     1    1    2 1
     2    1   25 1
     3    1   26 1
     4    1   27 1
     5    2    3 1
     6    2   28 1
     7    2   29 1
     8    3   10 2
     9    3    4 1
    10    4    5 2
    11    4   30 1
    12    5    6 1
    13    5   12 1
    14    6    7 2
    15    6    8 am
    16    8    9 1
    17    8   10 1
    18   10   11 1
    19   11   31 1
    20   11   32 1
    21   11   33 1
    22   12   13 1
    23   12   34 1
    24   13   14 1
    25   13   35 1
    26   13   36 1
    27   14   22 1
    28   14   15 2
    29   15   16 1
    30   16   21 ar
    31   16   17 ar
    32   17   18 ar
    33   17   24 1
    34   18   19 ar
    35   18   37 1
    36   19   20 ar
    37   19   38 1
    38   20   21 ar
    39   20   23 1
    40   21   22 1
    41   23   39 1
    42   23   40 1
    43   23   41 1
    44   24   42 1
    45   24   43 1
    46   24   44 1
@<TRIPOS>MOLECULE
ZINC00018097
   30    32     0     0     0
SMALL
USER_CHARGES

@<TRIPOS>ATOM
      1 C1         -3.9492   -4.1904    0.0046 C.ar      1 <0>        -0.0471
      2 C2         -2.9380   -4.8823    0.6443 C.ar      1 <0>        -0.1348
      3 C3         -1.6510   -4.3681    0.6552 C.ar      1 <0>         0.1925
      4 C4         -1.3761   -3.1739   -0.0018 C.ar      1 <0>        -0.1768
      5 C5         -2.3879   -2.4840   -0.6346 C.ar      1 <0>        -0.0284
      6 C6         -3.6766   -2.9915   -0.6301 C.ar      1 <0>        -0.0604
      7 Cl1        -4.9528   -2.1211   -1.4222 Cl        1 <0>        -0.0480
      8 C7          0.0380   -2.6498   -0.0125 C.3       1 <0>         0.2823
      9 O1          0.7296   -3.1336    1.1709 O.3       1 <0>        -0.3103
     10 C8          0.5741   -4.4329    1.4874 C.2       1 <0>         0.6587
     11 O2          1.5115   -5.0587    1.9416 O.2       1 <0>        -0.4707
     12 N1         -0.6121   -5.0453    1.3041 N.am      1 <0>        -0.6589
     13 C9          0.0180   -1.1779   -0.0044 C.1       1 <0>        -0.2263
     14 C10         0.0021   -0.0041    0.0020 C.1       1 <0>        -0.0150
     15 C11        -0.0179    1.4678    0.0101 C.3       1 <0>        -0.0737
     16 C12        -1.1407    2.1548    0.7899 C.3       1 <0>        -0.1560
     17 C13        -1.1554    2.1630   -0.7407 C.3       1 <0>        -0.1560
     18 C14         0.7608   -3.1453   -1.2667 C.3       1 <0>         0.4459
     19 F1          2.0737   -2.6621   -1.2698 F         1 <0>        -0.1578
     20 F2          0.7787   -4.5442   -1.2725 F         1 <0>        -0.1681
     21 F3          0.0909   -2.6828   -2.4044 F         1 <0>        -0.1568
     22 H1         -4.9539   -4.5865   -0.0002 H         1 <0>         0.1526
     23 H2         -3.1502   -5.8212    1.1341 H         1 <0>         0.1541
     24 H3         -2.1762   -1.5496   -1.1330 H         1 <0>         0.1495
     25 H4         -0.7457   -5.9523    1.6211 H         1 <0>         0.4389
     26 H5          0.9590    1.9512    0.0034 H         1 <0>         0.1414
     27 H6         -1.8647    1.5169    1.2970 H         1 <0>         0.1031
     28 H7         -0.9027    3.0904    1.2959 H         1 <0>         0.1122
     29 H8         -0.9269    3.1040   -1.2411 H         1 <0>         0.1118
     30 H9         -1.8887    1.5305   -1.2410 H         1 <0>         0.1019
@<TRIPOS>BOND
     1    1    6 ar
     2    1    2 ar
     3    1   22 1
     4    2    3 ar
     5    2   23 1
     6    3   12 1
     7    3    4 ar
     8    4    5 ar
     9    4    8 1
    10    5    6 ar
    11    5   24 1
    12    6    7 1
    13    8    9 1
    14    8   13 1
    15    8   18 1
    16    9   10 1
    17   10   11 2
    18   10   12 am
    19   12   25 1
    20   13   14 3
    21   14   15 1
    22   15   17 1
    23   15   16 1
    24   15   26 1
    25   16   17 1
    26   16   27 1
    27   16   28 1
    28   17   29 1
    29   17   30 1
    30   18   19 1
    31   18   20 1
    32   18   21 1
@<TRIPOS>MOLECULE
ZINC00538635
   49    51     0     0     0
SMALL
USER_CHARGES

@<TRIPOS>ATOM
      1 C1         -0.6846   -0.6788    0.8351 C.3       1 <0>        -0.1410
      2 C2         -0.0102   -0.0098   -0.3642 C.3       1 <0>        -0.0217
      3 C3         -0.7773   -0.3592   -1.6411 C.3       1 <0>        -0.1401
      4 C4         -0.0101    1.4848   -0.1713 C.2       1 <0>         0.1027
      5 C5          1.0859    2.2683   -0.0281 C.2       1 <0>        -0.0848
      6 N1          0.6345    3.5545    0.1201 N.pl3     1 <0>        -0.4256
      7 C6         -0.7251    3.5097    0.0618 C.2       1 <0>         0.2363
      8 N2         -1.0953    2.2721   -0.1173 N.2       1 <0>        -0.4499
      9 C7         -1.6487    4.6947    0.1782 C.3       1 <0>         0.1731
     10 O1         -1.8929    5.2495   -1.1412 O.3       1 <0>        -0.3619
     11 C8         -2.7043    6.3216   -1.2129 C.2       1 <0>         0.6529
     12 O2         -3.1949    6.7810   -0.2006 O.2       1 <0>        -0.5688
     13 N3         -2.9723    6.8851   -2.4075 N.am      1 <0>        -0.8221
     14 C9          1.4593    4.7510    0.3053 C.3       1 <0>         0.1368
     15 C10         1.7957    5.3424   -1.0394 C.ar      1 <0>        -0.0729
     16 C11         2.9405    4.9548   -1.7188 C.ar      1 <0>        -0.1463
     17 C12         3.2142    5.5157   -2.9519 C.ar      1 <0>         0.1014
     18 N4          2.4065    6.4158   -3.4777 N.ar      1 <0>        -0.4726
     19 C13         1.3118    6.8114   -2.8581 C.ar      1 <0>         0.1012
     20 C14         0.9707    6.2911   -1.6240 C.ar      1 <0>        -0.1425
     21 S1          2.7660    1.7372   -0.0315 S.3       1 <0>         0.1054
     22 C15         3.1346    1.4778    1.6719 C.ar      1 <0>        -0.0966
     23 C16         2.2025    1.8168    2.6454 C.ar      1 <0>        -0.1102
     24 C17         2.4921    1.6064    3.9802 C.ar      1 <0>        -0.0047
     25 C18         3.7137    1.0701    4.3486 C.ar      1 <0>        -0.1048
     26 C19         4.6462    0.7368    3.3817 C.ar      1 <0>        -0.0045
     27 C20         4.3601    0.9391    2.0449 C.ar      1 <0>        -0.0843
     28 Cl1         6.1767    0.0635    3.8486 Cl        1 <0>        -0.0440
     29 Cl2         1.3252    2.0218    5.1966 Cl        1 <0>        -0.0475
     30 H1         -1.7116   -0.3233    0.9194 H         1 <0>         0.0635
     31 H2         -0.6847   -1.7598    0.6956 H         1 <0>         0.0636
     32 H3         -0.1381   -0.4299    1.7448 H         1 <0>         0.0507
     33 H4          1.0168   -0.3653   -0.4485 H         1 <0>         0.0920
     34 H5         -0.2514    0.0492   -2.5041 H         1 <0>         0.0530
     35 H6         -0.8477   -1.4426   -1.7377 H         1 <0>         0.0624
     36 H7         -1.7793    0.0670   -1.5911 H         1 <0>         0.0643
     37 H8         -2.5935    4.3770    0.6193 H         1 <0>         0.1131
     38 H9         -1.1887    5.4530    0.8118 H         1 <0>         0.0915
     39 H10        -2.5806    6.5184   -3.2156 H         1 <0>         0.4101
     40 H11        -3.5568    7.6575   -2.4592 H         1 <0>         0.4293
     41 H12         0.9097    5.4832    0.8969 H         1 <0>         0.1102
     42 H13         2.3792    4.4815    0.8241 H         1 <0>         0.1115
     43 H14         3.6082    4.2214   -1.2913 H         1 <0>         0.1414
     44 H15         4.1021    5.2167   -3.4891 H         1 <0>         0.1609
     45 H16         0.6745    7.5509   -3.3201 H         1 <0>         0.1576
     46 H17         0.0732    6.6196   -1.1211 H         1 <0>         0.1296
     47 H18         1.2511    2.2400    2.3588 H         1 <0>         0.1352
     48 H19         3.9396    0.9111    5.3927 H         1 <0>         0.1492
     49 H20         5.0880    0.6785    1.2908 H         1 <0>         0.1479
@<TRIPOS>BOND
     1    1    2 1
     2    1   30 1
     3    1   31 1
     4    1   32 1
     5    2    3 1
     6    2    4 1
     7    2   33 1
     8    3   34 1
     9    3   35 1
    10    3   36 1
    11    4    8 1
    12    4    5 2
    13    5    6 1
    14    5   21 1
    15    6    7 1
    16    6   14 1
    17    7    8 2
    18    7    9 1
    19    9   10 1
    20    9   37 1
    21    9   38 1
    22   10   11 1
    23   11   12 2
    24   11   13 am
    25   13   39 1
    26   13   40 1
    27   14   15 1
    28   14   41 1
    29   14   42 1
    30   15   20 ar
    31   15   16 ar
    32   16   17 ar
    33   16   43 1
    34   17   18 ar
    35   17   44 1
    36   18   19 ar
    37   19   20 ar
    38   19   45 1
    39   20   46 1
    40   21   22 1
    41   22   27 ar
    42   22   23 ar
    43   23   24 ar
    44   23   47 1
    45   24   25 ar
    46   24   29 1
    47   25   26 ar
    48   25   48 1
    49   26   27 ar
    50   26   28 1
    51   27   49 1
@<TRIPOS>MOLECULE
ZINC00538635
   50    52     0     0     0
SMALL
USER_CHARGES

@<TRIPOS>ATOM
      1 C1         -0.6846   -0.6788    0.8351 C.3       1 <0>        -0.1569
      2 C2         -0.0102   -0.0098   -0.3642 C.3       1 <0>        -0.0459
      3 C3         -0.7773   -0.3592   -1.6411 C.3       1 <0>        -0.1559
      4 C4         -0.0101    1.4848   -0.1713 C.2       1 <0>         0.1324
      5 C5          1.0859    2.2683   -0.0281 C.2       1 <0>        -0.0305
      6 N1          0.6345    3.5545    0.1201 N.pl3     1 <0>        -0.3664
      7 C6         -0.7251    3.5097    0.0618 C.cat     1 <0>         0.3190
      8 C7         -1.6487    4.6947    0.1782 C.3       1 <0>         0.1370
      9 O1         -1.8929    5.2495   -1.1412 O.3       1 <0>        -0.3664
     10 C8         -2.7043    6.3216   -1.2129 C.2       1 <0>         0.6562
     11 O2         -3.1949    6.7810   -0.2006 O.2       1 <0>        -0.5527
     12 N2         -2.9723    6.8851   -2.4075 N.am      1 <0>        -0.8112
     13 C9          1.4593    4.7510    0.3053 C.3       1 <0>         0.1279
     14 C10         1.7957    5.3424   -1.0394 C.ar      1 <0>        -0.0967
     15 C11         2.9405    4.9548   -1.7188 C.ar      1 <0>        -0.1414
     16 C12         3.2142    5.5157   -2.9519 C.ar      1 <0>         0.1112
     17 N3          2.4065    6.4158   -3.4777 N.ar      1 <0>        -0.4586
     18 C13         1.3118    6.8114   -2.8581 C.ar      1 <0>         0.1095
     19 C14         0.9707    6.2911   -1.6240 C.ar      1 <0>        -0.1419
     20 S1          2.7660    1.7372   -0.0315 S.3       1 <0>         0.1625
     21 C15         3.1346    1.4778    1.6719 C.ar      1 <0>        -0.1174
     22 C16         2.2025    1.8168    2.6454 C.ar      1 <0>        -0.1163
     23 C17         2.4921    1.6064    3.9802 C.ar      1 <0>        -0.0047
     24 C18         3.7137    1.0701    4.3486 C.ar      1 <0>        -0.0887
     25 C19         4.6462    0.7368    3.3817 C.ar      1 <0>        -0.0008
     26 C20         4.3601    0.9391    2.0449 C.ar      1 <0>        -0.0718
     27 Cl1         6.1767    0.0635    3.8486 Cl        1 <0>        -0.0239
     28 Cl2         1.3252    2.0218    5.1966 Cl        1 <0>        -0.0361
     29 H1         -1.7116   -0.3233    0.9194 H         1 <0>         0.0607
     30 H2         -0.6847   -1.7598    0.6956 H         1 <0>         0.0910
     31 H3         -0.1381   -0.4299    1.7448 H         1 <0>         0.0673
     32 H4          1.0168   -0.3653   -0.4485 H         1 <0>         0.1291
     33 H5         -0.2514    0.0492   -2.5041 H         1 <0>         0.0713
     34 H6         -0.8477   -1.4426   -1.7377 H         1 <0>         0.0910
     35 H7         -1.7793    0.0670   -1.5911 H         1 <0>         0.0571
     36 H8         -2.5935    4.3770    0.6193 H         1 <0>         0.1357
     37 H9         -1.1887    5.4530    0.8118 H         1 <0>         0.1299
     38 H10        -2.5806    6.5184   -3.2156 H         1 <0>         0.4138
     39 H11        -3.5568    7.6575   -2.4592 H         1 <0>         0.4384
     40 H12         0.9097    5.4832    0.8969 H         1 <0>         0.1355
     41 H13         2.3792    4.4815    0.8241 H         1 <0>         0.1400
     42 H14         3.6082    4.2214   -1.2913 H         1 <0>         0.1462
     43 H15         4.1021    5.2167   -3.4891 H         1 <0>         0.1689
     44 H16         0.6745    7.5509   -3.3201 H         1 <0>         0.1645
     45 H17         0.0732    6.6196   -1.1211 H         1 <0>         0.1326
     46 H18         1.2511    2.2400    2.3588 H         1 <0>         0.1245
     47 H19         3.9396    0.9111    5.3927 H         1 <0>         0.1574
     48 H20         5.0880    0.6785    1.2908 H         1 <0>         0.1548
     49 N4         -1.0951    2.2722   -0.1173 N.pl3     1 <0>        -0.4633
     50 H21        -2.0662    1.9502   -0.2036 H         1 <0>         0.4820
@<TRIPOS>BOND
     1    1    2 1
     2    1   29 1
     3    1   30 1
     4    1   31 1
     5    2    3 1
     6    2    4 1
     7    2   32 1
     8    3   33 1
     9    3   34 1
    10    3   35 1
    11    4    5 2
    12    4   49 1
    13    5    6 1
    14    5   20 1
    15    6    7 1
    16    6   13 1
    17    7    8 1
    18    7   49 2
    19    8    9 1
    20    8   36 1
    21    8   37 1
    22    9   10 1
    23   10   11 2
    24   10   12 am
    25   12   38 1
    26   12   39 1
    27   13   14 1
    28   13   40 1
    29   13   41 1
    30   14   19 ar
    31   14   15 ar
    32   15   16 ar
    33   15   42 1
    34   16   17 ar
    35   16   43 1
    36   17   18 ar
    37   18   19 ar
    38   18   44 1
    39   19   45 1
    40   20   21 1
    41   21   26 ar
    42   21   22 ar
    43   22   23 ar
    44   22   46 1
    45   23   24 ar
    46   23   28 1
    47   24   25 ar
    48   24   47 1
    49   25   26 ar
    50   25   27 1
    51   26   48 1
    52   49   50 1
@<TRIPOS>MOLECULE
ZINC00598073
   39    40     0     0     0
SMALL
USER_CHARGES

@<TRIPOS>ATOM
      1 C1          1.7853    4.7320   -0.9221 C.3       1 <0>        -0.1225
      2 C2          0.7025    3.7107   -0.6867 C.ar      1 <0>         0.0002
      3 C3          0.9994    2.3590   -0.7787 C.ar      1 <0>        -0.1944
      4 C4          0.0206    1.4150   -0.5667 C.ar      1 <0>        -0.0193
      5 C5         -1.2849    1.8196   -0.2609 C.ar      1 <0>        -0.2645
      6 C6         -1.5806    3.1914   -0.1638 C.ar      1 <0>         0.2907
      7 C7         -0.5767    4.1271   -0.3818 C.ar      1 <0>        -0.2110
      8 N1         -2.8677    3.6076    0.1424 N.pl3     1 <0>        -0.6988
      9 C8         -3.1443    5.0288    0.3659 C.3       1 <0>         0.1624
     10 H1         -2.3356    5.4689    0.9495 H         1 <0>         0.1203
     11 C9         -4.4429    5.1759    1.1162 C.ar      1 <0>        -0.0909
     12 C10        -5.5706    4.4995    0.6868 C.ar      1 <0>        -0.0198
     13 C11        -6.7613    4.6308    1.3791 C.ar      1 <0>        -0.1007
     14 C12        -6.8268    5.4459    2.4934 C.ar      1 <0>        -0.0821
     15 C13        -5.7019    6.1266    2.9196 C.ar      1 <0>        -0.1013
     16 C14        -4.5093    5.9919    2.2312 C.ar      1 <0>        -0.0153
     17 Cl1        -3.0963    6.8464    2.7670 Cl        1 <0>        -0.0454
     18 Cl2        -5.4900    3.4808   -0.7166 Cl        1 <0>        -0.0168
     19 C15        -3.2480    5.7351   -0.9612 C.2       1 <0>         0.5023
     20 O1         -3.1050    5.1127   -1.9922 O.2       1 <0>        -0.5038
     21 N2         -3.4997    7.0586   -1.0024 N.am      1 <0>        -0.8521
     22 C16        -2.3351    0.8202   -0.0394 C.2       1 <0>         0.4028
     23 O2         -3.4837    1.1738    0.1264 O.2       1 <0>        -0.4767
     24 C17        -1.9875   -0.6460   -0.0178 C.3       1 <0>        -0.1892
     25 H2          1.8130    4.9951   -1.9795 H         1 <0>         0.0769
     26 H3          1.5780    5.6241   -0.3311 H         1 <0>         0.0673
     27 H4          2.7481    4.3156   -0.6260 H         1 <0>         0.0723
     28 H5          2.0047    2.0453   -1.0184 H         1 <0>         0.1256
     29 H6          0.2578    0.3640   -0.6404 H         1 <0>         0.1325
     30 H7         -0.7984    5.1819   -0.3127 H         1 <0>         0.1169
     31 H8         -3.5848    2.9577    0.2087 H         1 <0>         0.4239
     32 H9         -7.6406    4.0992    1.0465 H         1 <0>         0.1472
     33 H10        -7.7575    5.5514    3.0311 H         1 <0>         0.1495
     34 H11        -5.7537    6.7634    3.7904 H         1 <0>         0.1486
     35 H12        -3.6140    7.5564   -0.1778 H         1 <0>         0.3989
     36 H13        -3.5665    7.5132   -1.8566 H         1 <0>         0.4058
     37 H14        -1.7613   -0.9212    0.9166 H         1 <0>         0.0872
     38 H15        -2.8395   -1.2266   -0.3714 H         1 <0>         0.0868
     39 H16        -1.1306   -0.8259   -0.6670 H         1 <0>         0.0863
@<TRIPOS>BOND
     1    1    2 1
     2    1   25 1
     3    1   26 1
     4    1   27 1
     5    2    7 ar
     6    2    3 ar
     7    3    4 ar
     8    3   28 1
     9    4    5 ar
    10    4   29 1
    11    5    6 ar
    12    5   22 1
    13    6    7 ar
    14    6    8 1
    15    7   30 1
    16    8    9 1
    17    8   31 1
    18    9   10 1
    19    9   11 1
    20    9   19 1
    21   11   16 ar
    22   11   12 ar
    23   12   13 ar
    24   12   18 1
    25   13   14 ar
    26   13   32 1
    27   14   15 ar
    28   14   33 1
    29   15   16 ar
    30   15   34 1
    31   16   17 1
    32   19   20 2
    33   19   21 am
    34   21   35 1
    35   21   36 1
    36   22   23 2
    37   22   24 1
    38   24   37 1
    39   24   38 1
    40   24   39 1
@<TRIPOS>MOLECULE
ZINC00598801
   54    58     0     0     0
SMALL
USER_CHARGES

@<TRIPOS>ATOM
      1 C1         -5.6207   -5.9939   -3.1383 C.3       1 <0>        -0.1451
      2 C2         -4.2332   -5.4406   -2.8071 C.3       1 <0>        -0.1556
      3 H1         -3.6756   -6.1940   -2.2508 H         1 <0>         0.0895
      4 C3         -3.5002   -5.1407   -4.1017 C.3       1 <0>         0.0954
      5 H2         -4.1389   -4.5254   -4.7353 H         1 <0>         0.0799
      6 O1         -2.2813   -4.4601   -3.8806 O.3       1 <0>        -0.2941
      7 C4         -2.1953   -3.4900   -2.9436 C.ar      1 <0>         0.2558
      8 C5         -1.0786   -2.6379   -2.9597 C.ar      1 <0>        -0.1963
      9 C6         -0.9397   -1.6314   -2.0030 C.ar      1 <0>         0.2420
     10 C7         -1.9237   -1.4789   -1.0228 C.ar      1 <0>        -0.2114
     11 C8         -1.8139   -0.4365    0.0087 C.2       1 <0>         0.0977
     12 C9         -2.8316   -0.3397    0.9409 C.2       1 <0>        -0.2616
     13 C10        -3.9151   -1.2299    0.8754 C.2       1 <0>         0.5100
     14 O2         -4.8080   -1.1373    1.6995 O.2       1 <0>        -0.4589
     15 O3         -3.9957   -2.1798   -0.0693 O.3       1 <0>        -0.2473
     16 C11        -3.0391   -2.3344   -1.0114 C.ar      1 <0>         0.2437
     17 C12        -3.1660   -3.3355   -1.9719 C.ar      1 <0>        -0.2658
     18 C13        -4.3911   -4.2054   -1.9415 C.3       1 <0>         0.1727
     19 H3         -5.2482   -3.6324   -2.2952 H         1 <0>         0.1108
     20 O4         -4.6298   -4.6116   -0.5924 O.3       1 <0>        -0.5341
     21 C14        -0.6553    0.4832    0.0446 C.ar      1 <0>        -0.0651
     22 C15        -0.3613    1.2834   -1.0603 C.ar      1 <0>        -0.0520
     23 C16         0.7201    2.1392   -1.0202 C.ar      1 <0>        -0.1220
     24 C17         1.5120    2.2054    0.1124 C.ar      1 <0>        -0.1043
     25 C18         1.2261    1.4145    1.2111 C.ar      1 <0>        -0.1241
     26 C19         0.1477    0.5546    1.1838 C.ar      1 <0>        -0.0917
     27 O5          0.1492   -0.8256   -2.0489 O.3       1 <0>        -0.2726
     28 C20         1.3720   -1.4092   -2.5012 C.3       1 <0>         0.1444
     29 C21         1.1471   -2.1889   -3.7699 C.2       1 <0>        -0.1947
     30 C22        -0.0252   -2.7829   -3.9869 C.2       1 <0>        -0.0714
     31 C23         2.3935   -0.3009   -2.7640 C.3       1 <0>        -0.1365
     32 C24         1.9133   -2.3479   -1.4210 C.3       1 <0>        -0.1718
     33 C25        -3.2092   -6.4588   -4.8220 C.3       1 <0>        -0.1510
     34 H4         -5.5174   -6.9080   -3.7229 H         1 <0>         0.0658
     35 H5         -6.1550   -6.2124   -2.2137 H         1 <0>         0.0726
     36 H6         -6.1784   -5.2554   -3.7143 H         1 <0>         0.0613
     37 H7         -2.7926    0.4144    1.7130 H         1 <0>         0.1653
     38 H8         -3.9350   -5.1728   -0.2218 H         1 <0>         0.3732
     39 H9         -0.9762    1.2296   -1.9465 H         1 <0>         0.1215
     40 H10         0.9490    2.7587   -1.8747 H         1 <0>         0.1246
     41 H11         2.3573    2.8773    0.1389 H         1 <0>         0.1233
     42 H12         1.8484    1.4706    2.0920 H         1 <0>         0.1255
     43 H13        -0.0744   -0.0623    2.0420 H         1 <0>         0.1241
     44 H14         1.9360   -2.2666   -4.5033 H         1 <0>         0.1350
     45 H15        -0.2011   -3.3534   -4.8868 H         1 <0>         0.1383
     46 H16         2.5724    0.2541   -1.8431 H         1 <0>         0.0727
     47 H17         3.3282   -0.7427   -3.1093 H         1 <0>         0.0804
     48 H18         2.0076    0.3754   -3.5267 H         1 <0>         0.0685
     49 H19         1.2168   -3.1735   -1.2747 H         1 <0>         0.0590
     50 H20         2.8814   -2.7401   -1.7323 H         1 <0>         0.0771
     51 H21         2.0272   -1.7988   -0.4863 H         1 <0>         0.0705
     52 H22        -2.5516   -7.0721   -4.2059 H         1 <0>         0.0685
     53 H23        -4.1441   -6.9913   -4.9971 H         1 <0>         0.0865
     54 H24        -2.7247   -6.2520   -5.7763 H         1 <0>         0.0715
@<TRIPOS>BOND
     1    1    2 1
     2    1   34 1
     3    1   35 1
     4    1   36 1
     5    2    3 1
     6    2   18 1
     7    2    4 1
     8    4    5 1
     9    4    6 1
    10    4   33 1
    11    6    7 1
    12    7   17 ar
    13    7    8 ar
    14    8   30 1
    15    8    9 ar
    16    9   10 ar
    17    9   27 1
    18   10   16 ar
    19   10   11 1
    20   11   12 2
    21   11   21 1
    22   12   13 1
    23   12   37 1
    24   13   14 2
    25   13   15 1
    26   15   16 1
    27   16   17 ar
    28   17   18 1
    29   18   19 1
    30   18   20 1
    31   20   38 1
    32   21   26 ar
    33   21   22 ar
    34   22   23 ar
    35   22   39 1
    36   23   24 ar
    37   23   40 1
    38   24   25 ar
    39   24   41 1
    40   25   26 ar
    41   25   42 1
    42   26   43 1
    43   27   28 1
    44   28   29 1
    45   28   31 1
    46   28   32 1
    47   29   30 2
    48   29   44 1
    49   30   45 1
    50   31   46 1
    51   31   47 1
    52   31   48 1
    53   32   49 1
    54   32   50 1
    55   32   51 1
    56   33   52 1
    57   33   53 1
    58   33   54 1
@<TRIPOS>MOLECULE
ZINC01492540
   41    42     0     0     0
SMALL
USER_CHARGES

@<TRIPOS>ATOM
      1 C1          1.6384    0.8257   -3.8514 C.3       1 <0>        -0.1057
      2 C2          1.2341    1.0800   -2.4221 C.2       1 <0>         0.2002
      3 C3          2.1665    1.5859   -1.6069 C.2       1 <0>        -0.3178
      4 S1          1.7984    1.8808    0.0957 S.3       1 <0>        -0.1224
      5 C4         -0.0177    1.7411    0.1295 C.3       1 <0>        -0.1414
      6 C5         -0.3926    0.5246   -0.7339 C.3       1 <0>         0.0554
      7 O1         -0.0222    0.7795   -2.0836 O.3       1 <0>        -0.2998
      8 C6          3.4992    1.8972   -2.1288 C.2       1 <0>         0.5955
      9 O2          3.7561    1.6956   -3.3015 O.2       1 <0>        -0.5149
     10 N1          4.4411    2.4070   -1.3106 N.am      1 <0>        -0.6652
     11 C7          5.7449    2.6011   -1.7800 C.ar      1 <0>         0.1446
     12 C8          6.2847    1.7243   -2.7144 C.ar      1 <0>        -0.0737
     13 C9          7.5694    1.9139   -3.1860 C.ar      1 <0>        -0.1003
     14 C10         8.3310    2.9701   -2.7238 C.ar      1 <0>         0.0025
     15 C11         7.7994    3.8536   -1.7804 C.ar      1 <0>        -0.0988
     16 C12         6.4992    3.6637   -1.3092 C.ar      1 <0>        -0.0784
     17 C13         8.6098    4.9838   -1.2842 C.2       1 <0>         0.5047
     18 O3          9.7411    5.1468   -1.6957 O.2       1 <0>        -0.4794
     19 O4          8.0947    5.8341   -0.3751 O.3       1 <0>        -0.3497
     20 C14         8.9481    6.9221    0.0677 C.3       1 <0>         0.0828
     21 C15         8.0841    8.1278    0.4430 C.3       1 <0>        -0.1507
     22 C16         9.7549    6.4734    1.2878 C.3       1 <0>        -0.1710
     23 Cl1         9.9470    3.1998   -3.3150 Cl        1 <0>        -0.0271
     24 H1          0.7910    0.4163   -4.4013 H         1 <0>         0.0706
     25 H2          1.9523    1.7623   -4.3123 H         1 <0>         0.1050
     26 H3          2.4642    0.1147   -3.8745 H         1 <0>         0.1036
     27 H4         -0.4677    2.6435   -0.2844 H         1 <0>         0.1060
     28 H5         -0.3598    1.5900    1.1533 H         1 <0>         0.1330
     29 H6          0.1364   -0.3567   -0.3711 H         1 <0>         0.0859
     30 H7         -1.4678    0.3547   -0.6768 H         1 <0>         0.1325
     31 H8          4.2152    2.6392   -0.3963 H         1 <0>         0.4156
     32 H9          5.6959    0.8944   -3.0762 H         1 <0>         0.1517
     33 H10         7.9813    1.2319   -3.9151 H         1 <0>         0.1491
     34 H11         6.0826    4.3426   -0.5799 H         1 <0>         0.1506
     35 H12         9.6296    7.1997   -0.7364 H         1 <0>         0.0876
     36 H13         7.4027    7.8502    1.2471 H         1 <0>         0.0682
     37 H14         8.7248    8.9445    0.7754 H         1 <0>         0.0803
     38 H15         7.5093    8.4475   -0.4262 H         1 <0>         0.0651
     39 H16         9.0735    6.1958    2.0919 H         1 <0>         0.0666
     40 H17        10.3705    5.6145    1.0204 H         1 <0>         0.0625
     41 H18        10.3956    7.2902    1.6202 H         1 <0>         0.0765
@<TRIPOS>BOND
     1    1    2 1
     2    1   24 1
     3    1   25 1
     4    1   26 1
     5    2    7 1
     6    2    3 2
     7    3    4 1
     8    3    8 1
     9    4    5 1
    10    5    6 1
    11    5   27 1
    12    5   28 1
    13    6    7 1
    14    6   29 1
    15    6   30 1
    16    8    9 2
    17    8   10 am
    18   10   11 1
    19   10   31 1
    20   11   16 ar
    21   11   12 ar
    22   12   13 ar
    23   12   32 1
    24   13   14 ar
    25   13   33 1
    26   14   15 ar
    27   14   23 1
    28   15   16 ar
    29   15   17 1
    30   16   34 1
    31   17   18 2
    32   17   19 1
    33   19   20 1
    34   20   21 1
    35   20   22 1
    36   20   35 1
    37   21   36 1
    38   21   37 1
    39   21   38 1
    40   22   39 1
    41   22   40 1
    42   22   41 1
@<TRIPOS>MOLECULE
ZINC01536588
   44    45     0     0     0
SMALL
USER_CHARGES

@<TRIPOS>ATOM
      1 C1         -5.2237    2.5065    5.5781 C.3       1 <0>        -0.1519
      2 C2         -4.8998    2.7249    4.0988 C.3       1 <0>         0.0429
      3 O1         -5.7051    1.8546    3.3013 O.3       1 <0>        -0.3688
      4 C3         -5.4794    1.9794    1.8958 C.3       1 <0>         0.2673
      5 N1         -4.2730    1.2346    1.5269 N.am      1 <0>        -0.5421
      6 C4         -3.1180    1.9120    1.2447 C.2       1 <0>         0.1956
      7 C5         -2.0077    1.2258    0.8993 C.2       1 <0>        -0.2422
      8 C6         -2.0599   -0.1880    0.8477 C.2       1 <0>         0.5587
      9 O2         -1.0701   -0.8289    0.5432 O.2       1 <0>        -0.5028
     10 N2         -3.2159   -0.8184    1.1382 N.am      1 <0>        -0.6647
     11 H1         -3.2609   -1.8168    1.1039 H         1 <0>         0.4379
     12 C7         -4.3095   -0.1093    1.4741 C.2       1 <0>         0.7016
     13 O3         -5.3451   -0.6913    1.7332 O.2       1 <0>        -0.5263
     14 C8         -0.7282    1.9548    0.5792 C.3       1 <0>        -0.0240
     15 C9         -0.2720    1.5876   -0.8343 C.3       1 <0>        -0.1537
     16 C10         0.3529    1.5532    1.5845 C.3       1 <0>        -0.1515
     17 C11        -3.0872    3.4172    1.3131 C.3       1 <0>        -0.0595
     18 C12        -3.4351    3.9887   -0.0372 C.ar      1 <0>        -0.0919
     19 C13        -2.4377    4.2296   -0.9635 C.ar      1 <0>        -0.1069
     20 C14        -2.7574    4.7493   -2.2039 C.ar      1 <0>        -0.1130
     21 C15        -4.0732    5.0374   -2.5144 C.ar      1 <0>        -0.1127
     22 C16        -5.0699    4.8018   -1.5860 C.ar      1 <0>        -0.1134
     23 C17        -4.7509    4.2772   -0.3475 C.ar      1 <0>        -0.1199
     24 H2         -6.2773    2.7227    5.7551 H         1 <0>         0.0675
     25 H3         -5.0152    1.4709    5.8466 H         1 <0>         0.0647
     26 H4         -4.6094    3.1704    6.1864 H         1 <0>         0.0754
     27 H5         -3.8462    2.5087    3.9218 H         1 <0>         0.0501
     28 H6         -5.1083    3.7605    3.8302 H         1 <0>         0.0573
     29 H7         -5.3494    3.0311    1.6406 H         1 <0>         0.0993
     30 H8         -6.3349    1.5769    1.3533 H         1 <0>         0.1322
     31 H9         -0.8980    3.0299    0.6383 H         1 <0>         0.0835
     32 H10        -0.1022    0.5125   -0.8935 H         1 <0>         0.0743
     33 H11         0.6534    2.1149   -1.0659 H         1 <0>         0.0597
     34 H12        -1.0422    1.8737   -1.5506 H         1 <0>         0.0528
     35 H13         1.2784    2.0804    1.3529 H         1 <0>         0.0608
     36 H14         0.0279    1.8148    2.5915 H         1 <0>         0.0505
     37 H15         0.5227    0.4781    1.5253 H         1 <0>         0.0707
     38 H16        -3.8112    3.7623    2.0512 H         1 <0>         0.0935
     39 H17        -2.0891    3.7474    1.6013 H         1 <0>         0.1186
     40 H18        -1.4091    4.0084   -0.7195 H         1 <0>         0.1316
     41 H19        -1.9786    4.9338   -2.9291 H         1 <0>         0.1269
     42 H20        -4.3226    5.4470   -3.4821 H         1 <0>         0.1253
     43 H21        -6.0980    5.0272   -1.8284 H         1 <0>         0.1263
     44 H22        -5.5296    4.0931    0.3779 H         1 <0>         0.1202
@<TRIPOS>BOND
     1    1    2 1
     2    1   24 1
     3    1   25 1
     4    1   26 1
     5    2    3 1
     6    2   27 1
     7    2   28 1
     8    3    4 1
     9    4    5 1
    10    4   29 1
    11    4   30 1
    12    5   12 am
    13    5    6 1
    14    6    7 2
    15    6   17 1
    16    7    8 1
    17    7   14 1
    18    8    9 2
    19    8   10 am
    20   10   11 1
    21   10   12 am
    22   12   13 2
    23   14   15 1
    24   14   16 1
    25   14   31 1
    26   15   32 1
    27   15   33 1
    28   15   34 1
    29   16   35 1
    30   16   36 1
    31   16   37 1
    32   17   18 1
    33   17   38 1
    34   17   39 1
    35   18   23 ar
    36   18   19 ar
    37   19   20 ar
    38   19   40 1
    39   20   21 ar
    40   20   41 1
    41   21   22 ar
    42   21   42 1
    43   22   23 ar
    44   22   43 1
    45   23   44 1
@<TRIPOS>MOLECULE
ZINC01624808
   42    44     0     0     0
SMALL
USER_CHARGES

@<TRIPOS>ATOM
      1 C1         -2.3625    0.9413    2.5180 C.3       1 <0>        -0.1890
      2 C2         -1.1712    0.1716    1.9442 C.3       1 <0>         0.0133
      3 H1         -0.6947   -0.3781    2.7560 H         1 <0>         0.1646
      4 C3         -1.6900   -0.8270    0.9296 C.3       1 <0>         0.1117
      5 N1         -2.2207   -0.1234   -0.2416 N.pl3     1 <0>        -0.4920
      6 C4         -1.3766    0.5854   -1.1037 C.ar      1 <0>         0.0638
      7 C5         -2.1058    0.8702   -2.2500 C.ar      1 <0>         0.1072
      8 C6         -1.4240    1.3784   -3.3455 C.ar      1 <0>        -0.0499
      9 C7         -0.0575    1.5810   -3.2618 C.ar      1 <0>        -0.0806
     10 C8          0.6432    1.3250   -2.0916 C.ar      1 <0>         0.0044
     11 C9         -0.0356    0.8482   -0.9832 C.ar      1 <0>        -0.1198
     12 C10         0.6698    0.6444    0.3404 C.3       1 <0>         0.0476
     13 C11         0.5812    1.7509    2.4955 C.3       1 <0>         0.0307
     14 C12         1.2654    2.9923    1.9837 C.2       1 <0>        -0.2714
     15 C13         1.0969    4.1350    2.6016 C.2       1 <0>        -0.0255
     16 C14         0.3242    4.1858    3.8944 C.3       1 <0>        -0.1514
     17 C15         1.6759    5.3988    2.0197 C.3       1 <0>        -0.1398
     18 Cl1         2.3556    1.6008   -2.0182 Cl        1 <0>        -0.0181
     19 N2         -3.4257    0.5433   -1.9543 N.pl3     1 <0>        -0.5742
     20 H2         -4.1925    0.7109   -2.5242 H         1 <0>         0.4577
     21 C16        -3.4590   -0.0477   -0.7358 C.2       1 <0>         0.5078
     22 S1         -4.8718   -0.6115    0.0498 S.2       1 <0>        -0.5183
     23 H3         -3.0483    0.2437    2.9987 H         1 <0>         0.1197
     24 H4         -2.0079    1.6657    3.2512 H         1 <0>         0.0848
     25 H5         -2.8800    1.4628    1.7128 H         1 <0>         0.0785
     26 H6         -2.4817   -1.4241    1.3822 H         1 <0>         0.1618
     27 H7         -0.8768   -1.4832    0.6195 H         1 <0>         0.1191
     28 H8         -1.9547    1.6137   -4.2562 H         1 <0>         0.1633
     29 H9          0.4757    1.9464   -4.1270 H         1 <0>         0.1644
     30 H10         0.8675   -0.4168    0.4918 H         1 <0>         0.1514
     31 H11         1.6091    1.1974    0.3452 H         1 <0>         0.1508
     32 H12        -0.0793    2.0144    3.3216 H         1 <0>         0.1334
     33 H13         1.3309    1.0397    2.8424 H         1 <0>         0.1423
     34 H14         1.8946    2.9398    1.1075 H         1 <0>         0.1350
     35 H15         0.7610    3.4858    4.6066 H         1 <0>         0.0826
     36 H16         0.3671    5.1951    4.3040 H         1 <0>         0.0834
     37 H17        -0.7146    3.9134    3.7077 H         1 <0>         0.0771
     38 H18         2.1960    5.1660    1.0905 H         1 <0>         0.0720
     39 H19         0.8725    6.1075    1.8186 H         1 <0>         0.0857
     40 H20         2.3779    5.8371    2.7290 H         1 <0>         0.0852
     41 N3         -0.2308    1.1991    1.4009 N.4       1 <0>        -0.3965
     42 H21        -0.7867    1.9566    0.9868 H         1 <0>         0.4271
@<TRIPOS>BOND
     1    1    2 1
     2    1   23 1
     3    1   24 1
     4    1   25 1
     5    2    3 1
     6    2    4 1
     7    2   41 1
     8    4    5 1
     9    4   26 1
    10    4   27 1
    11    5   21 1
    12    5    6 1
    13    6   11 ar
    14    6    7 ar
    15    7    8 ar
    16    7   19 1
    17    8    9 ar
    18    8   28 1
    19    9   10 ar
    20    9   29 1
    21   10   11 ar
    22   10   18 1
    23   11   12 1
    24   12   30 1
    25   12   31 1
    26   12   41 1
    27   13   14 1
    28   13   32 1
    29   13   33 1
    30   13   41 1
    31   14   15 2
    32   14   34 1
    33   15   16 1
    34   15   17 1
    35   16   35 1
    36   16   36 1
    37   16   37 1
    38   17   38 1
    39   17   39 1
    40   17   40 1
    41   19   20 1
    42   19   21 1
    43   21   22 2
    44   41   42 1
@<TRIPOS>MOLECULE
ZINC01625281
   42    44     0     0     0
SMALL
USER_CHARGES

@<TRIPOS>ATOM
      1 C1          0.7667    0.7116    0.3644 C.3       1 <0>        -0.1899
      2 C2          0.3352    0.8429   -1.0976 C.3       1 <0>         0.0163
      3 H1         -0.7260    0.6036   -1.1652 H         1 <0>         0.1638
      4 C3          0.5300    2.2822   -1.5271 C.3       1 <0>         0.1117
      5 N1          1.9575    2.6090   -1.5818 N.pl3     1 <0>        -0.4922
      6 C4          2.7919    2.0315   -2.5448 C.ar      1 <0>         0.0568
      7 C5          2.5226    1.0308   -3.4399 C.ar      1 <0>        -0.1140
      8 C6          3.4375    0.7938   -4.4521 C.ar      1 <0>        -0.0576
      9 C7          4.6253    1.5108   -4.4795 C.ar      1 <0>        -0.0165
     10 C8          4.9274    2.4474   -3.5057 C.ar      1 <0>        -0.0593
     11 C9          4.0009    2.7136   -2.5077 C.ar      1 <0>         0.1152
     12 N2          3.9277    3.5664   -1.4119 N.pl3     1 <0>        -0.5734
     13 H2          4.6376    4.1486   -1.0990 H         1 <0>         0.4577
     14 C10         2.6990    3.4474   -0.8540 C.2       1 <0>         0.5076
     15 S1          2.1770    4.2494    0.5656 S.2       1 <0>        -0.5179
     16 Cl1         5.7581    1.2269   -5.7640 Cl        1 <0>        -0.0185
     17 C11         1.2723    0.1885   -3.3132 C.3       1 <0>         0.0557
     18 C12         0.5170   -1.4878   -1.7338 C.3       1 <0>         0.0288
     19 C13         1.4446   -2.5008   -2.3539 C.2       1 <0>        -0.2660
     20 C14         0.9997   -3.3186   -3.2755 C.2       1 <0>        -0.0308
     21 C15        -0.4681   -3.3428   -3.6164 C.3       1 <0>        -0.1516
     22 C16         1.9555   -4.2350   -3.9949 C.3       1 <0>        -0.1409
     23 H3          0.1580    1.3708    0.9834 H         1 <0>         0.1192
     24 H4          0.6333   -0.3195    0.6914 H         1 <0>         0.0865
     25 H5          1.8162    0.9902    0.4599 H         1 <0>         0.0785
     26 H6          0.0887    2.4272   -2.5132 H         1 <0>         0.1192
     27 H7          0.0361    2.9416   -0.8134 H         1 <0>         0.1606
     28 H8          3.2285    0.0569   -5.2135 H         1 <0>         0.1632
     29 H9          5.8749    2.9654   -3.5224 H         1 <0>         0.1629
     30 H10         1.3856   -0.7278   -3.8926 H         1 <0>         0.1516
     31 H11         0.4117    0.7503   -3.6764 H         1 <0>         0.1478
     32 H12         0.3943   -1.7088   -0.6735 H         1 <0>         0.1333
     33 H13        -0.4530   -1.5325   -2.2289 H         1 <0>         0.1414
     34 H14         2.4762   -2.5526   -2.0384 H         1 <0>         0.1350
     35 H15        -0.6837   -2.5657   -4.3497 H         1 <0>         0.0836
     36 H16        -0.7286   -4.3164   -4.0314 H         1 <0>         0.0863
     37 H17        -1.0535   -3.1638   -2.7145 H         1 <0>         0.0746
     38 H18         2.4422   -4.8912   -3.2734 H         1 <0>         0.0832
     39 H19         1.4066   -4.8358   -4.7200 H         1 <0>         0.0777
     40 H20         2.7091   -3.6408   -4.5117 H         1 <0>         0.0819
     41 N3          1.1394   -0.1630   -1.8622 N.4       1 <0>        -0.3983
     42 H21         2.0806   -0.1985   -1.4534 H         1 <0>         0.4267
@<TRIPOS>BOND
     1    1    2 1
     2    1   23 1
     3    1   24 1
     4    1   25 1
     5    2    3 1
     6    2    4 1
     7    2   41 1
     8    4    5 1
     9    4   26 1
    10    4   27 1
    11    5   14 1
    12    5    6 1
    13    6   11 ar
    14    6    7 ar
    15    7    8 ar
    16    7   17 1
    17    8    9 ar
    18    8   28 1
    19    9   10 ar
    20    9   16 1
    21   10   11 ar
    22   10   29 1
    23   11   12 1
    24   12   13 1
    25   12   14 1
    26   14   15 2
    27   17   30 1
    28   17   31 1
    29   17   41 1
    30   18   19 1
    31   18   32 1
    32   18   33 1
    33   18   41 1
    34   19   20 2
    35   19   34 1
    36   20   21 1
    37   20   22 1
    38   21   35 1
    39   21   36 1
    40   21   37 1
    41   22   38 1
    42   22   39 1
    43   22   40 1
    44   41   42 1
@<TRIPOS>MOLECULE
ZINC01626186
   61    62     0     0     0
SMALL
USER_CHARGES

@<TRIPOS>ATOM
      1 C1          5.6566    2.5005    2.3249 C.3       1 <0>        -0.1546
      2 C2          4.3422    1.7176    2.3332 C.3       1 <0>        -0.1247
      3 C3          3.4694    2.1738    1.1623 C.3       1 <0>        -0.1211
      4 C4          2.1549    1.3908    1.1706 C.3       1 <0>        -0.1147
      5 C5          1.2821    1.8470   -0.0003 C.3       1 <0>        -0.1070
      6 C6         -0.0126    1.0758    0.0080 C.2       1 <0>        -0.0859
      7 C7         -1.1806    1.7292    0.0170 C.2       1 <0>        -0.0758
      8 C8         -1.2008    3.2119    0.0252 C.ar      1 <0>        -0.0538
      9 C9         -0.7014    3.9071    1.1204 C.ar      1 <0>        -0.0222
     10 C10        -0.7178    5.3023    1.1220 C.ar      1 <0>        -0.1414
     11 C11        -1.2481    5.9931    0.0223 C.ar      1 <0>         0.1916
     12 C12        -1.7488    5.2874   -1.0636 C.ar      1 <0>        -0.1264
     13 C13        -1.7266    3.9085   -1.0649 C.ar      1 <0>        -0.0277
     14 Br1        -2.4628    6.2200   -2.5456 Br        1 <0>        -0.0180
     15 O1         -1.2713    7.3492    0.0196 O.3       1 <0>        -0.3126
     16 C14        -2.4339    7.9793    0.5613 C.3       1 <0>         0.0471
     17 C15        -0.1846    6.0473    2.2770 C.2       1 <0>         0.5066
     18 O2         -0.2039    7.2622    2.2777 O.2       1 <0>        -0.4798
     19 O3          0.3241    5.3810    3.3320 O.3       1 <0>        -0.3549
     20 C16         0.8313    6.1794    4.4336 C.3       1 <0>         0.0378
     21 C17        -2.4546    0.9704    0.0190 C.ar      1 <0>        -0.0568
     22 C18        -2.7987    0.1883   -1.0774 C.ar      1 <0>        -0.0230
     23 C19        -3.9961   -0.5279   -1.0696 C.ar      1 <0>        -0.1411
     24 C20        -4.8492   -0.4449    0.0409 C.ar      1 <0>         0.1923
     25 C21        -4.4970    0.3439    1.1279 C.ar      1 <0>        -0.1269
     26 C22        -3.3104    1.0467    1.1199 C.ar      1 <0>        -0.0256
     27 Br2        -5.6476    0.4544    2.6245 Br        1 <0>        -0.0179
     28 O4         -6.0168   -1.1349    0.0528 O.3       1 <0>        -0.3127
     29 C23        -7.1684   -0.4704   -0.4709 C.3       1 <0>         0.0471
     30 C24        -4.3656   -1.3645   -2.2259 C.2       1 <0>         0.5067
     31 O5         -5.4109   -1.9839   -2.2183 O.2       1 <0>        -0.4799
     32 O6         -3.5442   -1.4422   -3.2912 O.3       1 <0>        -0.3558
     33 C25        -3.9721   -2.2849   -4.3935 C.3       1 <0>         0.0377
     34 H1          6.1821    2.3183    1.3874 H         1 <0>         0.0533
     35 H2          5.4458    3.5655    2.4222 H         1 <0>         0.0532
     36 H3          6.2784    2.1755    3.1590 H         1 <0>         0.0535
     37 H4          3.8167    1.8998    3.2706 H         1 <0>         0.0612
     38 H5          4.5530    0.6526    2.2359 H         1 <0>         0.0608
     39 H6          3.9949    1.9916    0.2249 H         1 <0>         0.0621
     40 H7          3.2586    3.2388    1.2596 H         1 <0>         0.0618
     41 H8          1.6294    1.5730    2.1081 H         1 <0>         0.0651
     42 H9          2.3657    0.3258    1.0733 H         1 <0>         0.0657
     43 H10         1.8076    1.6648   -0.9377 H         1 <0>         0.0826
     44 H11         1.0713    2.9120    0.0970 H         1 <0>         0.0758
     45 H12         0.0021   -0.0041    0.0020 H         1 <0>         0.1277
     46 H13        -0.2984    3.3691    1.9656 H         1 <0>         0.1524
     47 H14        -2.1172    3.3651   -1.9127 H         1 <0>         0.1461
     48 H15        -2.5531    7.6864    1.6044 H         1 <0>         0.0492
     49 H16        -2.3232    9.0618    0.4982 H         1 <0>         0.1026
     50 H17        -3.3121    7.6702   -0.0055 H         1 <0>         0.0489
     51 H18         1.6366    6.8213    4.0766 H         1 <0>         0.0657
     52 H19         0.0272    6.7953    4.8364 H         1 <0>         0.0648
     53 H20         1.2108    5.5209    5.2150 H         1 <0>         0.1051
     54 H21        -2.1394    0.1321   -1.9310 H         1 <0>         0.1528
     55 H22        -3.0418    1.6582    1.9685 H         1 <0>         0.1460
     56 H23        -7.3579    0.4359    0.1043 H         1 <0>         0.0489
     57 H24        -6.9937   -0.2086   -1.5144 H         1 <0>         0.0493
     58 H25        -8.0322   -1.1317   -0.4019 H         1 <0>         0.1027
     59 H26        -4.9224   -1.9194   -4.7825 H         1 <0>         0.0650
     60 H27        -3.2217   -2.2584   -5.1836 H         1 <0>         0.1053
     61 H28        -4.0934   -3.3094   -4.0418 H         1 <0>         0.0659
@<TRIPOS>BOND
     1    1    2 1
     2    1   34 1
     3    1   35 1
     4    1   36 1
     5    2    3 1
     6    2   37 1
     7    2   38 1
     8    3    4 1
     9    3   39 1
    10    3   40 1
    11    4    5 1
    12    4   41 1
    13    4   42 1
    14    5    6 1
    15    5   43 1
    16    5   44 1
    17    6    7 2
    18    6   45 1
    19    7    8 1
    20    7   21 1
    21    8   13 ar
    22    8    9 ar
    23    9   10 ar
    24    9   46 1
    25   10   11 ar
    26   10   17 1
    27   11   12 ar
    28   11   15 1
    29   12   13 ar
    30   12   14 1
    31   13   47 1
    32   15   16 1
    33   16   48 1
    34   16   49 1
    35   16   50 1
    36   17   18 2
    37   17   19 1
    38   19   20 1
    39   20   51 1
    40   20   52 1
    41   20   53 1
    42   21   26 ar
    43   21   22 ar
    44   22   23 ar
    45   22   54 1
    46   23   24 ar
    47   23   30 1
    48   24   25 ar
    49   24   28 1
    50   25   26 ar
    51   25   27 1
    52   26   55 1
    53   28   29 1
    54   29   56 1
    55   29   57 1
    56   29   58 1
    57   30   31 2
    58   30   32 1
    59   32   33 1
    60   33   59 1
    61   33   60 1
    62   33   61 1
@<TRIPOS>MOLECULE
ZINC01905250
   37    38     0     0     0
SMALL
USER_CHARGES

@<TRIPOS>ATOM
      1 C1         -0.8567   -2.7432    0.2916 C.3       1 <0>        -0.0985
      2 C2         -1.9409   -1.6965    0.2995 C.2       1 <0>        -0.1544
      3 C3         -3.2820   -2.0623    0.4924 C.2       1 <0>         0.5388
      4 O1         -3.5809   -3.2331    0.6555 O.2       1 <0>        -0.4793
      5 N1         -4.2374   -1.1121    0.4959 N.am      1 <0>        -0.6076
      6 H1         -5.1934   -1.3712    0.6332 H         1 <0>         0.4535
      7 C4         -3.9167    0.1821    0.3163 C.2       1 <0>         0.5232
      8 S1         -5.1532    1.3662    0.3259 S.2       1 <0>        -0.5429
      9 N2         -2.6381    0.5606    0.1349 N.pl3     1 <0>        -0.4767
     10 C5         -1.6319   -0.3760    0.1183 C.2       1 <0>         0.1086
     11 S2          0.0409    0.1203   -0.1268 S.3       1 <0>         0.1020
     12 C6          0.3591    0.8990    1.4215 C.ar      1 <0>        -0.1280
     13 C7         -0.5866    0.8404    2.4376 C.ar      1 <0>        -0.1269
     14 C8         -0.3318    1.4473    3.6516 C.ar      1 <0>        -0.0960
     15 C9          0.8584    2.1222    3.8527 C.ar      1 <0>        -0.1098
     16 C10         1.7996    2.1873    2.8415 C.ar      1 <0>        -0.0968
     17 C11         1.5537    1.5778    1.6270 C.ar      1 <0>        -0.0867
     18 C12        -2.3175    1.9778   -0.0521 C.3       1 <0>         0.2399
     19 O2         -2.0036    2.2180   -1.4254 O.3       1 <0>        -0.3501
     20 C13        -3.1488    2.3217   -2.2738 C.3       1 <0>         0.0530
     21 C14        -2.6949    2.5327   -3.7196 C.3       1 <0>         0.0777
     22 O3         -1.9928    1.3733   -4.1724 O.3       1 <0>        -0.5680
     23 H2         -0.4796   -2.8834    1.3046 H         1 <0>         0.0879
     24 H3         -1.2632   -3.6845   -0.0783 H         1 <0>         0.0898
     25 H4         -0.0432   -2.4188   -0.3573 H         1 <0>         0.0898
     26 H5         -1.5180    0.3169    2.2797 H         1 <0>         0.1125
     27 H6         -1.0646    1.3983    4.4434 H         1 <0>         0.1298
     28 H7          1.0533    2.5997    4.8016 H         1 <0>         0.1311
     29 H8          2.7280    2.7152    3.0019 H         1 <0>         0.1347
     30 H9          2.2890    1.6290    0.8377 H         1 <0>         0.1339
     31 H10        -3.1752    2.5856    0.2362 H         1 <0>         0.1377
     32 H11        -1.4606    2.2413    0.5679 H         1 <0>         0.1336
     33 H12        -3.7347    1.4050   -2.2070 H         1 <0>         0.0580
     34 H13        -3.7597    3.1673   -1.9577 H         1 <0>         0.0816
     35 H14        -3.5660    2.7003   -4.3531 H         1 <0>         0.0647
     36 H15        -2.0361    3.3995   -3.7708 H         1 <0>         0.0585
     37 H16        -1.6750    1.4368   -5.0835 H         1 <0>         0.3814
@<TRIPOS>BOND
     1    1    2 1
     2    1   23 1
     3    1   24 1
     4    1   25 1
     5    2   10 2
     6    2    3 1
     7    3    4 2
     8    3    5 am
     9    5    6 1
    10    5    7 1
    11    7    8 2
    12    7    9 1
    13    9   10 1
    14    9   18 1
    15   10   11 1
    16   11   12 1
    17   12   17 ar
    18   12   13 ar
    19   13   14 ar
    20   13   26 1
    21   14   15 ar
    22   14   27 1
    23   15   16 ar
    24   15   28 1
    25   16   17 ar
    26   16   29 1
    27   17   30 1
    28   18   19 1
    29   18   31 1
    30   18   32 1
    31   19   20 1
    32   20   21 1
    33   20   33 1
    34   20   34 1
    35   21   22 1
    36   21   35 1
    37   21   36 1
    38   22   37 1
@<TRIPOS>MOLECULE
ZINC02004030
   43    44     0     0     0
SMALL
USER_CHARGES

@<TRIPOS>ATOM
      1 C1         -3.1753    0.5502    3.5727 C.3       1 <0>        -0.0923
      2 C2         -2.0967    1.2817    2.8160 C.2       1 <0>        -0.1871
      3 C3         -1.8613    2.6443    3.0520 C.2       1 <0>         0.5556
      4 O1         -2.5301    3.2489    3.8729 O.2       1 <0>        -0.5017
      5 N1         -0.8921    3.2814    2.3660 N.am      1 <0>        -0.6603
      6 H1         -0.7260    4.2537    2.5304 H         1 <0>         0.4397
      7 C4         -0.1458    2.6212    1.4619 C.2       1 <0>         0.7034
      8 O2          0.7267    3.2146    0.8579 O.2       1 <0>        -0.5207
      9 N2         -0.3543    1.3154    1.2121 N.am      1 <0>        -0.5386
     10 C5         -1.3326    0.6261    1.8891 C.2       1 <0>         0.1365
     11 S1         -1.5995   -1.0855    1.5668 S.3       1 <0>        -0.0700
     12 C6         -2.3028   -0.9859   -0.0980 C.3       1 <0>        -0.0845
     13 C7         -3.6782   -0.3190   -0.0315 C.3       1 <0>        -0.1140
     14 C8         -4.2728   -0.2348   -1.4387 C.3       1 <0>        -0.1176
     15 C9         -4.4167   -1.6441   -2.0167 C.3       1 <0>        -0.1235
     16 C10        -3.0413   -2.3110   -2.0832 C.3       1 <0>        -0.1142
     17 C11        -2.4468   -2.3952   -0.6760 C.3       1 <0>        -0.1016
     18 C12         0.4694    0.6233    0.2178 C.3       1 <0>         0.2679
     19 O3          1.7741    0.3963    0.7547 O.3       1 <0>        -0.3577
     20 C13         1.8351   -0.6723    1.7015 C.3       1 <0>         0.0526
     21 C14         3.2453   -0.7528    2.2895 C.3       1 <0>         0.0770
     22 O4          3.5171    0.4328    3.0395 O.3       1 <0>        -0.5664
     23 H2         -2.7565    0.1301    4.4872 H         1 <0>         0.0789
     24 H3         -3.9765    1.2446    3.8256 H         1 <0>         0.0807
     25 H4         -3.5730   -0.2532    2.9527 H         1 <0>         0.0869
     26 H5         -1.6440   -0.3970   -0.7361 H         1 <0>         0.0942
     27 H6         -4.3371   -0.9079    0.6067 H         1 <0>         0.0827
     28 H7         -3.5757    0.6850    0.3803 H         1 <0>         0.0652
     29 H8         -3.6139    0.3541   -2.0769 H         1 <0>         0.0628
     30 H9         -5.2526    0.2403   -1.3914 H         1 <0>         0.0710
     31 H10        -4.8403   -1.5841   -3.0193 H         1 <0>         0.0673
     32 H11        -5.0756   -2.2329   -1.3786 H         1 <0>         0.0666
     33 H12        -2.3825   -1.7221   -2.7214 H         1 <0>         0.0657
     34 H13        -3.1439   -3.3150   -2.4950 H         1 <0>         0.0734
     35 H14        -1.4669   -2.8703   -0.7233 H         1 <0>         0.0753
     36 H15        -3.1057   -2.9841   -0.0378 H         1 <0>         0.0787
     37 H16         0.5476    1.2367   -0.6798 H         1 <0>         0.1317
     38 H17         0.0089   -0.3320   -0.0341 H         1 <0>         0.0997
     39 H18         1.1177   -0.4902    2.5017 H         1 <0>         0.0574
     40 H19         1.5944   -1.6121    1.2047 H         1 <0>         0.0757
     41 H20         3.3169   -1.6214    2.9442 H         1 <0>         0.0642
     42 H21         3.9710   -0.8460    1.4816 H         1 <0>         0.0575
     43 H22         4.3961    0.4506    3.4421 H         1 <0>         0.3817
@<TRIPOS>BOND
     1    1    2 1
     2    1   23 1
     3    1   24 1
     4    1   25 1
     5    2   10 2
     6    2    3 1
     7    3    4 2
     8    3    5 am
     9    5    6 1
    10    5    7 am
    11    7    8 2
    12    7    9 am
    13    9   10 1
    14    9   18 1
    15   10   11 1
    16   11   12 1
    17   12   17 1
    18   12   13 1
    19   12   26 1
    20   13   14 1
    21   13   27 1
    22   13   28 1
    23   14   15 1
    24   14   29 1
    25   14   30 1
    26   15   16 1
    27   15   31 1
    28   15   32 1
    29   16   17 1
    30   16   33 1
    31   16   34 1
    32   17   35 1
    33   17   36 1
    34   18   19 1
    35   18   37 1
    36   18   38 1
    37   19   20 1
    38   20   21 1
    39   20   39 1
    40   20   40 1
    41   21   22 1
    42   21   41 1
    43   21   42 1
    44   22   43 1
@<TRIPOS>MOLECULE
ZINC02020188
   32    35     0     0     0
SMALL
USER_CHARGES

@<TRIPOS>ATOM
      1 C1          3.6030    5.5027    3.7809 C.ar      1 <0>        -0.1069
      2 C2          3.0385    6.2507    2.7647 C.ar      1 <0>        -0.1165
      3 C3          2.7076    5.6485    1.5652 C.ar      1 <0>        -0.0863
      4 C4          2.9415    4.2985    1.3818 C.ar      1 <0>        -0.0837
      5 C5          3.5012    3.5495    2.3999 C.ar      1 <0>        -0.0957
      6 C6          3.8362    4.1525    3.5979 C.ar      1 <0>        -0.1171
      7 C7          2.5808    3.6421    0.0741 C.3       1 <0>         0.2572
      8 C8          1.1511    3.1890    0.0277 C.ar      1 <0>        -0.0516
      9 C9         -0.0558    3.8506    0.0321 C.ar      1 <0>        -0.0864
     10 C10        -1.2399    3.1336    0.0292 C.ar      1 <0>        -0.0811
     11 C11        -1.2158    1.7500    0.0173 C.ar      1 <0>        -0.1177
     12 C12        -0.0126    1.0758    0.0080 C.ar      1 <0>        -0.0421
     13 C13         1.1858    1.7908    0.0004 C.ar      1 <0>        -0.1471
     14 C14         2.5984    1.3641   -0.0382 C.2       1 <0>         0.5955
     15 O1          2.9828    0.2166    0.0755 O.2       1 <0>        -0.5011
     16 N1          3.3975    2.4298   -0.2170 N.am      1 <0>        -0.6228
     17 C15         4.7381    2.8428   -0.6644 C.3       1 <0>         0.1273
     18 C16         4.6049    3.8781   -1.8173 C.3       1 <0>        -0.0829
     19 S1          2.9908    4.6667   -1.3972 S.3       1 <0>        -0.2503
     20 H1          3.8622    5.9733    4.7178 H         1 <0>         0.1268
     21 H2          2.8563    7.3055    2.9077 H         1 <0>         0.1292
     22 H3          2.2665    6.2329    0.7712 H         1 <0>         0.1302
     23 H4          3.6800    2.4938    2.2582 H         1 <0>         0.1192
     24 H5          4.2775    3.5683    4.3917 H         1 <0>         0.1269
     25 H6         -0.0789    4.9304    0.0375 H         1 <0>         0.1323
     26 H7         -2.1854    3.6556    0.0324 H         1 <0>         0.1388
     27 H8         -2.1428    1.1959    0.0191 H         1 <0>         0.1391
     28 H9          0.0021   -0.0041    0.0020 H         1 <0>         0.1372
     29 H10         5.2762    3.2943    0.1690 H         1 <0>         0.0937
     30 H11         5.2868    1.9709   -1.0206 H         1 <0>         0.1073
     31 H12         5.4166    4.6051   -1.7879 H         1 <0>         0.1206
     32 H13         4.5599    3.3824   -2.7870 H         1 <0>         0.1080
@<TRIPOS>BOND
     1    1    6 ar
     2    1    2 ar
     3    1   20 1
     4    2    3 ar
     5    2   21 1
     6    3    4 ar
     7    3   22 1
     8    4    5 ar
     9    4    7 1
    10    5    6 ar
    11    5   23 1
    12    6   24 1
    13    7   16 1
    14    7   19 1
    15    7    8 1
    16    8   13 ar
    17    8    9 ar
    18    9   10 ar
    19    9   25 1
    20   10   11 ar
    21   10   26 1
    22   11   12 ar
    23   11   27 1
    24   12   13 ar
    25   12   28 1
    26   13   14 1
    27   14   15 2
    28   14   16 am
    29   16   17 1
    30   17   18 1
    31   17   29 1
    32   17   30 1
    33   18   19 1
    34   18   31 1
    35   18   32 1
@<TRIPOS>MOLECULE
ZINC03580965
   51    53     0     0     0
SMALL
USER_CHARGES

@<TRIPOS>ATOM
      1 C1          0.9985    1.1636    0.0545 C.3       1 <0>        -0.1537
      2 C2          0.0437    1.4550    1.2139 C.3       1 <0>        -0.0241
      3 C3         -1.1982    0.5704    1.0865 C.3       1 <0>        -0.1515
      4 C4         -0.3661    2.9047    1.1750 C.2       1 <0>        -0.2412
      5 C5         -0.1386    3.7086    2.2357 C.2       1 <0>         0.1948
      6 N1         -0.5120    5.0239    2.1815 N.am      1 <0>        -0.5420
      7 C6         -1.1137    5.5208    1.0855 C.2       1 <0>         0.7014
      8 O1         -1.4413    6.6914    1.0603 O.2       1 <0>        -0.5250
      9 N2         -1.3575    4.7405    0.0162 N.am      1 <0>        -0.6649
     10 H1         -1.8056    5.1265   -0.7902 H         1 <0>         0.4378
     11 C7         -0.9999    3.4404    0.0280 C.2       1 <0>         0.5587
     12 O2         -1.2198    2.7337   -0.9391 O.2       1 <0>        -0.5025
     13 C8         -0.2598    5.8977    3.3299 C.3       1 <0>         0.2662
     14 O3         -1.4864    6.1419    4.0212 O.3       1 <0>        -0.3604
     15 C9         -1.8847    5.0804    4.8909 C.3       1 <0>         0.0906
     16 C10        -3.1835    5.4429    5.5639 C.ar      1 <0>        -0.0959
     17 C11        -3.1719    6.1121    6.7735 C.ar      1 <0>        -0.0967
     18 C12        -4.3632    6.4489    7.3884 C.ar      1 <0>        -0.1221
     19 C13        -5.5660    6.1077    6.7989 C.ar      1 <0>        -0.1095
     20 C14        -5.5776    5.4334    5.5921 C.ar      1 <0>        -0.1215
     21 C15        -4.3863    5.1013    4.9746 C.ar      1 <0>        -0.0958
     22 C16         0.5289    3.1614    3.4710 C.3       1 <0>        -0.0597
     23 C17         2.0235    3.3016    3.3383 C.ar      1 <0>        -0.0917
     24 C18         2.7638    2.2891    2.7572 C.ar      1 <0>        -0.1067
     25 C19         4.1342    2.4199    2.6311 C.ar      1 <0>        -0.1129
     26 C20         4.7655    3.5587    3.0952 C.ar      1 <0>        -0.1127
     27 C21         4.0258    4.5687    3.6816 C.ar      1 <0>        -0.1133
     28 C22         2.6548    4.4402    3.8029 C.ar      1 <0>        -0.1199
     29 H2          1.2949    0.1150    0.0826 H         1 <0>         0.0597
     30 H3          1.8832    1.7938    0.1453 H         1 <0>         0.0528
     31 H4          0.4977    1.3743   -0.8904 H         1 <0>         0.0743
     32 H5          0.5445    1.2442    2.1588 H         1 <0>         0.0836
     33 H6         -0.9018   -0.4782    1.1147 H         1 <0>         0.0608
     34 H7         -1.8784    0.7780    1.9125 H         1 <0>         0.0506
     35 H8         -1.6990    0.7812    0.1416 H         1 <0>         0.0707
     36 H9          0.4478    5.4159    4.0047 H         1 <0>         0.0999
     37 H10         0.1560    6.8435    2.9825 H         1 <0>         0.1340
     38 H11        -2.0184    4.1668    4.3116 H         1 <0>         0.0596
     39 H12        -1.1156    4.9220    5.6468 H         1 <0>         0.0665
     40 H13        -2.2321    6.3751    7.2361 H         1 <0>         0.1241
     41 H14        -4.3542    6.9754    8.3314 H         1 <0>         0.1259
     42 H15        -6.4967    6.3675    7.2812 H         1 <0>         0.1249
     43 H16        -6.5173    5.1665    5.1317 H         1 <0>         0.1251
     44 H17        -4.3953    4.5745    4.0318 H         1 <0>         0.1195
     45 H18         0.1880    3.7170    4.3446 H         1 <0>         0.0929
     46 H19         0.2716    2.1086    3.5869 H         1 <0>         0.1190
     47 H20         2.2711    1.3976    2.3983 H         1 <0>         0.1316
     48 H21         4.7121    1.6306    2.1734 H         1 <0>         0.1269
     49 H22         5.8366    3.6592    3.0001 H         1 <0>         0.1252
     50 H23         4.5191    5.4583    4.0445 H         1 <0>         0.1262
     51 H24         2.0770    5.2293    4.2610 H         1 <0>         0.1202
@<TRIPOS>BOND
     1    1    2 1
     2    1   29 1
     3    1   30 1
     4    1   31 1
     5    2    3 1
     6    2    4 1
     7    2   32 1
     8    3   33 1
     9    3   34 1
    10    3   35 1
    11    4   11 1
    12    4    5 2
    13    5    6 1
    14    5   22 1
    15    6    7 am
    16    6   13 1
    17    7    8 2
    18    7    9 am
    19    9   10 1
    20    9   11 am
    21   11   12 2
    22   13   14 1
    23   13   36 1
    24   13   37 1
    25   14   15 1
    26   15   16 1
    27   15   38 1
    28   15   39 1
    29   16   21 ar
    30   16   17 ar
    31   17   18 ar
    32   17   40 1
    33   18   19 ar
    34   18   41 1
    35   19   20 ar
    36   19   42 1
    37   20   21 ar
    38   20   43 1
    39   21   44 1
    40   22   23 1
    41   22   45 1
    42   22   46 1
    43   23   28 ar
    44   23   24 ar
    45   24   25 ar
    46   24   47 1
    47   25   26 ar
    48   25   48 1
    49   26   27 ar
    50   26   49 1
    51   27   28 ar
    52   27   50 1
    53   28   51 1
@<TRIPOS>MOLECULE
ZINC03797553
   36    38     0     0     0
SMALL
USER_CHARGES

@<TRIPOS>ATOM
      1 C1         -2.3990    6.3501   -0.6232 C.3       1 <0>        -0.1881
      2 C2         -1.2954    5.3730   -0.2132 C.3       1 <0>         0.0090
      3 H1         -1.3485    5.2211    0.8649 H         1 <0>         0.1498
      4 C3         -1.5369    4.0544   -0.9001 C.3       1 <0>         0.1167
      5 N1         -0.7532    2.9907   -0.2750 N.am      1 <0>        -0.5637
      6 C4          0.6455    3.1154   -0.0776 C.ar      1 <0>         0.0787
      7 C5          1.4966    4.1604    0.1682 C.ar      1 <0>        -0.1161
      8 C6          2.8630    3.8994    0.2672 C.ar      1 <0>        -0.0964
      9 C7          3.3444    2.6090    0.1733 C.ar      1 <0>        -0.0859
     10 C8          2.4697    1.5479    0.0473 C.ar      1 <0>        -0.0888
     11 C9          1.1057    1.7979    0.0012 C.ar      1 <0>         0.1203
     12 N2         -0.0111    0.9658    0.0074 N.am      1 <0>        -0.6483
     13 H2          0.0021   -0.0041    0.0020 H         1 <0>         0.4443
     14 C10        -1.1147    1.7424    0.0162 C.2       1 <0>         0.7051
     15 O1         -2.2479    1.3671    0.2523 O.2       1 <0>        -0.5183
     16 C11         1.0880    5.6074    0.3252 C.3       1 <0>         0.0513
     17 C12        -0.1368    7.4080   -0.6940 C.3       1 <0>         0.0165
     18 C13         1.1476    7.9497   -1.2665 C.2       1 <0>        -0.2457
     19 C14         1.1251    8.6669   -2.3625 C.2       1 <0>        -0.0990
     20 H3         -3.3680    5.9498   -0.3250 H         1 <0>         0.1095
     21 H4         -2.2357    7.3095   -0.1323 H         1 <0>         0.0959
     22 H5         -2.3797    6.4873   -1.7044 H         1 <0>         0.0877
     23 H6         -1.2533    4.1395   -1.9491 H         1 <0>         0.0973
     24 H7         -2.5960    3.8050   -0.8349 H         1 <0>         0.1423
     25 H8          3.5528    4.7165    0.4188 H         1 <0>         0.1449
     26 H9          4.4089    2.4287    0.1991 H         1 <0>         0.1494
     27 H10         2.8426    0.5362   -0.0148 H         1 <0>         0.1468
     28 H11         1.9371    6.2445    0.0776 H         1 <0>         0.1437
     29 H12         0.8040    5.7851    1.3624 H         1 <0>         0.1438
     30 H13        -0.9610    7.6377   -1.3693 H         1 <0>         0.1398
     31 H14        -0.3240    7.8670    0.2769 H         1 <0>         0.1440
     32 H15         2.0867    7.7467   -0.7732 H         1 <0>         0.1352
     33 H16         2.0457    9.0551   -2.7728 H         1 <0>         0.1240
     34 H17         0.1861    8.8700   -2.8558 H         1 <0>         0.1121
     35 N3         -0.0111    5.9630   -0.6105 N.4       1 <0>        -0.3835
     36 H18         0.2315    5.6014   -1.5403 H         1 <0>         0.4254
@<TRIPOS>BOND
     1    1    2 1
     2    1   20 1
     3    1   21 1
     4    1   22 1
     5    2    3 1
     6    2    4 1
     7    2   35 1
     8    4    5 1
     9    4   23 1
    10    4   24 1
    11    5   14 am
    12    5    6 1
    13    6   11 ar
    14    6    7 ar
    15    7    8 ar
    16    7   16 1
    17    8    9 ar
    18    8   25 1
    19    9   10 ar
    20    9   26 1
    21   10   11 ar
    22   10   27 1
    23   11   12 1
    24   12   13 1
    25   12   14 am
    26   14   15 2
    27   16   28 1
    28   16   29 1
    29   16   35 1
    30   17   18 1
    31   17   30 1
    32   17   31 1
    33   17   35 1
    34   18   19 2
    35   18   32 1
    36   19   33 1
    37   19   34 1
    38   35   36 1
@<TRIPOS>MOLECULE
ZINC03832001
   39    40     0     0     0
SMALL
USER_CHARGES

@<TRIPOS>ATOM
      1 C1          1.5213    4.9702   -0.9989 C.3       1 <0>        -0.1224
      2 C2          0.5420    3.8540   -0.7419 C.ar      1 <0>        -0.0003
      3 C3          0.9598    2.5352   -0.8416 C.ar      1 <0>        -0.1946
      4 C4          0.0764    1.5056   -0.6101 C.ar      1 <0>        -0.0199
      5 C5         -1.2540    1.7889   -0.2763 C.ar      1 <0>        -0.2640
      6 C6         -1.6722    3.1278   -0.1715 C.ar      1 <0>         0.2919
      7 C7         -0.7632    4.1515   -0.4095 C.ar      1 <0>        -0.2093
      8 N1         -2.9853    3.4244    0.1624 N.pl3     1 <0>        -0.6975
      9 C8         -3.3863    4.8144    0.3932 C.3       1 <0>         0.1529
     10 H1         -2.6261    5.3175    0.9907 H         1 <0>         0.1229
     11 C9         -4.7021    4.8423    1.1274 C.ar      1 <0>        -0.0516
     12 C10        -5.7669    4.0889    0.6677 C.ar      1 <0>        -0.0833
     13 C11        -6.9729    4.1107    1.3450 C.ar      1 <0>        -0.0710
     14 C12        -7.1170    4.8934    2.4751 C.ar      1 <0>        -0.0956
     15 C13        -6.0547    5.6509    2.9317 C.ar      1 <0>        -0.0717
     16 C14        -4.8468    5.6256    2.2581 C.ar      1 <0>        -0.0795
     17 Br1        -3.3935    6.6615    2.8832 Br        1 <0>        -0.0237
     18 Br2        -5.5723    3.0240   -0.8829 Br        1 <0>         0.0059
     19 C15        -3.5343    5.5208   -0.9297 C.2       1 <0>         0.5017
     20 O1         -3.3253    4.9221   -1.9636 O.2       1 <0>        -0.4978
     21 N2         -3.8988    6.8178   -0.9640 N.am      1 <0>        -0.8520
     22 C16        -2.2031    0.6975   -0.0339 C.2       1 <0>         0.4012
     23 O2         -3.3754    0.9443    0.1569 O.2       1 <0>        -0.4737
     24 C17        -1.7221   -0.7306   -0.0217 C.3       1 <0>        -0.1894
     25 H2          1.5024    5.2339   -2.0564 H         1 <0>         0.0767
     26 H3          1.2456    5.8400   -0.4026 H         1 <0>         0.0670
     27 H4          2.5244    4.6442   -0.7237 H         1 <0>         0.0719
     28 H5          1.9843    2.3150   -1.1029 H         1 <0>         0.1251
     29 H6          0.4075    0.4807   -0.6901 H         1 <0>         0.1320
     30 H7         -1.0792    5.1815   -0.3346 H         1 <0>         0.1165
     31 H8         -3.6381    2.7114    0.2431 H         1 <0>         0.4245
     32 H9         -7.8031    3.5190    0.9886 H         1 <0>         0.1467
     33 H10        -8.0599    4.9134    3.0014 H         1 <0>         0.1488
     34 H11        -6.1678    6.2623    3.8148 H         1 <0>         0.1481
     35 H12        -4.0660    7.2967   -0.1372 H         1 <0>         0.3981
     36 H13        -3.9940    7.2725   -1.8156 H         1 <0>         0.4061
     37 H14        -1.4517   -0.9833    0.9073 H         1 <0>         0.0869
     38 H15        -2.5246   -1.3872   -0.3579 H         1 <0>         0.0865
     39 H16        -0.8664   -0.8315   -0.6894 H         1 <0>         0.0859
@<TRIPOS>BOND
     1    1    2 1
     2    1   25 1
     3    1   26 1
     4    1   27 1
     5    2    7 ar
     6    2    3 ar
     7    3    4 ar
     8    3   28 1
     9    4    5 ar
    10    4   29 1
    11    5    6 ar
    12    5   22 1
    13    6    7 ar
    14    6    8 1
    15    7   30 1
    16    8    9 1
    17    8   31 1
    18    9   10 1
    19    9   11 1
    20    9   19 1
    21   11   16 ar
    22   11   12 ar
    23   12   13 ar
    24   12   18 1
    25   13   14 ar
    26   13   32 1
    27   14   15 ar
    28   14   33 1
    29   15   16 ar
    30   15   34 1
    31   16   17 1
    32   19   20 2
    33   19   21 am
    34   21   35 1
    35   21   36 1
    36   22   23 2
    37   22   24 1
    38   24   37 1
    39   24   38 1
    40   24   39 1
@<TRIPOS>MOLECULE
ZINC03832004
   36    38     0     0     0
SMALL
USER_CHARGES

@<TRIPOS>ATOM
      1 C1         -2.1844    6.2346    0.5797 C.3       1 <0>        -0.1780
      2 C2         -2.7305    4.8562    0.9574 C.3       1 <0>         0.1366
      3 N1         -2.3798    3.8893   -0.0860 N.pl3     1 <0>        -0.5935
      4 C3         -3.2406    3.6709   -1.1686 C.ar      1 <0>         0.1495
      5 C4         -3.5166    4.7240   -2.0316 C.ar      1 <0>        -0.0435
      6 C5         -4.3325    4.5265   -3.1293 C.ar      1 <0>        -0.0452
      7 C6         -4.8744    3.2784   -3.3727 C.ar      1 <0>        -0.0338
      8 C7         -4.6156    2.2299   -2.5110 C.ar      1 <0>        -0.1266
      9 C8         -3.8111    2.4243   -1.3937 C.ar      1 <0>         0.1909
     10 N2         -3.6166    1.3645   -0.5078 N.am      1 <0>        -0.5458
     11 C9         -2.4920    1.0475    0.1153 C.2       1 <0>         0.5768
     12 O1         -2.5137    0.0634    0.8289 O.2       1 <0>        -0.5129
     13 C10        -1.2242    1.7758    0.0174 C.ar      1 <0>        -0.2055
     14 C11        -1.1933    3.1797   -0.0139 C.ar      1 <0>         0.4117
     15 N3         -0.0363    3.8236   -0.0005 N.ar      1 <0>        -0.4977
     16 C12         1.1164    3.1826    0.0083 C.ar      1 <0>         0.1523
     17 C13         1.1668    1.8007    0.0006 C.ar      1 <0>        -0.1897
     18 C14        -0.0126    1.0758    0.0080 C.ar      1 <0>         0.0010
     19 C15        -4.7778    0.5127   -0.2391 C.3       1 <0>         0.0644
     20 N4         -4.6271    5.6522   -4.0443 N.pl3     1 <0>         0.0291
     21 O2         -5.3469    5.4786   -5.0114 O.2       1 <0>        -0.1521
     22 O3         -4.1498    6.7521   -3.8300 O.3       1 <0>        -0.1555
     23 H1         -2.4453    6.9539    1.3559 H         1 <0>         0.0679
     24 H2         -1.1000    6.1818    0.4829 H         1 <0>         0.0754
     25 H3         -2.6189    6.5501   -0.3689 H         1 <0>         0.0571
     26 H4         -3.8149    4.9090    1.0541 H         1 <0>         0.0785
     27 H5         -2.2960    4.5407    1.9059 H         1 <0>         0.0783
     28 H6         -3.0924    5.6994   -1.8441 H         1 <0>         0.1659
     29 H7         -5.5010    3.1224   -4.2384 H         1 <0>         0.1649
     30 H8         -5.0399    1.2560   -2.7058 H         1 <0>         0.1595
     31 H9          2.0371    3.7469    0.0222 H         1 <0>         0.1694
     32 H10         2.1189    1.2909   -0.0114 H         1 <0>         0.1501
     33 H11         0.0021   -0.0041    0.0020 H         1 <0>         0.1488
     34 H12        -4.8017   -0.3065   -0.9577 H         1 <0>         0.0729
     35 H13        -4.7059    0.1083    0.7706 H         1 <0>         0.0968
     36 H14        -5.6899    1.1025   -0.3301 H         1 <0>         0.0820
@<TRIPOS>BOND
     1    1    2 1
     2    1   23 1
     3    1   24 1
     4    1   25 1
     5    2    3 1
     6    2   26 1
     7    2   27 1
     8    3   14 1
     9    3    4 1
    10    4    9 ar
    11    4    5 ar
    12    5    6 ar
    13    5   28 1
    14    6    7 ar
    15    6   20 1
    16    7    8 ar
    17    7   29 1
    18    8    9 ar
    19    8   30 1
    20    9   10 1
    21   10   11 am
    22   10   19 1
    23   11   12 2
    24   11   13 1
    25   13   18 ar
    26   13   14 ar
    27   14   15 ar
    28   15   16 ar
    29   16   17 ar
    30   16   31 1
    31   17   18 ar
    32   17   32 1
    33   18   33 1
    34   19   34 1
    35   19   35 1
    36   19   36 1
    37   20   21 2
    38   20   22 1
@<TRIPOS>MOLECULE
ZINC03832005
   33    34     0     0     0
SMALL
USER_CHARGES

@<TRIPOS>ATOM
      1 C1         -1.2575    3.3785    0.0334 C.ar      1 <0>        -0.0572
      2 C2         -0.0730    4.0905    0.0284 C.ar      1 <0>        -0.1608
      3 C3          1.1385    3.4199    0.0134 C.ar      1 <0>         0.1371
      4 C4          1.1628    2.0359    0.0033 C.ar      1 <0>        -0.1574
      5 C5         -0.0242    1.3239    0.0083 C.ar      1 <0>         0.1371
      6 C6         -1.2345    1.9966    0.0180 C.ar      1 <0>        -0.1607
      7 F1         -0.0020   -0.0269   -0.0020 F         1 <0>        -0.1267
      8 C7          2.4805    1.3050   -0.0136 C.3       1 <0>        -0.0927
      9 C8          2.9140    1.0684   -1.4617 C.3       1 <0>         0.1307
     10 N1          4.1950    0.3578   -1.4781 N.pl3     1 <0>        -0.6811
     11 C9          4.7741    0.0396   -2.6528 C.2       1 <0>         0.5215
     12 S1          4.0128    0.4659   -4.1257 S.2       1 <0>        -0.4981
     13 N2          5.9526   -0.6141   -2.6678 N.pl3     1 <0>        -0.6183
     14 C10         6.4982   -1.0393   -3.8778 C.ar      1 <0>         0.3541
     15 C11         7.6579   -1.8066   -3.8785 C.ar      1 <0>        -0.1925
     16 C12         8.1863   -2.2266   -5.0861 C.ar      1 <0>        -0.0242
     17 C13         7.5396   -1.8538   -6.2578 C.ar      1 <0>        -0.1686
     18 C14         6.3941   -1.0853   -6.1826 C.ar      1 <0>         0.1560
     19 N3          5.9107   -0.7043   -5.0155 N.ar      1 <0>        -0.4032
     20 Br1         8.2197   -2.3933   -7.9377 Br        1 <0>        -0.0379
     21 F2          2.2962    4.1161    0.0081 F         1 <0>        -0.1267
     22 H1         -2.2019    3.9023    0.0451 H         1 <0>         0.1470
     23 H2         -0.0922    5.1703    0.0359 H         1 <0>         0.1460
     24 H3         -2.1608    1.4413    0.0178 H         1 <0>         0.1460
     25 H4          3.2344    1.9032    0.4982 H         1 <0>         0.0899
     26 H5          2.3709    0.3467    0.4941 H         1 <0>         0.0899
     27 H6          2.1601    0.4702   -1.9735 H         1 <0>         0.0925
     28 H7          3.0235    2.0267   -1.9694 H         1 <0>         0.0924
     29 H8          4.6264    0.1163   -0.6435 H         1 <0>         0.3968
     30 H9          6.4211   -0.7887   -1.8366 H         1 <0>         0.4103
     31 H10         8.1372   -2.0749   -2.9486 H         1 <0>         0.1414
     32 H11         9.0834   -2.8271   -5.1174 H         1 <0>         0.1485
     33 H12         5.8877   -0.7929   -7.0905 H         1 <0>         0.1687
@<TRIPOS>BOND
     1    1    6 ar
     2    1    2 ar
     3    1   22 1
     4    2    3 ar
     5    2   23 1
     6    3    4 ar
     7    3   21 1
     8    4    5 ar
     9    4    8 1
    10    5    6 ar
    11    5    7 1
    12    6   24 1
    13    8    9 1
    14    8   25 1
    15    8   26 1
    16    9   10 1
    17    9   27 1
    18    9   28 1
    19   10   11 1
    20   10   29 1
    21   11   12 2
    22   11   13 1
    23   13   14 1
    24   13   30 1
    25   14   19 ar
    26   14   15 ar
    27   15   16 ar
    28   15   31 1
    29   16   17 ar
    30   16   32 1
    31   17   18 ar
    32   17   20 1
    33   18   19 ar
    34   18   33 1
@<TRIPOS>MOLECULE
ZINC03832007
   33    34     0     0     0
SMALL
USER_CHARGES

@<TRIPOS>ATOM
      1 C1         -0.0725    9.2903    1.5062 C.ar      1 <0>        -0.0221
      2 C2         -1.0459    9.7153    2.3921 C.ar      1 <0>        -0.1697
      3 C3         -2.0229    8.8375    2.8239 C.ar      1 <0>        -0.0150
      4 C4         -2.0332    7.5340    2.3670 C.ar      1 <0>        -0.1139
      5 C5         -1.0538    7.1023    1.4818 C.ar      1 <0>         0.2870
      6 C6         -0.0735    7.9871    1.0500 C.ar      1 <0>        -0.1913
      7 N1         -1.0578    5.7834    1.0224 N.pl3     1 <0>        -0.7056
      8 C7          0.0308    5.3019    0.1684 C.3       1 <0>         0.1665
      9 H1          0.9808    5.6868    0.5391 H         1 <0>         0.1249
     10 C8          0.0569    3.7952    0.1894 C.ar      1 <0>        -0.0977
     11 C9         -1.1099    3.0802   -0.0128 C.ar      1 <0>        -0.0254
     12 C10        -1.0853    1.6969    0.0061 C.ar      1 <0>        -0.0980
     13 C11         0.1049    1.0295    0.2264 C.ar      1 <0>        -0.0789
     14 C12         1.2700    1.7435    0.4342 C.ar      1 <0>        -0.0997
     15 C13         1.2476    3.1268    0.4103 C.ar      1 <0>        -0.0140
     16 Cl1         2.7124    4.0233    0.6642 Cl        1 <0>        -0.0442
     17 Cl2        -2.6046    3.9182   -0.2907 Cl        1 <0>        -0.0099
     18 C14        -0.1888    5.7809   -1.2434 C.2       1 <0>         0.5022
     19 O1         -1.1591    6.4579   -1.5101 O.2       1 <0>        -0.5015
     20 N2          0.6931    5.4570   -2.2098 N.am      1 <0>        -0.8488
     21 N3         -3.0830    6.5966    2.8250 N.pl3     1 <0>         0.0369
     22 O2         -3.5548    5.7845    2.0495 O.2       1 <0>        -0.1792
     23 O3         -3.4753    6.6374    3.9774 O.3       1 <0>        -0.1495
     24 H2          0.6891    9.9787    1.1706 H         1 <0>         0.1420
     25 H3         -1.0430   10.7353    2.7471 H         1 <0>         0.1447
     26 H4         -2.7814    9.1725    3.5160 H         1 <0>         0.1478
     27 H5          0.6870    7.6558    0.3585 H         1 <0>         0.1342
     28 H6         -1.7814    5.1862    1.2687 H         1 <0>         0.4188
     29 H7         -1.9962    1.1385   -0.1518 H         1 <0>         0.1499
     30 H8          0.1237   -0.0502    0.2407 H         1 <0>         0.1512
     31 H9          2.1989    1.2216    0.6107 H         1 <0>         0.1500
     32 H10         1.4692    4.9156   -1.9965 H         1 <0>         0.4000
     33 H11         0.5518    5.7654   -3.1185 H         1 <0>         0.4083
@<TRIPOS>BOND
     1    1    6 ar
     2    1    2 ar
     3    1   24 1
     4    2    3 ar
     5    2   25 1
     6    3    4 ar
     7    3   26 1
     8    4    5 ar
     9    4   21 1
    10    5    6 ar
    11    5    7 1
    12    6   27 1
    13    7    8 1
    14    7   28 1
    15    8    9 1
    16    8   10 1
    17    8   18 1
    18   10   15 ar
    19   10   11 ar
    20   11   12 ar
    21   11   17 1
    22   12   13 ar
    23   12   29 1
    24   13   14 ar
    25   13   30 1
    26   14   15 ar
    27   14   31 1
    28   15   16 1
    29   18   19 2
    30   18   20 am
    31   20   32 1
    32   20   33 1
    33   21   22 2
    34   21   23 1
@<TRIPOS>MOLECULE
ZINC03832008
   33    34     0     0     0
SMALL
USER_CHARGES

@<TRIPOS>ATOM
      1 C1         -4.3929    2.2633   -3.4381 C.ar      1 <0>        -0.0156
      2 C2         -5.4347    3.1657   -3.3226 C.ar      1 <0>        -0.1747
      3 C3         -5.8370    3.6060   -2.0752 C.ar      1 <0>        -0.0102
      4 C4         -5.2029    3.1413   -0.9395 C.ar      1 <0>        -0.1222
      5 C5         -4.1527    2.2395   -1.0522 C.ar      1 <0>         0.2938
      6 C6         -3.7510    1.7991   -2.3072 C.ar      1 <0>        -0.1971
      7 N1         -3.5055    1.7720    0.0939 N.pl3     1 <0>        -0.6958
      8 C7         -2.4968    0.7151   -0.0141 C.3       1 <0>         0.1618
      9 H1         -2.8399   -0.0442   -0.7169 H         1 <0>         0.1248
     10 C8         -2.2807    0.0867    1.3385 C.ar      1 <0>        -0.0945
     11 C9         -2.0613    0.8863    2.4458 C.ar      1 <0>        -0.0180
     12 C10        -1.8673    0.3089    3.6881 C.ar      1 <0>        -0.0975
     13 C11        -1.8832   -1.0668    3.8212 C.ar      1 <0>        -0.0789
     14 C12        -2.0971   -1.8664    2.7143 C.ar      1 <0>        -0.0995
     15 C13        -2.2960   -1.2900    1.4723 C.ar      1 <0>        -0.0137
     16 Cl1        -2.5641   -2.2945    0.0820 Cl        1 <0>        -0.0446
     17 Cl2        -2.0348    2.6139    2.2776 Cl        1 <0>        -0.0214
     18 C14        -1.2008    1.3060   -0.5063 C.2       1 <0>         0.5026
     19 O1         -1.1270    2.4931   -0.7435 O.2       1 <0>        -0.5058
     20 N2         -0.1237    0.5153   -0.6829 N.am      1 <0>        -0.8481
     21 N3         -5.6383    3.6084    0.3957 N.pl3     1 <0>         0.0508
     22 O2         -6.4694    4.4938    0.4900 O.2       1 <0>        -0.1543
     23 O3         -5.1653    3.1076    1.4002 O.3       1 <0>        -0.2016
     24 H2         -4.0814    1.9211   -4.4140 H         1 <0>         0.1422
     25 H3         -5.9353    3.5269   -4.2088 H         1 <0>         0.1451
     26 H4         -6.6511    4.3104   -1.9886 H         1 <0>         0.1535
     27 H5         -2.9373    1.0948   -2.3980 H         1 <0>         0.1341
     28 H6         -3.7239    2.1471    0.9613 H         1 <0>         0.4253
     29 H7         -1.6994    0.9332    4.5533 H         1 <0>         0.1496
     30 H8         -1.7280   -1.5171    4.7905 H         1 <0>         0.1512
     31 H9         -2.1087   -2.9412    2.8188 H         1 <0>         0.1499
     32 H10        -0.1827   -0.4341   -0.4932 H         1 <0>         0.4005
     33 H11         0.7093    0.8950   -1.0035 H         1 <0>         0.4082
@<TRIPOS>BOND
     1    1    6 ar
     2    1    2 ar
     3    1   24 1
     4    2    3 ar
     5    2   25 1
     6    3    4 ar
     7    3   26 1
     8    4    5 ar
     9    4   21 1
    10    5    6 ar
    11    5    7 1
    12    6   27 1
    13    7    8 1
    14    7   28 1
    15    8    9 1
    16    8   10 1
    17    8   18 1
    18   10   15 ar
    19   10   11 ar
    20   11   12 ar
    21   11   17 1
    22   12   13 ar
    23   12   29 1
    24   13   14 ar
    25   13   30 1
    26   14   15 ar
    27   14   31 1
    28   15   16 1
    29   18   19 2
    30   18   20 am
    31   20   32 1
    32   20   33 1
    33   21   22 2
    34   21   23 1
@<TRIPOS>MOLECULE
ZINC03832009
   36    37     0     0     0
SMALL
USER_CHARGES

@<TRIPOS>ATOM
      1 C1         -4.0362    7.0286    3.9277 C.3       1 <0>        -0.1887
      2 C2         -3.0879    6.6102    2.8338 C.2       1 <0>         0.4020
      3 O1         -3.1879    5.5101    2.3323 O.2       1 <0>        -0.4745
      4 C3         -2.0442    7.5329    2.3754 C.ar      1 <0>        -0.2593
      5 C4         -1.9977    8.8444    2.8647 C.ar      1 <0>        -0.0221
      6 C5         -1.0186    9.7061    2.4254 C.ar      1 <0>        -0.1942
      7 C6         -0.0727    9.2823    1.5038 C.ar      1 <0>        -0.0331
      8 C7         -0.1005    7.9928    1.0149 C.ar      1 <0>        -0.2092
      9 C8         -1.0798    7.1057    1.4449 C.ar      1 <0>         0.2865
     10 N1         -1.1095    5.8084    0.9551 N.pl3     1 <0>        -0.6992
     11 C9         -0.0368    5.3315    0.0788 C.3       1 <0>         0.1623
     12 H1          0.9230    5.6888    0.4520 H         1 <0>         0.1206
     13 C10        -0.0381    3.8247    0.0575 C.ar      1 <0>        -0.0911
     14 C11        -1.2193    3.1367   -0.1540 C.ar      1 <0>        -0.0200
     15 C12        -1.2198    1.7532   -0.1740 C.ar      1 <0>        -0.1007
     16 C13        -0.0402    1.0586    0.0170 C.ar      1 <0>        -0.0820
     17 C14         1.1395    1.7454    0.2341 C.ar      1 <0>        -0.1012
     18 C15         1.1421    3.1289    0.2490 C.ar      1 <0>        -0.0153
     19 Cl1         2.6251    3.9915    0.5146 Cl        1 <0>        -0.0452
     20 Cl2        -2.7008    4.0089   -0.3951 Cl        1 <0>        -0.0164
     21 C16        -0.2589    5.8538   -1.3172 C.2       1 <0>         0.5022
     22 O2         -1.2188    6.5554   -1.5566 O.2       1 <0>        -0.5042
     23 N2          0.6091    5.5414   -2.2997 N.am      1 <0>        -0.8518
     24 H2         -4.5422    7.8408    3.6375 H         1 <0>         0.0836
     25 H3         -4.7360    6.2182    4.1316 H         1 <0>         0.0839
     26 H4         -3.4707    7.2564    4.8313 H         1 <0>         0.0940
     27 H5         -2.7314    9.1803    3.5825 H         1 <0>         0.1309
     28 H6         -0.9869   10.7185    2.8004 H         1 <0>         0.1258
     29 H7          0.6910    9.9672    1.1661 H         1 <0>         0.1254
     30 H8          0.6401    7.6721    0.2972 H         1 <0>         0.1169
     31 H9         -1.8406    5.2169    1.1929 H         1 <0>         0.4237
     32 H10        -2.1421    1.2160   -0.3391 H         1 <0>         0.1473
     33 H11        -0.0410   -0.0213    0.0010 H         1 <0>         0.1496
     34 H12         2.0601    1.2021    0.3877 H         1 <0>         0.1486
     35 H13         1.3769    4.9803   -2.1082 H         1 <0>         0.3990
     36 H14         0.4662    5.8776   -3.1983 H         1 <0>         0.4060
@<TRIPOS>BOND
     1    1    2 1
     2    1   24 1
     3    1   25 1
     4    1   26 1
     5    2    3 2
     6    2    4 1
     7    4    9 ar
     8    4    5 ar
     9    5    6 ar
    10    5   27 1
    11    6    7 ar
    12    6   28 1
    13    7    8 ar
    14    7   29 1
    15    8    9 ar
    16    8   30 1
    17    9   10 1
    18   10   11 1
    19   10   31 1
    20   11   12 1
    21   11   13 1
    22   11   21 1
    23   13   18 ar
    24   13   14 ar
    25   14   15 ar
    26   14   20 1
    27   15   16 ar
    28   15   32 1
    29   16   17 ar
    30   16   33 1
    31   17   18 ar
    32   17   34 1
    33   18   19 1
    34   21   22 2
    35   21   23 am
    36   23   35 1
    37   23   36 1
@<TRIPOS>MOLECULE
ZINC03832011
   36    37     0     0     0
SMALL
USER_CHARGES

@<TRIPOS>ATOM
      1 C1         -6.8959    4.9279    0.3830 C.3       1 <0>        -0.1892
      2 C2         -5.8724    3.8227    0.3382 C.2       1 <0>         0.4030
      3 O1         -5.4315    3.3620    1.3702 O.2       1 <0>        -0.4750
      4 C3         -5.4092    3.3041   -0.9531 C.ar      1 <0>        -0.2579
      5 C4         -5.9959    3.7506   -2.1440 C.ar      1 <0>        -0.0221
      6 C5         -5.5597    3.2550   -3.3515 C.ar      1 <0>        -0.1949
      7 C6         -4.5376    2.3185   -3.3977 C.ar      1 <0>        -0.0322
      8 C7         -3.9452    1.8711   -2.2351 C.ar      1 <0>        -0.2142
      9 C8         -4.3694    2.3583   -1.0048 C.ar      1 <0>         0.2887
     10 N1         -3.7750    1.9103    0.1655 N.pl3     1 <0>        -0.6990
     11 C9         -2.6289    0.9999    0.1030 C.3       1 <0>         0.1618
     12 H1         -2.8075    0.2429   -0.6607 H         1 <0>         0.1207
     13 C10        -2.4456    0.3306    1.4407 C.ar      1 <0>        -0.0914
     14 C11        -2.2936   -1.0425    1.5123 C.ar      1 <0>        -0.0149
     15 C12        -2.1209   -1.6560    2.7404 C.ar      1 <0>        -0.1015
     16 C13        -2.1099   -0.8982    3.8963 C.ar      1 <0>        -0.0818
     17 C14        -2.2670    0.4732    3.8258 C.ar      1 <0>        -0.1010
     18 C15        -2.4349    1.0884    2.5979 C.ar      1 <0>        -0.0199
     19 Cl1        -2.6327    2.8108    2.5096 Cl        1 <0>        -0.0162
     20 Cl2        -2.3140   -1.9951    0.0612 Cl        1 <0>        -0.0453
     21 C16        -1.3865    1.7793   -0.2433 C.2       1 <0>         0.5033
     22 O2         -1.4519    2.9774   -0.4204 O.2       1 <0>        -0.5051
     23 N2         -0.2026    1.1451   -0.3561 N.am      1 <0>        -0.8515
     24 H2         -7.8138    4.5316    0.4022 H         1 <0>         0.0873
     25 H3         -6.7414    5.5301    1.2783 H         1 <0>         0.0870
     26 H4         -6.7903    5.5570   -0.5008 H         1 <0>         0.0865
     27 H5         -6.7921    4.4797   -2.1145 H         1 <0>         0.1317
     28 H6         -6.0161    3.5970   -4.2686 H         1 <0>         0.1257
     29 H7         -4.2034    1.9364   -4.3510 H         1 <0>         0.1255
     30 H8         -3.1503    1.1414   -2.2812 H         1 <0>         0.1180
     31 H9         -4.1180    2.1999    1.0253 H         1 <0>         0.4236
     32 H10        -1.9989   -2.7276    2.7962 H         1 <0>         0.1486
     33 H11        -1.9789   -1.3779    4.8550 H         1 <0>         0.1495
     34 H12        -2.2590    1.0647    4.7294 H         1 <0>         0.1471
     35 H13        -0.1504    0.1869   -0.2144 H         1 <0>         0.3990
     36 H14         0.5964    1.6461   -0.5829 H         1 <0>         0.4060
@<TRIPOS>BOND
     1    1    2 1
     2    1   24 1
     3    1   25 1
     4    1   26 1
     5    2    3 2
     6    2    4 1
     7    4    9 ar
     8    4    5 ar
     9    5    6 ar
    10    5   27 1
    11    6    7 ar
    12    6   28 1
    13    7    8 ar
    14    7   29 1
    15    8    9 ar
    16    8   30 1
    17    9   10 1
    18   10   11 1
    19   10   31 1
    20   11   12 1
    21   11   13 1
    22   11   21 1
    23   13   18 ar
    24   13   14 ar
    25   14   15 ar
    26   14   20 1
    27   15   16 ar
    28   15   32 1
    29   16   17 ar
    30   16   33 1
    31   17   18 ar
    32   17   34 1
    33   18   19 1
    34   21   22 2
    35   21   23 am
    36   23   35 1
    37   23   36 1
@<TRIPOS>MOLECULE
ZINC03833862
   44    45     0     0     0
SMALL
USER_CHARGES

@<TRIPOS>ATOM
      1 C1          2.6166    4.4102    2.4579 C.3       1 <0>        -0.1100
      2 C2          2.3534    3.2620    1.5180 C.2       1 <0>         0.1331
      3 C3          1.2094    3.0630    0.8013 C.2       1 <0>        -0.2383
      4 C4          1.4291    1.8236    0.0413 C.2       1 <0>        -0.1930
      5 C5          2.6611    1.4040    0.3676 C.2       1 <0>        -0.0236
      6 O1          3.2012    2.2645    1.2445 O.3       1 <0>        -0.1703
      7 C6          0.0044    3.9091    0.7953 C.2       1 <0>         0.4134
      8 S1         -0.0565    5.3189    1.7647 S.2       1 <0>        -0.5415
      9 N1         -1.0507    3.5736    0.0267 N.pl3     1 <0>        -0.5888
     10 C7         -2.2276    4.3267    0.0875 C.ar      1 <0>         0.0978
     11 C8         -3.4592    3.6883    0.1606 C.ar      1 <0>        -0.0961
     12 C9         -4.6192    4.4343    0.2268 C.ar      1 <0>        -0.1105
     13 C10        -4.5565    5.8168    0.2078 C.ar      1 <0>         0.0018
     14 C11        -3.3314    6.4553    0.1292 C.ar      1 <0>        -0.0771
     15 C12        -2.1675    5.7140    0.0690 C.ar      1 <0>        -0.0445
     16 C13        -3.2670    7.9608    0.1097 C.3       1 <0>         0.0933
     17 N2         -3.6815    8.4516   -1.2113 N.3       1 <0>        -0.4966
     18 O2         -3.6312    9.9127   -1.2673 O.3       1 <0>        -0.2353
     19 C14        -4.0230   10.4599   -2.5279 C.3       1 <0>         0.1075
     20 C15        -5.4627   10.0455   -2.8384 C.3       1 <0>        -0.1618
     21 C16        -3.9325   11.9862   -2.4716 C.3       1 <0>        -0.1383
     22 C17        -3.0933    9.9339   -3.6233 C.3       1 <0>        -0.1781
     23 Cl1        -6.0174    6.7516    0.2832 Cl        1 <0>        -0.0440
     24 H1          2.2883    4.1405    3.4617 H         1 <0>         0.0994
     25 H2          3.6839    4.6311    2.4718 H         1 <0>         0.0774
     26 H3          2.0680    5.2894    2.1202 H         1 <0>         0.1399
     27 H4          0.7396    1.3483   -0.6407 H         1 <0>         0.1578
     28 H5          3.1413    0.5151   -0.0141 H         1 <0>         0.2134
     29 H6         -0.9937    2.8099   -0.5686 H         1 <0>         0.4147
     30 H7         -3.5090    2.6095    0.1706 H         1 <0>         0.1365
     31 H8         -5.5768    3.9385    0.2881 H         1 <0>         0.1430
     32 H9         -1.2116    6.2128    0.0074 H         1 <0>         0.1548
     33 H10        -3.9339    8.3629    0.8724 H         1 <0>         0.1009
     34 H11        -2.2459    8.2834    0.3133 H         1 <0>         0.0588
     35 H12        -3.1188    8.0422   -1.9420 H         1 <0>         0.3315
     36 H13        -6.1250   10.4202   -2.0580 H         1 <0>         0.0608
     37 H14        -5.7615   10.4629   -3.8000 H         1 <0>         0.0561
     38 H15        -5.5272    8.9581   -2.8785 H         1 <0>         0.0678
     39 H16        -2.9068   12.2814   -2.2503 H         1 <0>         0.0614
     40 H17        -4.2313   12.4036   -3.4331 H         1 <0>         0.0741
     41 H18        -4.5948   12.3609   -1.6912 H         1 <0>         0.0653
     42 H19        -3.1578    8.8466   -3.6634 H         1 <0>         0.0583
     43 H20        -3.3921   10.3513   -4.5848 H         1 <0>         0.0691
     44 H21        -2.0676   10.2292   -3.4020 H         1 <0>         0.0601
@<TRIPOS>BOND
     1    1    2 1
     2    1   24 1
     3    1   25 1
     4    1   26 1
     5    2    6 1
     6    2    3 2
     7    3    4 1
     8    3    7 1
     9    4    5 2
    10    4   27 1
    11    5    6 1
    12    5   28 1
    13    7    8 2
    14    7    9 1
    15    9   10 1
    16    9   29 1
    17   10   15 ar
    18   10   11 ar
    19   11   12 ar
    20   11   30 1
    21   12   13 ar
    22   12   31 1
    23   13   14 ar
    24   13   23 1
    25   14   15 ar
    26   14   16 1
    27   15   32 1
    28   16   17 1
    29   16   33 1
    30   16   34 1
    31   17   18 1
    32   17   35 1
    33   18   19 1
    34   19   20 1
    35   19   21 1
    36   19   22 1
    37   20   36 1
    38   20   37 1
    39   20   38 1
    40   21   39 1
    41   21   40 1
    42   21   41 1
    43   22   42 1
    44   22   43 1
    45   22   44 1
@<TRIPOS>MOLECULE
ZINC03833863
   42    44     0     0     0
SMALL
USER_CHARGES

@<TRIPOS>ATOM
      1 C1         -1.2059    1.7376    0.0172 C.ar      1 <0>        -0.0762
      2 C2         -0.0126    1.0758    0.0080 C.ar      1 <0>        -0.1653
      3 C3          1.1850    1.7832    0.0003 C.ar      1 <0>         0.1384
      4 C4          1.1728    3.1891    0.0075 C.ar      1 <0>        -0.1475
      5 C5         -0.0426    3.8673    0.0228 C.ar      1 <0>        -0.0380
      6 C6         -1.2384    3.1415    0.0308 C.ar      1 <0>        -0.0896
      7 C7         -2.5258    3.8467    0.0469 C.2       1 <0>         0.0702
      8 C8         -2.9086    4.6469   -1.0569 C.2       1 <0>        -0.0903
      9 C9         -2.0446    4.7655   -2.1646 C.2       1 <0>        -0.0336
     10 C10        -2.3832    5.5190   -3.2383 C.2       1 <0>        -0.2270
     11 C11        -3.6108    6.2118   -3.2614 C.2       1 <0>         0.3985
     12 O1         -3.9165    6.8959   -4.2271 O.2       1 <0>        -0.4448
     13 C12        -4.5162    6.1022   -2.1146 C.2       1 <0>        -0.2078
     14 C13        -4.1398    5.3168   -1.0332 C.2       1 <0>        -0.0386
     15 C14        -5.8036    6.8125   -2.1093 C.2       1 <0>         0.4945
     16 O2         -6.5478    6.7146   -1.1531 O.co2     1 <0>        -0.6314
     17 C15        -3.4164    3.7222    1.2071 C.ar      1 <0>        -0.0973
     18 C16        -3.0159    4.2208    2.4574 C.ar      1 <0>        -0.0765
     19 C17        -3.8413    4.1136    3.5388 C.ar      1 <0>        -0.1670
     20 C18        -5.0834    3.4993    3.4185 C.ar      1 <0>         0.1420
     21 C19        -5.4994    2.9888    2.1763 C.ar      1 <0>        -0.1429
     22 C20        -4.6625    3.1017    1.0700 C.ar      1 <0>        -0.0293
     23 C21        -6.8156    2.3366    2.0464 C.2       1 <0>         0.4953
     24 O3         -7.5438    2.2397    3.0142 O.co2     1 <0>        -0.6262
     25 O4         -5.8924    3.3924    4.4989 O.3       1 <0>        -0.4753
     26 C22         2.4411    3.9414   -0.0015 C.2       1 <0>         0.4936
     27 O5          3.5003    3.3463   -0.0152 O.co2     1 <0>        -0.6246
     28 O6          2.3637    1.1173   -0.0145 O.3       1 <0>        -0.4779
     29 H1         -2.1301    1.1788    0.0182 H         1 <0>         0.1266
     30 H2          0.0021   -0.0041    0.0020 H         1 <0>         0.1228
     31 H3         -0.0623    4.9471    0.0280 H         1 <0>         0.1393
     32 H4         -1.0992    4.2435   -2.1590 H         1 <0>         0.1276
     33 H5         -1.7080    5.5930   -4.0780 H         1 <0>         0.1293
     34 H6         -4.7922    5.2227   -0.1777 H         1 <0>         0.1397
     35 H7         -2.0516    4.6957    2.5626 H         1 <0>         0.1240
     36 H8         -3.5262    4.5042    4.4951 H         1 <0>         0.1224
     37 H9         -4.9731    2.7123    0.1117 H         1 <0>         0.1385
     38 H10        -5.7609    2.5822    5.0101 H         1 <0>         0.3786
     39 H11         2.6977    0.9286   -0.9022 H         1 <0>         0.3811
     40 O7         -6.1587    7.5722   -3.1648 O.co2     1 <0>        -0.7466
     41 O8         -7.2107    1.8481    0.8544 O.co2     1 <0>        -0.7533
     42 O9          2.4253    5.2887    0.0054 O.co2     1 <0>        -0.7557
@<TRIPOS>BOND
     1    1    6 ar
     2    1    2 ar
     3    1   29 1
     4    2    3 ar
     5    2   30 1
     6    3    4 ar
     7    3   28 1
     8    4    5 ar
     9    4   26 1
    10    5    6 ar
    11    5   31 1
    12    6    7 1
    13    7    8 2
    14    7   17 1
    15    8   14 1
    16    8    9 1
    17    9   10 2
    18    9   32 1
    19   10   11 1
    20   10   33 1
    21   11   12 2
    22   11   13 1
    23   13   14 2
    24   13   15 1
    25   14   34 1
    26   15   16 2
    27   15   40 1
    28   17   22 ar
    29   17   18 ar
    30   18   19 ar
    31   18   35 1
    32   19   20 ar
    33   19   36 1
    34   20   21 ar
    35   20   25 1
    36   21   22 ar
    37   21   23 1
    38   22   37 1
    39   23   24 2
    40   23   41 1
    41   25   38 1
    42   26   27 2
    43   26   42 1
    44   28   39 1
@<TRIPOS>MOLECULE
ZINC03833865
   33    35     0     0     0
SMALL
USER_CHARGES

@<TRIPOS>ATOM
      1 C1          2.2319    4.2462    0.0027 C.ar      1 <0>        -0.0535
      2 C2          1.0716    3.4962    0.0097 C.ar      1 <0>        -0.1440
      3 C3          1.1447    2.1100    0.0025 C.ar      1 <0>         0.1951
      4 C4          2.3903    1.4911   -0.0127 C.ar      1 <0>        -0.1377
      5 C5          3.5447    2.2388   -0.0201 C.ar      1 <0>        -0.0465
      6 C6          3.4669    3.6227   -0.0124 C.ar      1 <0>        -0.0618
      7 Cl1         4.9192    4.5737   -0.0223 Cl        1 <0>        -0.0525
      8 C7          2.4332   -0.0195   -0.0212 C.3       1 <0>         0.2220
      9 N1          1.1392   -0.7228   -0.0127 N.am      1 <0>        -0.7105
     10 C8          0.0021   -0.0041    0.0020 C.2       1 <0>         0.7184
     11 O1         -1.0588   -0.5980    0.0085 O.2       1 <0>        -0.5561
     12 N2         -0.0161    1.3349    0.0094 N.am      1 <0>        -0.6566
     13 C9          3.1914   -0.4561   -1.2482 C.2       1 <0>        -0.1996
     14 C10         2.6581   -1.3219   -2.0741 C.2       1 <0>        -0.0666
     15 C11         3.4163   -1.7585   -3.3012 C.3       1 <0>        -0.1390
     16 C12         2.6669   -2.6079   -4.3296 C.3       1 <0>        -0.1708
     17 C13         3.7364   -3.2481   -3.4410 C.3       1 <0>        -0.1645
     18 C14         3.2265   -0.4760    1.2048 C.3       1 <0>         0.4449
     19 F1          3.4274   -1.8591    1.1418 F         1 <0>        -0.1721
     20 F2          4.4648    0.1746    1.2278 F         1 <0>        -0.1689
     21 F3          2.5126   -0.1610    2.3660 F         1 <0>        -0.1721
     22 H1          2.1745    5.3247    0.0086 H         1 <0>         0.1476
     23 H2          0.1098    3.9873    0.0207 H         1 <0>         0.1480
     24 H3          4.5076    1.7498   -0.0315 H         1 <0>         0.1558
     25 H4          1.1072   -1.6923   -0.0179 H         1 <0>         0.4373
     26 H5         -0.8745    1.7865    0.0158 H         1 <0>         0.4315
     27 H6          4.1743   -0.0551   -1.4467 H         1 <0>         0.1403
     28 H7          1.6751   -1.7229   -1.8757 H         1 <0>         0.1191
     29 H8          4.1531   -1.0480   -3.6761 H         1 <0>         0.1150
     30 H9          1.6255   -2.8510   -4.1188 H         1 <0>         0.0977
     31 H10         2.9109   -2.4566   -5.3811 H         1 <0>         0.1004
     32 H11         4.6835   -3.5176   -3.9083 H         1 <0>         0.1015
     33 H12         3.3989   -3.9122   -2.6454 H         1 <0>         0.0984
@<TRIPOS>BOND
     1    1    6 ar
     2    1    2 ar
     3    1   22 1
     4    2    3 ar
     5    2   23 1
     6    3   12 1
     7    3    4 ar
     8    4    5 ar
     9    4    8 1
    10    5    6 ar
    11    5   24 1
    12    6    7 1
    13    8    9 1
    14    8   13 1
    15    8   18 1
    16    9   10 am
    17    9   25 1
    18   10   11 2
    19   10   12 am
    20   12   26 1
    21   13   14 2
    22   13   27 1
    23   14   15 1
    24   14   28 1
    25   15   17 1
    26   15   16 1
    27   15   29 1
    28   16   17 1
    29   16   30 1
    30   16   31 1
    31   17   32 1
    32   17   33 1
    33   18   19 1
    34   18   20 1
    35   18   21 1
@<TRIPOS>MOLECULE
ZINC03833866
   31    33     0     0     0
SMALL
USER_CHARGES

@<TRIPOS>ATOM
      1 C1         -1.2360    3.1390    0.0307 C.ar      1 <0>        -0.0497
      2 C2         -0.0515    3.8501    0.0227 C.ar      1 <0>        -0.1432
      3 C3          1.1606    3.1736    0.0076 C.ar      1 <0>         0.1993
      4 C4          1.1673    1.7826    0.0005 C.ar      1 <0>        -0.1445
      5 C5         -0.0126    1.0758    0.0080 C.ar      1 <0>        -0.0417
      6 C6         -1.2205    1.7555    0.0173 C.ar      1 <0>        -0.0616
      7 Cl1        -2.7142    0.8708    0.0202 Cl        1 <0>        -0.0505
      8 C7          2.5045    1.0787   -0.0161 C.3       1 <0>         0.3212
      9 N1          3.7060    1.9306   -0.0234 N.am      1 <0>        -0.7057
     10 C8          3.5617    3.2681   -0.0153 C.2       1 <0>         0.7191
     11 O1          4.5623    3.9589   -0.0215 O.2       1 <0>        -0.5517
     12 N2          2.3677    3.8743   -0.0011 N.am      1 <0>        -0.6562
     13 C9          2.5734    0.2070    1.1681 C.1       1 <0>        -0.2425
     14 C10         2.6283   -0.4883    2.1125 C.1       1 <0>        -0.0409
     15 C11         2.6971   -1.3600    3.2966 C.3       1 <0>        -0.0697
     16 C12         3.6892   -0.9793    4.3974 C.3       1 <0>        -0.1580
     17 C13         3.9719   -2.1823    3.4953 C.3       1 <0>        -0.1575
     18 C14         2.5521    0.1851   -1.2571 C.3       1 <0>         0.4479
     19 F1          2.4057    0.9722   -2.4044 F         1 <0>        -0.1659
     20 F2          3.7801   -0.4834   -1.3036 F         1 <0>        -0.1701
     21 F3          1.5137   -0.7506   -1.1980 F         1 <0>        -0.1653
     22 H1         -2.1788    3.6657    0.0421 H         1 <0>         0.1497
     23 H2         -0.0685    4.9299    0.0287 H         1 <0>         0.1506
     24 H3          0.0021   -0.0041    0.0020 H         1 <0>         0.1543
     25 H4          4.5903    1.5322   -0.0337 H         1 <0>         0.4397
     26 H5          2.3405    4.8439    0.0034 H         1 <0>         0.4330
     27 H6          1.7538   -1.8119    3.6031 H         1 <0>         0.1379
     28 H7          4.2909   -0.0833    4.2447 H         1 <0>         0.1000
     29 H8          3.3986   -1.1806    5.4284 H         1 <0>         0.1103
     30 H9          3.8673   -3.1751    3.9329 H         1 <0>         0.1106
     31 H10         4.7597   -2.0778    2.7492 H         1 <0>         0.1011
@<TRIPOS>BOND
     1    1    6 ar
     2    1    2 ar
     3    1   22 1
     4    2    3 ar
     5    2   23 1
     6    3   12 1
     7    3    4 ar
     8    4    5 ar
     9    4    8 1
    10    5    6 ar
    11    5   24 1
    12    6    7 1
    13    8    9 1
    14    8   13 1
    15    8   18 1
    16    9   10 am
    17    9   25 1
    18   10   11 2
    19   10   12 am
    20   12   26 1
    21   13   14 3
    22   14   15 1
    23   15   17 1
    24   15   16 1
    25   15   27 1
    26   16   17 1
    27   16   28 1
    28   16   29 1
    29   17   30 1
    30   17   31 1
    31   18   19 1
    32   18   20 1
    33   18   21 1
@<TRIPOS>MOLECULE
ZINC03833867
   42    43     0     0     0
SMALL
USER_CHARGES

@<TRIPOS>ATOM
      1 C1         -0.6392   -4.9719    0.9283 C.3       1 <0>        -0.1489
      2 C2         -1.8703   -4.3456    0.2702 C.3       1 <0>        -0.0814
      3 C3         -1.8996   -2.8677    0.5633 C.2       1 <0>        -0.1537
      4 C4         -1.3847   -2.0100   -0.3182 C.2       1 <0>        -0.0363
      5 C5         -1.4333   -0.5336    0.0129 C.3       1 <0>        -0.0923
      6 H1         -1.9765   -0.0308   -0.7872 H         1 <0>         0.1380
      7 C6         -2.0656   -0.1298    1.3263 C.2       1 <0>         0.5365
      8 O1         -2.1328    1.0381    1.6443 O.2       1 <0>        -0.4614
      9 N1         -2.5531   -1.0890    2.1367 N.am      1 <0>        -0.6748
     10 C7         -2.4943   -2.3883    1.8135 C.2       1 <0>         0.5589
     11 O2         -2.9531   -3.2032    2.5903 O.2       1 <0>        -0.4937
     12 C8          0.0021   -0.0041    0.0020 C.3       1 <0>         0.0750
     13 O3         -0.0173    1.4248    0.0099 O.3       1 <0>        -0.3722
     14 C9          1.2801    2.0237    0.0007 C.3       1 <0>         0.0578
     15 C10         1.1386    3.5471    0.0102 C.3       1 <0>        -0.1517
     16 C11        -0.7724   -2.4961   -1.6065 C.3       1 <0>        -0.0498
     17 C12        -1.8025   -2.4398   -2.7050 C.ar      1 <0>        -0.0863
     18 C13        -2.6102   -3.5341   -2.9518 C.ar      1 <0>        -0.1142
     19 C14        -3.5581   -3.4810   -3.9566 C.ar      1 <0>        -0.1160
     20 C15        -3.6921   -2.3367   -4.7205 C.ar      1 <0>        -0.1174
     21 C16        -2.8808   -1.2442   -4.4771 C.ar      1 <0>        -0.1159
     22 C17        -1.9359   -1.2959   -3.4695 C.ar      1 <0>        -0.1141
     23 H2         -0.6181   -6.0408    0.7162 H         1 <0>         0.0647
     24 H3          0.2621   -4.5048    0.5313 H         1 <0>         0.0554
     25 H4         -0.6846   -4.8161    2.0061 H         1 <0>         0.0598
     26 H5         -2.7717   -4.8127    0.6671 H         1 <0>         0.0855
     27 H6         -1.8250   -4.5014   -0.8077 H         1 <0>         0.0851
     28 H7         -2.9586   -0.8316    2.9795 H         1 <0>         0.4170
     29 H8          0.5123   -0.3556   -0.8948 H         1 <0>         0.0717
     30 H9          0.5293   -0.3651    0.8851 H         1 <0>         0.0570
     31 H10         1.8338    1.7047    0.8837 H         1 <0>         0.0485
     32 H11         1.8168    1.7143   -0.8961 H         1 <0>         0.0499
     33 H12         0.5849    3.8661   -0.8728 H         1 <0>         0.0637
     34 H13         0.6019    3.8566    0.9071 H         1 <0>         0.0651
     35 H14         2.1282    4.0040    0.0032 H         1 <0>         0.0719
     36 H15         0.0737   -1.8610   -1.8690 H         1 <0>         0.0949
     37 H16        -0.4305   -3.5235   -1.4813 H         1 <0>         0.1025
     38 H17        -2.5030   -4.4295   -2.3574 H         1 <0>         0.1262
     39 H18        -4.1922   -4.3344   -4.1465 H         1 <0>         0.1244
     40 H19        -4.4309   -2.2961   -5.5073 H         1 <0>         0.1231
     41 H20        -2.9855   -0.3502   -5.0740 H         1 <0>         0.1242
     42 H21        -1.3021   -0.4423   -3.2794 H         1 <0>         0.1234
@<TRIPOS>BOND
     1    1    2 1
     2    1   23 1
     3    1   24 1
     4    1   25 1
     5    2    3 1
     6    2   26 1
     7    2   27 1
     8    3   10 1
     9    3    4 2
    10    4    5 1
    11    4   16 1
    12    5    6 1
    13    5    7 1
    14    5   12 1
    15    7    8 2
    16    7    9 am
    17    9   10 am
    18    9   28 1
    19   10   11 2
    20   12   13 1
    21   12   29 1
    22   12   30 1
    23   13   14 1
    24   14   15 1
    25   14   31 1
    26   14   32 1
    27   15   33 1
    28   15   34 1
    29   15   35 1
    30   16   17 1
    31   16   36 1
    32   16   37 1
    33   17   22 ar
    34   17   18 ar
    35   18   19 ar
    36   18   38 1
    37   19   20 ar
    38   19   39 1
    39   20   21 ar
    40   20   40 1
    41   21   22 ar
    42   21   41 1
    43   22   42 1
@<TRIPOS>MOLECULE
ZINC03833868
   42    43     0     0     0
SMALL
USER_CHARGES

@<TRIPOS>ATOM
      1 C1         -3.0421    1.0058    1.2155 C.3       1 <0>        -0.1592
      2 C2         -2.6470    1.4802   -0.1844 C.3       1 <0>        -0.0763
      3 C3         -1.2245    1.9773   -0.1635 C.2       1 <0>        -0.1532
      4 C4         -0.2374    1.1686   -0.5503 C.2       1 <0>        -0.0382
      5 C5          1.1771    1.7070   -0.5204 C.3       1 <0>        -0.0919
      6 H1          1.7682    1.0557    0.1235 H         1 <0>         0.1359
      7 C6          1.3763    3.1295   -0.0464 C.2       1 <0>         0.5362
      8 O1          2.4867    3.6139   -0.0010 O.2       1 <0>        -0.4584
      9 N1          0.2999    3.8492    0.3248 N.am      1 <0>        -0.6751
     10 C7         -0.9401    3.3421    0.2868 C.2       1 <0>         0.5589
     11 O2         -1.8681    4.0456    0.6358 O.2       1 <0>        -0.4940
     12 C8          1.7482    1.6009   -1.9358 C.3       1 <0>         0.0737
     13 O3          3.1245    1.9852   -1.9242 O.3       1 <0>        -0.3704
     14 C9          3.7567    1.9215   -3.2042 C.3       1 <0>         0.0575
     15 C10         5.2189    2.3521   -3.0728 C.3       1 <0>        -0.1513
     16 C11        -0.5223   -0.2381   -1.0097 C.3       1 <0>        -0.0507
     17 C12        -0.3253   -1.1917    0.1404 C.ar      1 <0>        -0.0854
     18 C13         0.9456   -1.6249    0.4691 C.ar      1 <0>        -0.1153
     19 C14         1.1269   -2.4959    1.5272 C.ar      1 <0>        -0.1164
     20 C15         0.0362   -2.9416    2.2501 C.ar      1 <0>        -0.1170
     21 C16        -1.2353   -2.5129    1.9178 C.ar      1 <0>        -0.1174
     22 C17        -1.4160   -1.6378    0.8631 C.ar      1 <0>        -0.1125
     23 H2         -3.0917    1.8617    1.8887 H         1 <0>         0.0600
     24 H3         -4.0170    0.5201    1.1729 H         1 <0>         0.0635
     25 H4         -2.2991    0.2976    1.5823 H         1 <0>         0.0654
     26 H5         -3.3097    2.2881   -0.4947 H         1 <0>         0.0838
     27 H6         -2.7318    0.6508   -0.8865 H         1 <0>         0.0839
     28 H7          0.4260    4.7616    0.6290 H         1 <0>         0.4167
     29 H8          1.6611    0.5726   -2.2867 H         1 <0>         0.0714
     30 H9          1.1924    2.2605   -2.6023 H         1 <0>         0.0577
     31 H10         3.7112    0.8998   -3.5813 H         1 <0>         0.0499
     32 H11         3.2425    2.5877   -3.8969 H         1 <0>         0.0483
     33 H12         5.7011    2.3034   -4.0491 H         1 <0>         0.0716
     34 H13         5.2644    3.3737   -2.6957 H         1 <0>         0.0648
     35 H14         5.7331    1.6858   -2.3801 H         1 <0>         0.0638
     36 H15        -1.5512   -0.3033   -1.3636 H         1 <0>         0.1034
     37 H16         0.1580   -0.5004   -1.8199 H         1 <0>         0.0944
     38 H17         1.7974   -1.2799   -0.0983 H         1 <0>         0.1221
     39 H18         2.1202   -2.8312    1.7866 H         1 <0>         0.1238
     40 H19         0.1774   -3.6250    3.0744 H         1 <0>         0.1228
     41 H20        -2.0875   -2.8613    2.4824 H         1 <0>         0.1241
     42 H21        -2.4094   -1.3028    0.6035 H         1 <0>         0.1291
@<TRIPOS>BOND
     1    1    2 1
     2    1   23 1
     3    1   24 1
     4    1   25 1
     5    2    3 1
     6    2   26 1
     7    2   27 1
     8    3   10 1
     9    3    4 2
    10    4    5 1
    11    4   16 1
    12    5    6 1
    13    5    7 1
    14    5   12 1
    15    7    8 2
    16    7    9 am
    17    9   10 am
    18    9   28 1
    19   10   11 2
    20   12   13 1
    21   12   29 1
    22   12   30 1
    23   13   14 1
    24   14   15 1
    25   14   31 1
    26   14   32 1
    27   15   33 1
    28   15   34 1
    29   15   35 1
    30   16   17 1
    31   16   36 1
    32   16   37 1
    33   17   22 ar
    34   17   18 ar
    35   18   19 ar
    36   18   38 1
    37   19   20 ar
    38   19   39 1
    39   20   21 ar
    40   20   40 1
    41   21   22 ar
    42   21   41 1
    43   22   42 1
@<TRIPOS>MOLECULE
ZINC03833869
   51    52     0     0     0
SMALL
USER_CHARGES

@<TRIPOS>ATOM
      1 C1         -2.4457   -3.6569   -0.2661 C.3       1 <0>        -0.1190
      2 C2         -2.3204   -3.2844    1.1888 C.ar      1 <0>        -0.0727
      3 C3         -2.2723   -4.2731    2.1537 C.ar      1 <0>        -0.1158
      4 C4         -2.1578   -3.9315    3.4883 C.ar      1 <0>        -0.0737
      5 C5         -2.0906   -2.6012    3.8579 C.ar      1 <0>        -0.1276
      6 C6         -2.1374   -1.6125    2.8929 C.ar      1 <0>        -0.0825
      7 C7         -2.2571   -1.9540    1.5587 C.ar      1 <0>        -0.1140
      8 C8         -2.0641   -0.1622    3.2958 C.3       1 <0>        -0.0581
      9 C9         -0.6252    0.2859    3.2998 C.2       1 <0>         0.1960
     10 C10        -0.0672    0.7851    2.1762 C.2       1 <0>        -0.2423
     11 C11         1.2846    1.2049    2.2063 C.2       1 <0>         0.5595
     12 O1          1.8083    1.6627    1.2067 O.2       1 <0>        -0.5041
     13 N1          1.9868    1.0927    3.3519 N.am      1 <0>        -0.6644
     14 H1          2.9421    1.3870    3.3813 H         1 <0>         0.4376
     15 C12         1.4072    0.5862    4.4560 C.2       1 <0>         0.7031
     16 O2          2.0529    0.4907    5.4818 O.2       1 <0>        -0.5251
     17 N2          0.1235    0.1837    4.4405 N.am      1 <0>        -0.5407
     18 C13        -0.4802   -0.3635    5.6581 C.3       1 <0>         0.2669
     19 O3         -0.7445    0.6981    6.5773 O.3       1 <0>        -0.3593
     20 C14        -1.9374    1.4311    6.2913 C.3       1 <0>         0.0461
     21 C15        -2.1191    2.5364    7.3335 C.3       1 <0>         0.0783
     22 O4         -1.0557    3.4834    7.2139 O.3       1 <0>        -0.5654
     23 C16        -0.8742    0.8996    0.9086 C.3       1 <0>        -0.0233
     24 C17        -0.1848    0.1128   -0.2078 C.3       1 <0>        -0.1533
     25 C18        -0.9820    2.3712    0.5039 C.3       1 <0>        -0.1515
     26 C19        -2.1059   -5.0094    4.5402 C.3       1 <0>        -0.1185
     27 H2         -3.4999   -3.7177   -0.5361 H         1 <0>         0.0736
     28 H3         -1.9569   -2.8991   -0.8785 H         1 <0>         0.0696
     29 H4         -1.9708   -4.6231   -0.4360 H         1 <0>         0.0682
     30 H5         -2.3244   -5.3125    1.8649 H         1 <0>         0.1242
     31 H6         -2.0012   -2.3343    4.9005 H         1 <0>         0.1192
     32 H7         -2.2981   -1.1814    0.8052 H         1 <0>         0.1312
     33 H8         -2.4852   -0.0407    4.2938 H         1 <0>         0.0916
     34 H9         -2.6306    0.4410    2.5864 H         1 <0>         0.1184
     35 H10        -1.4136   -0.8669    5.4062 H         1 <0>         0.0985
     36 H11         0.2058   -1.0771    6.1146 H         1 <0>         0.1324
     37 H12        -1.8613    1.8761    5.2992 H         1 <0>         0.0592
     38 H13        -2.7940    0.7577    6.3227 H         1 <0>         0.0714
     39 H14        -3.0727    3.0380    7.1687 H         1 <0>         0.0647
     40 H15        -2.1062    2.0997    8.3322 H         1 <0>         0.0584
     41 H16        -1.1067    4.2139    7.8454 H         1 <0>         0.3827
     42 H17        -1.8723    0.4947    1.0756 H         1 <0>         0.0829
     43 H18        -0.1080   -0.9356    0.0806 H         1 <0>         0.0527
     44 H19         0.8134    0.5177   -0.3747 H         1 <0>         0.0744
     45 H20        -0.7685    0.1956   -1.1246 H         1 <0>         0.0591
     46 H21        -1.5657    2.4540   -0.4129 H         1 <0>         0.0603
     47 H22        -1.4731    2.9318    1.2992 H         1 <0>         0.0506
     48 H23         0.0162    2.7761    0.3369 H         1 <0>         0.0708
     49 H24        -3.1174   -5.2399    4.8745 H         1 <0>         0.0736
     50 H25        -1.6490   -5.9054    4.1201 H         1 <0>         0.0690
     51 H26        -1.5136   -4.6624    5.3869 H         1 <0>         0.0673
@<TRIPOS>BOND
     1    1    2 1
     2    1   27 1
     3    1   28 1
     4    1   29 1
     5    2    7 ar
     6    2    3 ar
     7    3    4 ar
     8    3   30 1
     9    4    5 ar
    10    4   26 1
    11    5    6 ar
    12    5   31 1
    13    6    7 ar
    14    6    8 1
    15    7   32 1
    16    8    9 1
    17    8   33 1
    18    8   34 1
    19    9   17 1
    20    9   10 2
    21   10   11 1
    22   10   23 1
    23   11   12 2
    24   11   13 am
    25   13   14 1
    26   13   15 am
    27   15   16 2
    28   15   17 am
    29   17   18 1
    30   18   19 1
    31   18   35 1
    32   18   36 1
    33   19   20 1
    34   20   21 1
    35   20   37 1
    36   20   38 1
    37   21   22 1
    38   21   39 1
    39   21   40 1
    40   22   41 1
    41   23   24 1
    42   23   25 1
    43   23   42 1
    44   24   43 1
    45   24   44 1
    46   24   45 1
    47   25   46 1
    48   25   47 1
    49   25   48 1
    50   26   49 1
    51   26   50 1
    52   26   51 1
@<TRIPOS>MOLECULE
ZINC03833870
   30    31     0     0     0
SMALL
USER_CHARGES

@<TRIPOS>ATOM
      1 C1          8.4298    2.9563   -0.0628 C.ar      1 <0>        -0.0740
      2 C2          7.8485    2.5967    1.1386 C.ar      1 <0>        -0.1457
      3 C3          6.6591    1.8882    1.1475 C.ar      1 <0>         0.1206
      4 C4          6.0526    1.5402   -0.0475 C.ar      1 <0>        -0.1126
      5 C5          6.6384    1.8958   -1.2486 C.ar      1 <0>        -0.0038
      6 C6          7.8246    2.6085   -1.2556 C.ar      1 <0>        -0.1169
      7 Cl1         5.8825    1.4536   -2.7476 Cl        1 <0>        -0.0487
      8 C7          4.7579    0.7690   -0.0392 C.3       1 <0>        -0.0989
      9 C8          3.5816    1.7473   -0.0228 C.3       1 <0>         0.1318
     10 N1          2.3230    0.9976   -0.0148 N.pl3     1 <0>        -0.6772
     11 C9          1.1468    1.6555   -0.0000 C.2       1 <0>         0.5258
     12 S1          1.1236    3.3673    0.0094 S.2       1 <0>        -0.5044
     13 N2         -0.0111    0.9658    0.0074 N.pl3     1 <0>        -0.5813
     14 C10        -1.2236    1.6441    0.0168 C.2       1 <0>         0.2874
     15 N3         -1.4459    2.9441    0.0308 N.2       1 <0>        -0.4474
     16 C11        -2.6731    3.4273    0.0347 C.2       1 <0>         0.0460
     17 C12        -3.7106    2.5554    0.0347 C.2       1 <0>        -0.2157
     18 S2         -2.8353    0.9977    0.0209 S.3       1 <0>         0.0452
     19 F1          6.0904    1.5370    2.3216 F         1 <0>        -0.1277
     20 H1          9.3576    3.5090   -0.0694 H         1 <0>         0.1463
     21 H2          8.3220    2.8688    2.0704 H         1 <0>         0.1455
     22 H3          8.2798    2.8896   -2.1938 H         1 <0>         0.1439
     23 H4          4.7171    0.1368    0.8478 H         1 <0>         0.0899
     24 H5          4.7001    0.1464   -0.9321 H         1 <0>         0.0934
     25 H6          3.6224    2.3795   -0.9098 H         1 <0>         0.0950
     26 H7          3.6393    2.3699    0.8701 H         1 <0>         0.0927
     27 H8          2.3361    0.0277   -0.0201 H         1 <0>         0.3980
     28 H9          0.0021   -0.0041    0.0020 H         1 <0>         0.4171
     29 H10        -2.8472    4.4931    0.0424 H         1 <0>         0.1753
     30 H11        -4.7732    2.7488    0.0411 H         1 <0>         0.2008
@<TRIPOS>BOND
     1    1    6 ar
     2    1    2 ar
     3    1   20 1
     4    2    3 ar
     5    2   21 1
     6    3    4 ar
     7    3   19 1
     8    4    5 ar
     9    4    8 1
    10    5    6 ar
    11    5    7 1
    12    6   22 1
    13    8    9 1
    14    8   23 1
    15    8   24 1
    16    9   10 1
    17    9   25 1
    18    9   26 1
    19   10   11 1
    20   10   27 1
    21   11   12 2
    22   11   13 1
    23   13   14 1
    24   13   28 1
    25   14   18 1
    26   14   15 2
    27   15   16 1
    28   16   17 2
    29   16   29 1
    30   17   18 1
    31   17   30 1
@<TRIPOS>MOLECULE
ZINC04617885
   44    46     0     0     0
SMALL
USER_CHARGES

@<TRIPOS>ATOM
      1 C1         -4.4795    2.8010    1.0829 C.3       1 <0>        -0.0844
      2 C2         -3.9452    1.6751    1.9302 C.2       1 <0>        -0.2873
      3 C3         -3.1783    0.6930    1.3757 C.2       1 <0>         0.2198
      4 N1         -2.7068   -0.2946    2.1352 N.2       1 <0>        -0.5769
      5 C4         -2.9681   -0.3530    3.4231 C.2       1 <0>         0.5756
      6 N2         -3.7307    0.5928    4.0301 N.am      1 <0>        -0.6253
      7 H1         -3.9192    0.5320    5.0103 H         1 <0>         0.4267
      8 C5         -4.2336    1.6155    3.3060 C.2       1 <0>         0.5462
      9 O1         -4.9209    2.4734    3.8352 O.2       1 <0>        -0.5270
     10 O2         -2.4699   -1.3711    4.1541 O.3       1 <0>        -0.3070
     11 C6         -1.6622   -2.3528    3.4526 C.3       1 <0>         0.1062
     12 C7         -2.5622   -3.4747    2.9308 C.3       1 <0>        -0.1356
     13 C8         -1.7111   -4.5092    2.1917 C.3       1 <0>        -0.1138
     14 C9         -0.6718   -5.0935    3.1504 C.3       1 <0>        -0.1264
     15 C10         0.2282   -3.9716    3.6722 C.3       1 <0>        -0.1145
     16 C11        -0.6228   -2.9371    4.4114 C.3       1 <0>        -0.1198
     17 C12        -2.8590    0.7284   -0.0967 C.3       1 <0>        -0.0369
     18 C13        -3.7924   -0.1956   -0.8355 C.ar      1 <0>        -0.0803
     19 C14        -4.9410    0.3047   -1.4198 C.ar      1 <0>        -0.1115
     20 C15        -5.7944   -0.5419   -2.1024 C.ar      1 <0>        -0.1205
     21 C16        -5.5021   -1.8898   -2.1958 C.ar      1 <0>        -0.1193
     22 C17        -4.3560   -2.3909   -1.6073 C.ar      1 <0>        -0.1216
     23 C18        -3.5022   -1.5442   -0.9255 C.ar      1 <0>        -0.1012
     24 H2         -5.4093    2.4884    0.6077 H         1 <0>         0.0671
     25 H3         -4.6675    3.6713    1.7117 H         1 <0>         0.0727
     26 H4         -3.7482    3.0576    0.3165 H         1 <0>         0.0702
     27 H5         -1.1552   -1.8744    2.6147 H         1 <0>         0.1045
     28 H6         -3.0693   -3.9532    3.7687 H         1 <0>         0.0709
     29 H7         -3.3027   -3.0585    2.2478 H         1 <0>         0.0735
     30 H8         -1.2041   -4.0307    1.3538 H         1 <0>         0.0681
     31 H9         -2.3523   -5.3084    1.8199 H         1 <0>         0.0706
     32 H10        -0.0655   -5.8305    2.6238 H         1 <0>         0.0686
     33 H11        -1.1788   -5.5719    3.9883 H         1 <0>         0.0654
     34 H12         0.7353   -3.4931    2.8343 H         1 <0>         0.0682
     35 H13         0.9687   -4.3878    4.3553 H         1 <0>         0.0745
     36 H14         0.0184   -2.1379    4.7832 H         1 <0>         0.0738
     37 H15        -1.1299   -3.4156    5.2493 H         1 <0>         0.0758
     38 H16        -1.8295    0.4060   -0.2530 H         1 <0>         0.0972
     39 H17        -2.9822    1.7447   -0.4709 H         1 <0>         0.1011
     40 H18        -5.1693    1.3577   -1.3468 H         1 <0>         0.1235
     41 H19        -6.6896   -0.1504   -2.5624 H         1 <0>         0.1224
     42 H20        -6.1690   -2.5513   -2.7287 H         1 <0>         0.1208
     43 H21        -4.1275   -3.4439   -1.6806 H         1 <0>         0.1213
     44 H22        -2.6066   -1.9356   -0.4661 H         1 <0>         0.1245
@<TRIPOS>BOND
     1    1    2 1
     2    1   24 1
     3    1   25 1
     4    1   26 1
     5    2    8 1
     6    2    3 2
     7    3    4 1
     8    3   17 1
     9    4    5 2
    10    5    6 1
    11    5   10 1
    12    6    7 1
    13    6    8 am
    14    8    9 2
    15   10   11 1
    16   11   16 1
    17   11   12 1
    18   11   27 1
    19   12   13 1
    20   12   28 1
    21   12   29 1
    22   13   14 1
    23   13   30 1
    24   13   31 1
    25   14   15 1
    26   14   32 1
    27   14   33 1
    28   15   16 1
    29   15   34 1
    30   15   35 1
    31   16   36 1
    32   16   37 1
    33   17   18 1
    34   17   38 1
    35   17   39 1
    36   18   23 ar
    37   18   19 ar
    38   19   20 ar
    39   19   40 1
    40   20   21 ar
    41   20   41 1
    42   21   22 ar
    43   21   42 1
    44   22   23 ar
    45   22   43 1
    46   23   44 1
@<TRIPOS>MOLECULE
ZINC04617885
   44    46     0     0     0
SMALL
USER_CHARGES

@<TRIPOS>ATOM
      1 C1         -4.4783    2.8018    1.0832 C.3       1 <0>        -0.0927
      2 C2         -3.9444    1.6756    1.9304 C.2       1 <0>        -0.2337
      3 C3         -3.1775    0.6935    1.3759 C.2       1 <0>         0.1495
      4 N1         -2.7019   -0.2914    2.1363 N.pl3     1 <0>        -0.6037
      5 C4         -2.9590   -0.3471    3.4252 C.2       1 <0>         0.5753
      6 N2         -3.7214    0.5989    4.0322 N.2       1 <0>        -0.5737
      7 H1         -2.1375   -1.0034    1.7186 H         1 <0>         0.4185
      8 C5         -4.2288    1.6186    3.3071 C.2       1 <0>         0.5210
      9 O1         -4.9159    2.4766    3.8364 O.2       1 <0>        -0.5096
     10 O2         -2.4563   -1.3622    4.1572 O.3       1 <0>        -0.2778
     11 C6         -1.6491   -2.3443    3.4555 C.3       1 <0>         0.0765
     12 C7         -2.5487   -3.4693    2.9398 C.3       1 <0>        -0.1474
     13 C8         -1.6982   -4.5041    2.2006 C.3       1 <0>        -0.1163
     14 C9         -0.6545   -5.0838    3.1573 C.3       1 <0>        -0.1277
     15 C10         0.2451   -3.9588    3.6730 C.3       1 <0>        -0.1169
     16 C11        -0.6053   -2.9240    4.4123 C.3       1 <0>        -0.1157
     17 C12        -2.8578    0.7292   -0.0964 C.3       1 <0>        -0.0500
     18 C13        -3.7912   -0.1945   -0.8357 C.ar      1 <0>        -0.0911
     19 C14        -4.9395    0.3061   -1.4202 C.ar      1 <0>        -0.1043
     20 C15        -5.7929   -0.5401   -2.1032 C.ar      1 <0>        -0.1131
     21 C16        -5.5008   -1.8881   -2.1969 C.ar      1 <0>        -0.1146
     22 C17        -4.3550   -2.3895   -1.6081 C.ar      1 <0>        -0.1148
     23 C18        -3.5012   -1.5431   -0.9259 C.ar      1 <0>        -0.1200
     24 H2         -5.4080    2.4895    0.6077 H         1 <0>         0.0725
     25 H3         -4.6663    3.6720    1.7121 H         1 <0>         0.0815
     26 H4         -3.7467    3.0584    0.3170 H         1 <0>         0.0684
     27 H5         -1.1460   -1.8671    2.6146 H         1 <0>         0.0726
     28 H6         -3.0520   -3.9465    3.7808 H         1 <0>         0.0894
     29 H7         -3.2924   -3.0564    2.2583 H         1 <0>         0.0690
     30 H8         -1.1950   -4.0269    1.3597 H         1 <0>         0.0652
     31 H9         -2.3391   -5.3056    1.8332 H         1 <0>         0.0770
     32 H10        -0.0485   -5.8211    2.6306 H         1 <0>         0.0717
     33 H11        -1.1576   -5.5610    3.9982 H         1 <0>         0.0699
     34 H12         0.7484   -3.4816    2.8320 H         1 <0>         0.0666
     35 H13         0.9888   -4.3717    4.3546 H         1 <0>         0.0797
     36 H14         0.0356   -2.1225    4.7798 H         1 <0>         0.0804
     37 H15        -1.1086   -3.4012    5.2532 H         1 <0>         0.0863
     38 H16        -1.8283    0.4066   -0.2525 H         1 <0>         0.0948
     39 H17        -2.9807    1.7456   -0.4704 H         1 <0>         0.1180
     40 H18        -5.1677    1.3592   -1.3470 H         1 <0>         0.1279
     41 H19        -6.6879   -0.1484   -2.5634 H         1 <0>         0.1270
     42 H20        -6.1677   -2.5493   -2.7301 H         1 <0>         0.1251
     43 H21        -4.1266   -3.4425   -1.6816 H         1 <0>         0.1247
     44 H22        -2.6058   -1.9348   -0.4664 H         1 <0>         0.1149
@<TRIPOS>BOND
     1    1    2 1
     2    1   24 1
     3    1   25 1
     4    1   26 1
     5    2    8 1
     6    2    3 2
     7    3   17 1
     8    3    4 1
     9    4    7 1
    10    4    5 1
    11    5   10 1
    12    5    6 2
    13    6    8 1
    14    8    9 2
    15   10   11 1
    16   11   16 1
    17   11   12 1
    18   11   27 1
    19   12   13 1
    20   12   28 1
    21   12   29 1
    22   13   14 1
    23   13   30 1
    24   13   31 1
    25   14   15 1
    26   14   32 1
    27   14   33 1
    28   15   16 1
    29   15   34 1
    30   15   35 1
    31   16   36 1
    32   16   37 1
    33   17   18 1
    34   17   38 1
    35   17   39 1
    36   18   23 ar
    37   18   19 ar
    38   19   20 ar
    39   19   40 1
    40   20   21 ar
    41   20   41 1
    42   21   22 ar
    43   21   42 1
    44   22   23 ar
    45   22   43 1
    46   23   44 1
@<TRIPOS>MOLECULE
ZINC04628816
   42    44     0     0     0
SMALL
USER_CHARGES

@<TRIPOS>ATOM
      1 C1         -2.7600   -1.3595    1.6289 C.3       1 <0>        -0.1855
      2 C2         -1.9741   -0.1661    1.0820 C.3       1 <0>         0.0118
      3 H1         -1.2372    0.1373    1.8257 H         1 <0>         0.1381
      4 C3         -1.2351   -0.6039   -0.1907 C.3       1 <0>         0.1236
      5 N1         -0.0617    0.2757   -0.3391 N.pl3     1 <0>        -0.4896
      6 C4         -0.0806    1.6314   -0.0495 C.ar      1 <0>         0.0725
      7 C5         -1.1594    2.4906    0.1401 C.ar      1 <0>        -0.1185
      8 C6         -0.9236    3.7926    0.5002 C.ar      1 <0>        -0.0485
      9 C7          0.3868    4.2494    0.5891 C.ar      1 <0>        -0.0227
     10 C8          1.4557    3.4187    0.2995 C.ar      1 <0>        -0.0528
     11 C9          1.2270    2.0956   -0.0467 C.ar      1 <0>         0.1081
     12 N2          2.0117    1.0100   -0.4237 N.pl3     1 <0>        -0.5724
     13 H2          2.9779    1.0122   -0.5084 H         1 <0>         0.4569
     14 C10         1.2006   -0.0506   -0.6522 C.2       1 <0>         0.5005
     15 S1          1.7090   -1.5730   -1.2478 S.2       1 <0>        -0.5163
     16 Cl1         0.6876    5.8895    1.0721 Cl        1 <0>        -0.0180
     17 C11        -2.5258    1.9225   -0.1495 C.3       1 <0>         0.0531
     18 C12        -4.2654    0.4508    0.6349 C.3       1 <0>         0.0114
     19 C13        -5.2407    1.5891    0.7907 C.2       1 <0>        -0.2671
     20 C14        -6.0780    1.8712   -0.1764 C.2       1 <0>        -0.0310
     21 C15        -6.0660    1.0574   -1.4448 C.3       1 <0>        -0.1509
     22 C16        -7.0533    3.0094   -0.0207 C.3       1 <0>        -0.1403
     23 H3         -3.4476   -1.7226    0.8651 H         1 <0>         0.0945
     24 H4         -2.0677   -2.1557    1.9027 H         1 <0>         0.1125
     25 H5         -3.3245   -1.0504    2.5087 H         1 <0>         0.0939
     26 H6         -1.8902   -0.4975   -1.0553 H         1 <0>         0.1142
     27 H7         -0.9120   -1.6404   -0.0941 H         1 <0>         0.1601
     28 H8         -1.7480    4.4570    0.7132 H         1 <0>         0.1630
     29 H9          2.4651    3.8002    0.3427 H         1 <0>         0.1622
     30 H10        -3.2572    2.7307   -0.1530 H         1 <0>         0.1471
     31 H11        -2.5154    1.4434   -1.1285 H         1 <0>         0.1407
     32 H12        -4.3434    0.0408   -0.3720 H         1 <0>         0.1376
     33 H13        -4.4957   -0.3271    1.3629 H         1 <0>         0.1477
     34 H14        -5.2493    2.1722    1.6997 H         1 <0>         0.1363
     35 H15        -6.2774    0.0144   -1.2093 H         1 <0>         0.0828
     36 H16        -6.8264    1.4372   -2.1273 H         1 <0>         0.0829
     37 H17        -5.0856    1.1322   -1.9152 H         1 <0>         0.0746
     38 H18        -6.6003    3.9292   -0.3906 H         1 <0>         0.0858
     39 H19        -7.9569    2.7944   -0.5912 H         1 <0>         0.0799
     40 H20        -7.3082    3.1280    1.0325 H         1 <0>         0.0764
     41 N3         -2.9292    0.9687    0.9237 N.4       1 <0>        -0.3894
     42 H21        -2.9605    1.4832    1.8116 H         1 <0>         0.4343
@<TRIPOS>BOND
     1    1    2 1
     2    1   23 1
     3    1   24 1
     4    1   25 1
     5    2    3 1
     6    2    4 1
     7    2   41 1
     8    4    5 1
     9    4   26 1
    10    4   27 1
    11    5   14 1
    12    5    6 1
    13    6   11 ar
    14    6    7 ar
    15    7    8 ar
    16    7   17 1
    17    8    9 ar
    18    8   28 1
    19    9   10 ar
    20    9   16 1
    21   10   11 ar
    22   10   29 1
    23   11   12 1
    24   12   13 1
    25   12   14 1
    26   14   15 2
    27   17   30 1
    28   17   31 1
    29   17   41 1
    30   18   19 1
    31   18   32 1
    32   18   33 1
    33   18   41 1
    34   19   20 2
    35   19   34 1
    36   20   21 1
    37   20   22 1
    38   21   35 1
    39   21   36 1
    40   21   37 1
    41   22   38 1
    42   22   39 1
    43   22   40 1
    44   41   42 1
@<TRIPOS>MOLECULE
ZINC04641371
   61    64     0     0     0
SMALL
USER_CHARGES

@<TRIPOS>ATOM
      1 C1         -0.0528    1.1452    2.0117 C.3       1 <0>        -0.1764
      2 C2         -1.2447    1.7537    1.2701 C.3       1 <0>         0.1318
      3 C3         -2.2433    2.3156    2.2839 C.3       1 <0>        -0.1660
      4 N1         -0.7770    2.8323    0.3959 N.pl3     1 <0>        -0.6913
      5 C4         -0.3011    2.5368   -0.8872 C.ar      1 <0>         0.2521
      6 C5         -0.1584    1.2187   -1.3001 C.ar      1 <0>        -0.0724
      7 C6          0.3221    0.9750   -2.5797 C.ar      1 <0>        -0.0758
      8 C7          0.6307    2.0399   -3.4014 C.ar      1 <0>         0.0925
      9 C8          0.0316    3.5637   -1.7743 C.ar      1 <0>         0.2338
     10 N2         -0.1104    4.8916   -1.3788 N.pl3     1 <0>        -0.4957
     11 C9         -1.1256    5.5768   -2.1898 C.3       1 <0>         0.0356
     12 C10        -1.3813    6.9721   -1.6102 C.3       1 <0>         0.1184
     13 N3         -0.0943    7.6755   -1.5005 N.am      1 <0>        -0.6206
     14 C11         1.0160    6.9928   -0.8190 C.3       1 <0>         0.0865
     15 C12         1.1773    5.5967   -1.4298 C.3       1 <0>         0.0350
     16 C13         0.0633    8.9130   -2.0106 C.2       1 <0>         0.5909
     17 O1         -0.8693    9.4676   -2.5605 O.2       1 <0>        -0.5016
     18 C14         1.3628    9.5929   -1.9023 C.2       1 <0>         0.0049
     19 C15         1.8190   10.5584   -2.7426 C.2       1 <0>        -0.0914
     20 C16         3.1031   10.9505   -2.2930 C.ar      1 <0>        -0.1039
     21 C17         4.0367   11.8890   -2.7530 C.ar      1 <0>        -0.0712
     22 C18         5.2356   12.0424   -2.0868 C.ar      1 <0>         0.1177
     23 C19         5.5198   11.2688   -0.9609 C.ar      1 <0>        -0.1110
     24 C20         4.6116   10.3442   -0.4994 C.ar      1 <0>        -0.1106
     25 C21         3.3961   10.1731   -1.1562 C.ar      1 <0>         0.1065
     26 N4          2.3164    9.3476   -0.9339 N.pl3     1 <0>        -0.5859
     27 H1          2.2384    8.7006   -0.2154 H         1 <0>         0.4200
     28 N5          6.1710   12.9781   -2.5431 N.pl3     1 <0>        -1.0566
     29 S1          7.7708   12.5643   -2.6517 S.o2      1 <0>         2.6096
     30 O2          8.4187   13.7401   -3.1175 O.2       1 <0>        -0.9463
     31 O3          8.0907   12.0162   -1.3803 O.2       1 <0>        -0.9489
     32 C22         7.8327   11.2716   -3.9228 C.3       1 <0>        -0.6691
     33 H2          0.4329    1.9146    2.6120 H         1 <0>         0.0679
     34 H3         -0.4007    0.3427    2.6621 H         1 <0>         0.0811
     35 H4          0.6587    0.7449    1.2895 H         1 <0>         0.0592
     36 H5         -1.7304    0.9843    0.6699 H         1 <0>         0.0905
     37 H6         -3.0925    2.7491    1.7556 H         1 <0>         0.0680
     38 H7         -2.5913    1.5131    2.9343 H         1 <0>         0.0861
     39 H8         -1.7577    3.0850    2.8842 H         1 <0>         0.0683
     40 H9         -0.7971    3.7511    0.7061 H         1 <0>         0.4222
     41 H10        -0.4111    0.4023   -0.6398 H         1 <0>         0.1754
     42 H11         0.4490   -0.0386   -2.9303 H         1 <0>         0.1895
     43 H12         1.0000    1.8526   -4.3988 H         1 <0>         0.1941
     44 H13        -0.7700    5.6689   -3.2160 H         1 <0>         0.0551
     45 H14        -2.0515    5.0017   -2.1755 H         1 <0>         0.1081
     46 H15        -1.8342    6.8811   -0.6229 H         1 <0>         0.0893
     47 H16        -2.0479    7.5289   -2.2688 H         1 <0>         0.1157
     48 H17         0.7936    6.9038    0.2444 H         1 <0>         0.0936
     49 H18         1.9367    7.5603   -0.9542 H         1 <0>         0.1135
     50 H19         1.9216    5.0361   -0.8643 H         1 <0>         0.1076
     51 H20         1.5009    5.6885   -2.4666 H         1 <0>         0.0553
     52 H21         1.2952   10.9566   -3.5990 H         1 <0>         0.1587
     53 H22         3.8190   12.4892   -3.6240 H         1 <0>         0.1370
     54 H23         6.4609   11.3972   -0.4469 H         1 <0>         0.1696
     55 H24         4.8417    9.7510    0.3732 H         1 <0>         0.1332
     56 H25         5.8823   13.8690   -2.7957 H         1 <0>         0.4288
     57 H26         7.4543   11.6695   -4.8644 H         1 <0>         0.1315
     58 H27         8.8630   10.9417   -4.0557 H         1 <0>         0.1340
     59 H28         7.2179   10.4268   -3.6121 H         1 <0>         0.1275
     60 N6          0.4991    3.3443   -3.0358 N.ar      1 <0>        -0.4672
     61 H29         0.7373    4.1152   -3.6708 H         1 <0>         0.4658
@<TRIPOS>BOND
     1    1    2 1
     2    1   33 1
     3    1   34 1
     4    1   35 1
     5    2    3 1
     6    2    4 1
     7    2   36 1
     8    3   37 1
     9    3   38 1
    10    3   39 1
    11    4    5 1
    12    4   40 1
    13    5    9 ar
    14    5    6 ar
    15    6    7 ar
    16    6   41 1
    17    7    8 ar
    18    7   42 1
    19    8   43 1
    20    8   60 ar
    21    9   10 1
    22    9   60 ar
    23   10   15 1
    24   10   11 1
    25   11   12 1
    26   11   44 1
    27   11   45 1
    28   12   13 1
    29   12   46 1
    30   12   47 1
    31   13   14 1
    32   13   16 am
    33   14   15 1
    34   14   48 1
    35   14   49 1
    36   15   50 1
    37   15   51 1
    38   16   17 2
    39   16   18 1
    40   18   26 1
    41   18   19 2
    42   19   20 1
    43   19   52 1
    44   20   25 ar
    45   20   21 ar
    46   21   22 ar
    47   21   53 1
    48   22   23 ar
    49   22   28 1
    50   23   24 ar
    51   23   54 1
    52   24   25 ar
    53   24   55 1
    54   25   26 1
    55   26   27 1
    56   28   29 1
    57   28   56 1
    58   29   30 2
    59   29   31 2
    60   29   32 1
    61   32   57 1
    62   32   58 1
    63   32   59 1
    64   60   61 1
