@<TRIPOS>MOLECULE
ZINC00239698
   38    40     0     0     0
SMALL
USER_CHARGES

@<TRIPOS>ATOM
      1 C1         -0.3739    0.3119    6.1705 C.3       1 <0>        -0.0754
      2 C2         -0.1488    0.4545    4.6873 C.2       1 <0>         0.0908
      3 C3         -0.0550   -0.5651    3.7882 C.2       1 <0>        -0.1843
      4 C4          0.1564    0.0116    2.5104 C.2       1 <0>         0.1497
      5 N1          0.1906    1.3181    2.6591 N.pl3     1 <0>        -0.4202
      6 N2         -0.0043    1.6145    4.0133 N.2       1 <0>        -0.3150
      7 H1          0.3318    1.9863    1.9286 H         1 <0>         0.4440
      8 C5          0.3173   -0.7266    1.2350 C.ar      1 <0>        -0.0767
      9 C6          1.1807   -1.8182    1.1634 C.ar      1 <0>        -0.0476
     10 C7          1.3281   -2.5035   -0.0242 C.ar      1 <0>        -0.1497
     11 C8          0.6185   -2.1087   -1.1511 C.ar      1 <0>         0.1376
     12 C9         -0.2474   -1.0272   -1.0866 C.ar      1 <0>        -0.1716
     13 C10        -0.3973   -0.3299    0.1000 C.ar      1 <0>         0.1370
     14 O1         -1.2405    0.7335    0.1633 O.3       1 <0>        -0.4894
     15 O2          0.7685   -2.7878   -2.3184 O.3       1 <0>        -0.4959
     16 C11        -0.1556   -2.0142    4.0911 C.ar      1 <0>        -0.0394
     17 C12        -1.2357   -2.7540    3.6134 C.ar      1 <0>        -0.0621
     18 C13        -1.3235   -4.1022    3.8918 C.ar      1 <0>        -0.2059
     19 C14        -0.3434   -4.7196    4.6566 C.ar      1 <0>         0.1263
     20 C15         0.7306   -3.9842    5.1385 C.ar      1 <0>        -0.1498
     21 C16         0.8269   -2.6369    4.8586 C.ar      1 <0>        -0.0685
     22 O3         -0.4358   -6.0468    4.9344 O.3       1 <0>        -0.3181
     23 C17        -1.5669   -6.7429    4.4069 C.3       1 <0>         0.0270
     24 H2          0.5876    0.2384    6.6785 H         1 <0>         0.0791
     25 H3         -0.9152    1.1823    6.5411 H         1 <0>         0.0743
     26 H4         -0.9571   -0.5883    6.3645 H         1 <0>         0.0785
     27 H5          1.7343   -2.1271    2.0377 H         1 <0>         0.1389
     28 H6          1.9975   -3.3493   -0.0783 H         1 <0>         0.1389
     29 H7         -0.8014   -0.7262   -1.9635 H         1 <0>         0.1410
     30 H8         -0.8226    1.5798   -0.0471 H         1 <0>         0.3896
     31 H9          0.1499   -3.5229   -2.4280 H         1 <0>         0.3973
     32 H10        -2.0010   -2.2731    3.0222 H         1 <0>         0.1207
     33 H11        -2.1580   -4.6769    3.5183 H         1 <0>         0.1270
     34 H12         1.4918   -4.4675    5.7330 H         1 <0>         0.1315
     35 H13         1.6627   -2.0652    5.2342 H         1 <0>         0.1290
     36 H14        -1.5185   -7.7911    4.7018 H         1 <0>         0.1004
     37 H15        -2.4820   -6.2975    4.7974 H         1 <0>         0.0558
     38 H16        -1.5632   -6.6709    3.3193 H         1 <0>         0.0551
@<TRIPOS>BOND
     1    1    2 1
     2    1   24 1
     3    1   25 1
     4    1   26 1
     5    2    3 1
     6    2    6 2
     7    3   16 1
     8    3    4 2
     9    4    8 1
    10    4    5 1
    11    5    7 1
    12    5    6 1
    13    8   13 ar
    14    8    9 ar
    15    9   10 ar
    16    9   27 1
    17   10   11 ar
    18   10   28 1
    19   11   12 ar
    20   11   15 1
    21   12   13 ar
    22   12   29 1
    23   13   14 1
    24   14   30 1
    25   15   31 1
    26   16   21 ar
    27   16   17 ar
    28   17   18 ar
    29   17   32 1
    30   18   19 ar
    31   18   33 1
    32   19   20 ar
    33   19   22 1
    34   20   21 ar
    35   20   34 1
    36   21   35 1
    37   22   23 1
    38   23   36 1
    39   23   37 1
    40   23   38 1
@<TRIPOS>MOLECULE
ZINC00239698
   38    40     0     0     0
SMALL
USER_CHARGES

@<TRIPOS>ATOM
      1 C1         -0.3739    0.3119    6.1705 C.3       1 <0>        -0.0754
      2 C2         -0.1488    0.4545    4.6873 C.2       1 <0>         0.0908
      3 C3         -0.0550   -0.5651    3.7882 C.2       1 <0>        -0.1843
      4 C4          0.1564    0.0116    2.5104 C.2       1 <0>         0.1497
      5 N1          0.1906    1.3181    2.6591 N.pl3     1 <0>        -0.4202
      6 N2         -0.0043    1.6145    4.0133 N.2       1 <0>        -0.3150
      7 H1          0.3318    1.9863    1.9286 H         1 <0>         0.4440
      8 C5          0.3173   -0.7266    1.2350 C.ar      1 <0>        -0.0767
      9 C6          1.1807   -1.8182    1.1634 C.ar      1 <0>        -0.0476
     10 C7          1.3281   -2.5035   -0.0242 C.ar      1 <0>        -0.1497
     11 C8          0.6185   -2.1087   -1.1511 C.ar      1 <0>         0.1376
     12 C9         -0.2474   -1.0272   -1.0866 C.ar      1 <0>        -0.1716
     13 C10        -0.3973   -0.3299    0.1000 C.ar      1 <0>         0.1370
     14 O1         -1.2405    0.7335    0.1633 O.3       1 <0>        -0.4894
     15 O2          0.7685   -2.7878   -2.3184 O.3       1 <0>        -0.4959
     16 C11        -0.1556   -2.0142    4.0911 C.ar      1 <0>        -0.0394
     17 C12        -1.2357   -2.7540    3.6134 C.ar      1 <0>        -0.0621
     18 C13        -1.3235   -4.1022    3.8918 C.ar      1 <0>        -0.2059
     19 C14        -0.3434   -4.7196    4.6566 C.ar      1 <0>         0.1263
     20 C15         0.7306   -3.9842    5.1385 C.ar      1 <0>        -0.1498
     21 C16         0.8269   -2.6369    4.8586 C.ar      1 <0>        -0.0685
     22 O3         -0.4358   -6.0468    4.9344 O.3       1 <0>        -0.3181
     23 C17        -1.5669   -6.7429    4.4069 C.3       1 <0>         0.0270
     24 H2          0.5876    0.2384    6.6785 H         1 <0>         0.0791
     25 H3         -0.9152    1.1823    6.5411 H         1 <0>         0.0743
     26 H4         -0.9571   -0.5883    6.3645 H         1 <0>         0.0785
     27 H5          1.7343   -2.1271    2.0377 H         1 <0>         0.1389
     28 H6          1.9975   -3.3493   -0.0783 H         1 <0>         0.1389
     29 H7         -0.8014   -0.7262   -1.9635 H         1 <0>         0.1410
     30 H8         -0.8226    1.5798   -0.0471 H         1 <0>         0.3896
     31 H9          0.1499   -3.5229   -2.4280 H         1 <0>         0.3973
     32 H10        -2.0010   -2.2731    3.0222 H         1 <0>         0.1207
     33 H11        -2.1580   -4.6769    3.5183 H         1 <0>         0.1270
     34 H12         1.4918   -4.4675    5.7330 H         1 <0>         0.1315
     35 H13         1.6627   -2.0652    5.2342 H         1 <0>         0.1290
     36 H14        -1.5185   -7.7911    4.7018 H         1 <0>         0.1004
     37 H15        -2.4820   -6.2975    4.7974 H         1 <0>         0.0558
     38 H16        -1.5632   -6.6709    3.3193 H         1 <0>         0.0551
@<TRIPOS>BOND
     1    1    2 1
     2    1   24 1
     3    1   25 1
     4    1   26 1
     5    2    3 1
     6    2    6 2
     7    3   16 1
     8    3    4 2
     9    4    8 1
    10    4    5 1
    11    5    7 1
    12    5    6 1
    13    8   13 ar
    14    8    9 ar
    15    9   10 ar
    16    9   27 1
    17   10   11 ar
    18   10   28 1
    19   11   12 ar
    20   11   15 1
    21   12   13 ar
    22   12   29 1
    23   13   14 1
    24   14   30 1
    25   15   31 1
    26   16   21 ar
    27   16   17 ar
    28   17   18 ar
    29   17   32 1
    30   18   19 ar
    31   18   33 1
    32   19   20 ar
    33   19   22 1
    34   20   21 ar
    35   20   34 1
    36   21   35 1
    37   22   23 1
    38   23   36 1
    39   23   37 1
    40   23   38 1
@<TRIPOS>MOLECULE
ZINC00245648
   40    43     0     0     0
SMALL
USER_CHARGES

@<TRIPOS>ATOM
      1 C1         -3.2889   -2.1267    2.1629 C.3       1 <0>        -0.0975
      2 C2         -4.0736   -1.7013    0.9487 C.2       1 <0>         0.1078
      3 C3         -3.6569   -0.8277   -0.0105 C.2       1 <0>        -0.1932
      4 C4         -4.7014   -0.7095   -0.9618 C.2       1 <0>         0.1345
      5 N1         -5.6866   -1.4915   -0.5773 N.2       1 <0>        -0.2567
      6 N2         -5.3137   -2.1176    0.6181 N.pl3     1 <0>        -0.4718
      7 H1         -5.8718   -2.7638    1.1386 H         1 <0>         0.4484
      8 C5         -4.6844    0.1408   -2.1760 C.ar      1 <0>        -0.0503
      9 C6         -3.5737    0.1353   -3.0177 C.ar      1 <0>        -0.0556
     10 C7         -3.5629    0.9230   -4.1496 C.ar      1 <0>        -0.1536
     11 C8         -4.6520    1.7316   -4.4481 C.ar      1 <0>         0.1323
     12 C9         -5.7589    1.7473   -3.6126 C.ar      1 <0>        -0.1750
     13 C10        -5.7808    0.9554   -2.4771 C.ar      1 <0>         0.1504
     14 O1         -6.8641    0.9699   -1.6575 O.3       1 <0>        -0.4826
     15 O2         -4.6328    2.5100   -5.5617 O.3       1 <0>        -0.4965
     16 C11        -2.3512   -0.1238   -0.0488 C.ar      1 <0>         0.0061
     17 C12        -2.2992    1.2602    0.1049 C.ar      1 <0>        -0.0975
     18 C13        -1.0846    1.9134    0.0637 C.ar      1 <0>        -0.1094
     19 C14         0.0890    1.1959   -0.1221 C.ar      1 <0>         0.0490
     20 C15         0.0430   -0.1859   -0.2733 C.ar      1 <0>         0.0534
     21 C16        -1.1748   -0.8450   -0.2381 C.ar      1 <0>        -0.1059
     22 O3          1.1843   -0.9050   -0.4562 O.3       1 <0>        -0.3075
     23 C17         2.3472   -0.1746   -0.8609 C.3       1 <0>         0.0204
     24 C18         2.4601    1.0755    0.0223 C.3       1 <0>         0.0204
     25 O4          1.2767    1.8607   -0.1595 O.3       1 <0>        -0.3076
     26 H2         -3.5037   -1.4499    2.9899 H         1 <0>         0.0844
     27 H3         -3.5720   -3.1418    2.4411 H         1 <0>         0.0747
     28 H4         -2.2232   -2.0961    1.9358 H         1 <0>         0.0888
     29 H5         -2.7235   -0.4891   -2.7859 H         1 <0>         0.1336
     30 H6         -2.7033    0.9144   -4.8035 H         1 <0>         0.1351
     31 H7         -6.6039    2.3776   -3.8476 H         1 <0>         0.1388
     32 H8         -6.8166    1.6323   -0.9545 H         1 <0>         0.3895
     33 H9         -4.2661    3.3932   -5.4179 H         1 <0>         0.3943
     34 H10        -3.2098    1.8218    0.2527 H         1 <0>         0.1286
     35 H11        -1.0462    2.9861    0.1830 H         1 <0>         0.1351
     36 H12        -1.2121   -1.9177   -0.3576 H         1 <0>         0.1334
     37 H13         3.2340   -0.7956   -0.7342 H         1 <0>         0.1227
     38 H14         2.2511    0.1202   -1.9059 H         1 <0>         0.0783
     39 H15         2.5489    0.7801    1.0677 H         1 <0>         0.0780
     40 H16         3.3348    1.6556   -0.2719 H         1 <0>         0.1226
@<TRIPOS>BOND
     1    1    2 1
     2    1   26 1
     3    1   27 1
     4    1   28 1
     5    2    6 1
     6    2    3 2
     7    3    4 1
     8    3   16 1
     9    4    5 2
    10    4    8 1
    11    5    6 1
    12    6    7 1
    13    8   13 ar
    14    8    9 ar
    15    9   10 ar
    16    9   29 1
    17   10   11 ar
    18   10   30 1
    19   11   12 ar
    20   11   15 1
    21   12   13 ar
    22   12   31 1
    23   13   14 1
    24   14   32 1
    25   15   33 1
    26   16   21 ar
    27   16   17 ar
    28   17   18 ar
    29   17   34 1
    30   18   19 ar
    31   18   35 1
    32   19   25 1
    33   19   20 ar
    34   20   21 ar
    35   20   22 1
    36   21   36 1
    37   22   23 1
    38   23   24 1
    39   23   37 1
    40   23   38 1
    41   24   25 1
    42   24   39 1
    43   24   40 1
@<TRIPOS>MOLECULE
ZINC00245648
   40    43     0     0     0
SMALL
USER_CHARGES

@<TRIPOS>ATOM
      1 C1         -3.2889   -2.1267    2.1629 C.3       1 <0>        -0.0975
      2 C2         -4.0736   -1.7013    0.9487 C.2       1 <0>         0.1078
      3 C3         -3.6569   -0.8277   -0.0105 C.2       1 <0>        -0.1932
      4 C4         -4.7014   -0.7095   -0.9618 C.2       1 <0>         0.1345
      5 N1         -5.6866   -1.4915   -0.5773 N.2       1 <0>        -0.2567
      6 N2         -5.3137   -2.1176    0.6181 N.pl3     1 <0>        -0.4718
      7 H1         -5.8718   -2.7638    1.1386 H         1 <0>         0.4484
      8 C5         -4.6844    0.1408   -2.1760 C.ar      1 <0>        -0.0503
      9 C6         -3.5737    0.1353   -3.0177 C.ar      1 <0>        -0.0556
     10 C7         -3.5629    0.9230   -4.1496 C.ar      1 <0>        -0.1536
     11 C8         -4.6520    1.7316   -4.4481 C.ar      1 <0>         0.1323
     12 C9         -5.7589    1.7473   -3.6126 C.ar      1 <0>        -0.1750
     13 C10        -5.7808    0.9554   -2.4771 C.ar      1 <0>         0.1504
     14 O1         -6.8641    0.9699   -1.6575 O.3       1 <0>        -0.4826
     15 O2         -4.6328    2.5100   -5.5617 O.3       1 <0>        -0.4965
     16 C11        -2.3512   -0.1238   -0.0488 C.ar      1 <0>         0.0061
     17 C12        -2.2992    1.2602    0.1049 C.ar      1 <0>        -0.0975
     18 C13        -1.0846    1.9134    0.0637 C.ar      1 <0>        -0.1094
     19 C14         0.0890    1.1959   -0.1221 C.ar      1 <0>         0.0490
     20 C15         0.0430   -0.1859   -0.2733 C.ar      1 <0>         0.0534
     21 C16        -1.1748   -0.8450   -0.2381 C.ar      1 <0>        -0.1059
     22 O3          1.1843   -0.9050   -0.4562 O.3       1 <0>        -0.3075
     23 C17         2.3472   -0.1746   -0.8609 C.3       1 <0>         0.0204
     24 C18         2.4601    1.0755    0.0223 C.3       1 <0>         0.0204
     25 O4          1.2767    1.8607   -0.1595 O.3       1 <0>        -0.3076
     26 H2         -3.5037   -1.4499    2.9899 H         1 <0>         0.0844
     27 H3         -3.5720   -3.1418    2.4411 H         1 <0>         0.0747
     28 H4         -2.2232   -2.0961    1.9358 H         1 <0>         0.0888
     29 H5         -2.7235   -0.4891   -2.7859 H         1 <0>         0.1336
     30 H6         -2.7033    0.9144   -4.8035 H         1 <0>         0.1351
     31 H7         -6.6039    2.3776   -3.8476 H         1 <0>         0.1388
     32 H8         -6.8166    1.6323   -0.9545 H         1 <0>         0.3895
     33 H9         -4.2661    3.3932   -5.4179 H         1 <0>         0.3943
     34 H10        -3.2098    1.8218    0.2527 H         1 <0>         0.1286
     35 H11        -1.0462    2.9861    0.1830 H         1 <0>         0.1351
     36 H12        -1.2121   -1.9177   -0.3576 H         1 <0>         0.1334
     37 H13         3.2340   -0.7956   -0.7342 H         1 <0>         0.1227
     38 H14         2.2511    0.1202   -1.9059 H         1 <0>         0.0783
     39 H15         2.5489    0.7801    1.0677 H         1 <0>         0.0780
     40 H16         3.3348    1.6556   -0.2719 H         1 <0>         0.1226
@<TRIPOS>BOND
     1    1    2 1
     2    1   26 1
     3    1   27 1
     4    1   28 1
     5    2    6 1
     6    2    3 2
     7    3    4 1
     8    3   16 1
     9    4    5 2
    10    4    8 1
    11    5    6 1
    12    6    7 1
    13    8   13 ar
    14    8    9 ar
    15    9   10 ar
    16    9   29 1
    17   10   11 ar
    18   10   30 1
    19   11   12 ar
    20   11   15 1
    21   12   13 ar
    22   12   31 1
    23   13   14 1
    24   14   32 1
    25   15   33 1
    26   16   21 ar
    27   16   17 ar
    28   17   18 ar
    29   17   34 1
    30   18   19 ar
    31   18   35 1
    32   19   25 1
    33   19   20 ar
    34   20   21 ar
    35   20   22 1
    36   21   36 1
    37   22   23 1
    38   23   24 1
    39   23   37 1
    40   23   38 1
    41   24   25 1
    42   24   39 1
    43   24   40 1
@<TRIPOS>MOLECULE
ZINC00630526
   46    49     0     0     0
SMALL
USER_CHARGES

@<TRIPOS>ATOM
      1 C1          2.6799   -1.4151   -2.2889 C.3       1 <0>        -0.1462
      2 C2          1.3889   -0.5949   -2.2507 C.3       1 <0>        -0.0805
      3 C3          0.5554   -1.0249   -1.0711 C.ar      1 <0>        -0.1133
      4 C4          0.5626   -0.2744    0.0863 C.ar      1 <0>        -0.0558
      5 C5         -0.2074   -0.6705    1.1778 C.ar      1 <0>        -0.0479
      6 C6         -0.9863   -1.8297    1.0953 C.ar      1 <0>         0.1450
      7 C7         -0.9834   -2.5795   -0.0682 C.ar      1 <0>        -0.1701
      8 C8         -0.2176   -2.1756   -1.1522 C.ar      1 <0>         0.1334
      9 O1         -0.2202   -2.9108   -2.2949 O.3       1 <0>        -0.4923
     10 O2         -1.7389   -2.2215    2.1562 O.3       1 <0>        -0.4832
     11 C9         -0.2018    0.1344    2.4227 C.2       1 <0>         0.1340
     12 C10        -0.3381    1.5430    2.5070 C.2       1 <0>        -0.1918
     13 C11        -0.2842    1.8814    3.8258 C.2       1 <0>         0.1073
     14 N1         -0.1129    0.7476    4.5368 N.pl3     1 <0>        -0.4720
     15 H1         -0.0343    0.6876    5.5319 H         1 <0>         0.4483
     16 N2         -0.0639   -0.3306    3.6453 N.2       1 <0>        -0.2576
     17 C12        -0.3910    3.2749    4.3896 C.3       1 <0>        -0.0963
     18 C13        -0.5118    2.4776    1.3676 C.ar      1 <0>         0.0044
     19 C14        -1.6755    2.4368    0.6022 C.ar      1 <0>        -0.0966
     20 C15        -1.8346    3.3059   -0.4576 C.ar      1 <0>        -0.1091
     21 C16        -0.8386    4.2223   -0.7656 C.ar      1 <0>         0.0499
     22 C17         0.3237    4.2688   -0.0034 C.ar      1 <0>         0.0527
     23 C18         0.4854    3.4014    1.0644 C.ar      1 <0>        -0.1039
     24 O3          1.3085    5.1643   -0.2889 O.3       1 <0>        -0.3076
     25 C19         1.2757    5.7643   -1.5884 C.3       1 <0>         0.0205
     26 C20        -0.1631    6.2164   -1.8722 C.3       1 <0>         0.0203
     27 O4         -1.0131    5.0655   -1.8204 O.3       1 <0>        -0.3072
     28 H2          2.4355   -2.4732   -2.3831 H         1 <0>         0.0522
     29 H3          3.2828   -1.1042   -3.1421 H         1 <0>         0.0606
     30 H4          3.2412   -1.2523   -1.3688 H         1 <0>         0.0556
     31 H5          0.8277   -0.7577   -3.1708 H         1 <0>         0.0801
     32 H6          1.6333    0.4631   -2.1566 H         1 <0>         0.0715
     33 H7          1.1648    0.6201    0.1463 H         1 <0>         0.1324
     34 H8         -1.5805   -3.4771   -0.1335 H         1 <0>         0.1385
     35 H9          0.4571   -3.6005   -2.3203 H         1 <0>         0.3915
     36 H10        -2.6081   -1.7998    2.1989 H         1 <0>         0.3892
     37 H11         0.6025    3.7189    4.4515 H         1 <0>         0.0843
     38 H12        -1.0207    3.8825    3.7396 H         1 <0>         0.0884
     39 H13        -0.8322    3.2312    5.3854 H         1 <0>         0.0744
     40 H14        -2.4529    1.7253    0.8386 H         1 <0>         0.1285
     41 H15        -2.7372    3.2727   -1.0498 H         1 <0>         0.1352
     42 H16         1.3863    3.4384    1.6588 H         1 <0>         0.1326
     43 H17         1.9433    6.6256   -1.6126 H         1 <0>         0.1224
     44 H18         1.5875    5.0363   -2.3374 H         1 <0>         0.0782
     45 H19        -0.4766    6.9393   -1.1190 H         1 <0>         0.0778
     46 H20        -0.2176    6.6693   -2.8621 H         1 <0>         0.1225
@<TRIPOS>BOND
     1    1    2 1
     2    1   28 1
     3    1   29 1
     4    1   30 1
     5    2    3 1
     6    2   31 1
     7    2   32 1
     8    3    8 ar
     9    3    4 ar
    10    4    5 ar
    11    4   33 1
    12    5    6 ar
    13    5   11 1
    14    6    7 ar
    15    6   10 1
    16    7    8 ar
    17    7   34 1
    18    8    9 1
    19    9   35 1
    20   10   36 1
    21   11   16 2
    22   11   12 1
    23   12   13 2
    24   12   18 1
    25   13   14 1
    26   13   17 1
    27   14   15 1
    28   14   16 1
    29   17   37 1
    30   17   38 1
    31   17   39 1
    32   18   23 ar
    33   18   19 ar
    34   19   20 ar
    35   19   40 1
    36   20   21 ar
    37   20   41 1
    38   21   27 1
    39   21   22 ar
    40   22   23 ar
    41   22   24 1
    42   23   42 1
    43   24   25 1
    44   25   26 1
    45   25   43 1
    46   25   44 1
    47   26   27 1
    48   26   45 1
    49   26   46 1
@<TRIPOS>MOLECULE
ZINC00630526
   46    49     0     0     0
SMALL
USER_CHARGES

@<TRIPOS>ATOM
      1 C1          2.6799   -1.4151   -2.2889 C.3       1 <0>        -0.1462
      2 C2          1.3889   -0.5949   -2.2507 C.3       1 <0>        -0.0805
      3 C3          0.5554   -1.0249   -1.0711 C.ar      1 <0>        -0.1133
      4 C4          0.5626   -0.2744    0.0863 C.ar      1 <0>        -0.0558
      5 C5         -0.2074   -0.6705    1.1778 C.ar      1 <0>        -0.0479
      6 C6         -0.9863   -1.8297    1.0953 C.ar      1 <0>         0.1450
      7 C7         -0.9834   -2.5795   -0.0682 C.ar      1 <0>        -0.1701
      8 C8         -0.2176   -2.1756   -1.1522 C.ar      1 <0>         0.1334
      9 O1         -0.2202   -2.9108   -2.2949 O.3       1 <0>        -0.4923
     10 O2         -1.7389   -2.2215    2.1562 O.3       1 <0>        -0.4832
     11 C9         -0.2018    0.1344    2.4227 C.2       1 <0>         0.1340
     12 C10        -0.3381    1.5430    2.5070 C.2       1 <0>        -0.1918
     13 C11        -0.2842    1.8814    3.8258 C.2       1 <0>         0.1073
     14 N1         -0.1129    0.7476    4.5368 N.pl3     1 <0>        -0.4720
     15 H1         -0.0343    0.6876    5.5319 H         1 <0>         0.4483
     16 N2         -0.0639   -0.3306    3.6453 N.2       1 <0>        -0.2576
     17 C12        -0.3910    3.2749    4.3896 C.3       1 <0>        -0.0963
     18 C13        -0.5118    2.4776    1.3676 C.ar      1 <0>         0.0044
     19 C14        -1.6755    2.4368    0.6022 C.ar      1 <0>        -0.0966
     20 C15        -1.8346    3.3059   -0.4576 C.ar      1 <0>        -0.1091
     21 C16        -0.8386    4.2223   -0.7656 C.ar      1 <0>         0.0499
     22 C17         0.3237    4.2688   -0.0034 C.ar      1 <0>         0.0527
     23 C18         0.4854    3.4014    1.0644 C.ar      1 <0>        -0.1039
     24 O3          1.3085    5.1643   -0.2889 O.3       1 <0>        -0.3076
     25 C19         1.2757    5.7643   -1.5884 C.3       1 <0>         0.0205
     26 C20        -0.1631    6.2164   -1.8722 C.3       1 <0>         0.0203
     27 O4         -1.0131    5.0655   -1.8204 O.3       1 <0>        -0.3072
     28 H2          2.4355   -2.4732   -2.3831 H         1 <0>         0.0522
     29 H3          3.2828   -1.1042   -3.1421 H         1 <0>         0.0606
     30 H4          3.2412   -1.2523   -1.3688 H         1 <0>         0.0556
     31 H5          0.8277   -0.7577   -3.1708 H         1 <0>         0.0801
     32 H6          1.6333    0.4631   -2.1566 H         1 <0>         0.0715
     33 H7          1.1648    0.6201    0.1463 H         1 <0>         0.1324
     34 H8         -1.5805   -3.4771   -0.1335 H         1 <0>         0.1385
     35 H9          0.4571   -3.6005   -2.3203 H         1 <0>         0.3915
     36 H10        -2.6081   -1.7998    2.1989 H         1 <0>         0.3892
     37 H11         0.6025    3.7189    4.4515 H         1 <0>         0.0843
     38 H12        -1.0207    3.8825    3.7396 H         1 <0>         0.0884
     39 H13        -0.8322    3.2312    5.3854 H         1 <0>         0.0744
     40 H14        -2.4529    1.7253    0.8386 H         1 <0>         0.1285
     41 H15        -2.7372    3.2727   -1.0498 H         1 <0>         0.1352
     42 H16         1.3863    3.4384    1.6588 H         1 <0>         0.1326
     43 H17         1.9433    6.6256   -1.6126 H         1 <0>         0.1224
     44 H18         1.5875    5.0363   -2.3374 H         1 <0>         0.0782
     45 H19        -0.4766    6.9393   -1.1190 H         1 <0>         0.0778
     46 H20        -0.2176    6.6693   -2.8621 H         1 <0>         0.1225
@<TRIPOS>BOND
     1    1    2 1
     2    1   28 1
     3    1   29 1
     4    1   30 1
     5    2    3 1
     6    2   31 1
     7    2   32 1
     8    3    8 ar
     9    3    4 ar
    10    4    5 ar
    11    4   33 1
    12    5    6 ar
    13    5   11 1
    14    6    7 ar
    15    6   10 1
    16    7    8 ar
    17    7   34 1
    18    8    9 1
    19    9   35 1
    20   10   36 1
    21   11   16 2
    22   11   12 1
    23   12   13 2
    24   12   18 1
    25   13   14 1
    26   13   17 1
    27   14   15 1
    28   14   16 1
    29   17   37 1
    30   17   38 1
    31   17   39 1
    32   18   23 ar
    33   18   19 ar
    34   19   20 ar
    35   19   40 1
    36   20   21 ar
    37   20   41 1
    38   21   27 1
    39   21   22 ar
    40   22   23 ar
    41   22   24 1
    42   23   42 1
    43   24   25 1
    44   25   26 1
    45   25   43 1
    46   25   44 1
    47   26   27 1
    48   26   45 1
    49   26   46 1
@<TRIPOS>MOLECULE
ZINC00630526
   46    49     0     0     0
SMALL
USER_CHARGES

@<TRIPOS>ATOM
      1 C1          2.6512   -1.4248   -2.2974 C.3       1 <0>        -0.1464
      2 C2          1.3622   -0.6018   -2.2552 C.3       1 <0>        -0.0825
      3 C3          0.5319   -1.0293   -1.0724 C.ar      1 <0>        -0.1098
      4 C4          0.5448   -0.2782    0.0845 C.ar      1 <0>        -0.0483
      5 C5         -0.2223   -0.6721    1.1789 C.ar      1 <0>        -0.0758
      6 C6         -1.0040   -1.8296    1.0998 C.ar      1 <0>         0.1336
      7 C7         -1.0068   -2.5800   -0.0633 C.ar      1 <0>        -0.1657
      8 C8         -0.2439   -2.1784   -1.1502 C.ar      1 <0>         0.1389
      9 O1         -0.2521   -2.9142   -2.2925 O.3       1 <0>        -0.4908
     10 O2         -1.7537   -2.2192    2.1635 O.3       1 <0>        -0.4958
     11 C9         -0.2105    0.1335    2.4234 C.2       1 <0>         0.1479
     12 C10        -0.3435    1.5424    2.5074 C.2       1 <0>        -0.1906
     13 C11        -0.2804    1.8818    3.8255 C.2       1 <0>         0.0915
     14 N1         -0.1069    0.7482    4.5364 N.2       1 <0>        -0.3153
     15 H1          0.0659   -1.2903    3.8947 H         1 <0>         0.4520
     16 N2         -0.0603   -0.3302    3.6450 N.pl3     1 <0>        -0.4107
     17 C12        -0.3859    3.2754    4.3893 C.3       1 <0>        -0.0761
     18 C13        -0.5191    2.4768    1.3681 C.ar      1 <0>         0.0049
     19 C14        -1.6856    2.4381    0.6068 C.ar      1 <0>        -0.0986
     20 C15        -1.8465    3.3070   -0.4529 C.ar      1 <0>        -0.1098
     21 C16        -0.8495    4.2211   -0.7649 C.ar      1 <0>         0.0492
     22 C17         0.3155    4.2654   -0.0068 C.ar      1 <0>         0.0530
     23 C18         0.4791    3.3982    1.0609 C.ar      1 <0>        -0.1025
     24 O3          1.3013    5.1586   -0.2962 O.3       1 <0>        -0.3071
     25 C19         1.2653    5.7580   -1.5959 C.3       1 <0>         0.0207
     26 C20        -0.1735    6.2131   -1.8749 C.3       1 <0>         0.0201
     27 O4         -1.0259    5.0641   -1.8195 O.3       1 <0>        -0.3076
     28 H2          2.4042   -2.4825   -2.3902 H         1 <0>         0.0521
     29 H3          3.2518   -1.1157   -3.1529 H         1 <0>         0.0624
     30 H4          3.2161   -1.2628   -1.3794 H         1 <0>         0.0558
     31 H5          0.7974   -0.7638   -3.1732 H         1 <0>         0.0818
     32 H6          1.6092    0.4557   -2.1625 H         1 <0>         0.0737
     33 H7          1.1491    0.6150    0.1419 H         1 <0>         0.1364
     34 H8         -1.6061   -3.4763   -0.1260 H         1 <0>         0.1409
     35 H9          0.4236   -3.6054   -2.3199 H         1 <0>         0.3935
     36 H10        -2.6218   -1.7955    2.2090 H         1 <0>         0.3969
     37 H11         0.6077    3.7196    4.4482 H         1 <0>         0.0789
     38 H12        -1.0175    3.8827    3.7409 H         1 <0>         0.0783
     39 H13        -0.8242    3.2319    5.3863 H         1 <0>         0.0749
     40 H14        -2.4637    1.7285    0.8463 H         1 <0>         0.1273
     41 H15        -2.7512    3.2755   -1.0419 H         1 <0>         0.1345
     42 H16         1.3821    3.4336    1.6521 H         1 <0>         0.1336
     43 H17         1.9347    6.6178   -1.6229 H         1 <0>         0.1225
     44 H18         1.5728    5.0289   -2.3456 H         1 <0>         0.0776
     45 H19        -0.4828    6.9371   -1.1210 H         1 <0>         0.0782
     46 H20        -0.2305    6.6656   -2.8649 H         1 <0>         0.1223
@<TRIPOS>BOND
     1    1    2 1
     2    1   28 1
     3    1   29 1
     4    1   30 1
     5    2    3 1
     6    2   31 1
     7    2   32 1
     8    3    8 ar
     9    3    4 ar
    10    4    5 ar
    11    4   33 1
    12    5    6 ar
    13    5   11 1
    14    6    7 ar
    15    6   10 1
    16    7    8 ar
    17    7   34 1
    18    8    9 1
    19    9   35 1
    20   10   36 1
    21   11   12 2
    22   11   16 1
    23   12   18 1
    24   12   13 1
    25   13   17 1
    26   13   14 2
    27   14   16 1
    28   15   16 1
    29   17   37 1
    30   17   38 1
    31   17   39 1
    32   18   23 ar
    33   18   19 ar
    34   19   20 ar
    35   19   40 1
    36   20   21 ar
    37   20   41 1
    38   21   27 1
    39   21   22 ar
    40   22   23 ar
    41   22   24 1
    42   23   42 1
    43   24   25 1
    44   25   26 1
    45   25   43 1
    46   25   44 1
    47   26   27 1
    48   26   45 1
    49   26   46 1
@<TRIPOS>MOLECULE
ZINC01552694
   51    53     0     0     0
SMALL
USER_CHARGES

@<TRIPOS>ATOM
      1 C1          1.2839   -0.6354   -0.0136 C.3       1 <0>         0.0084
      2 O1          0.0021   -0.0041    0.0020 O.3       1 <0>        -0.2949
      3 C2         -0.0164    1.3560    0.0095 C.ar      1 <0>         0.1327
      4 C3          1.1745    2.0663    0.0019 C.ar      1 <0>        -0.1893
      5 C4          1.1572    3.4484    0.0096 C.ar      1 <0>        -0.0376
      6 C5         -0.0473    4.1285    0.0248 C.ar      1 <0>        -0.0687
      7 C6         -1.2428    3.4247    0.0324 C.ar      1 <0>         0.1278
      8 C7         -1.2288    2.0351    0.0189 C.ar      1 <0>         0.0615
      9 O2         -2.3995    1.3411    0.0206 O.3       1 <0>        -0.3157
     10 C8         -2.9515    1.0033    1.2947 C.3       1 <0>         0.0368
     11 O3         -2.4269    4.0938    0.0473 O.3       1 <0>        -0.3183
     12 C9         -3.0039    4.4198   -1.2187 C.3       1 <0>         0.0381
     13 Cl1        -0.0629    5.8644    0.0349 Cl        1 <0>        -0.0220
     14 C10         2.4539    4.2163    0.0008 C.3       1 <0>        -0.0025
     15 C11         2.7465    4.6921   -1.3988 C.2       1 <0>         0.2878
     16 N1          2.3590    5.8300   -1.8970 N.2       1 <0>        -0.4215
     17 C12         2.7943    5.9340   -3.1762 C.ar      1 <0>        -0.0734
     18 C13         2.6827    6.9103   -4.1810 C.ar      1 <0>         0.4836
     19 N2          3.2512    6.6758   -5.3588 N.ar      1 <0>        -0.5892
     20 C14         3.9093    5.5516   -5.5896 C.ar      1 <0>         0.5489
     21 N3          4.0394    4.6091   -4.6767 N.ar      1 <0>        -0.5543
     22 C15         3.5033    4.7574   -3.4691 C.ar      1 <0>         0.3221
     23 N4          3.4614    3.9963   -2.3285 N.pl3     1 <0>        -0.4599
     24 C16         4.0701    2.6765   -2.1442 C.3       1 <0>         0.1055
     25 C17         3.0681    1.5922   -2.5457 C.3       1 <0>        -0.1474
     26 C18         3.7038    0.2139   -2.3532 C.3       1 <0>        -0.0089
     27 C19         2.7398   -0.8293   -2.7395 C.1       1 <0>        -0.2008
     28 C20         1.9710   -1.6613   -3.0477 C.1       1 <0>        -0.1842
     29 F1          4.4689    5.3626   -6.8047 F         1 <0>        -0.0707
     30 N5          1.9962    8.0892   -3.9490 N.pl3     1 <0>        -0.7341
     31 H1          1.1558   -1.7179   -0.0182 H         1 <0>         0.1047
     32 H2          1.8284   -0.3302   -0.9072 H         1 <0>         0.0707
     33 H3          1.8454   -0.3398    0.8726 H         1 <0>         0.0572
     34 H4          2.1169    1.5388   -0.0096 H         1 <0>         0.1460
     35 H5         -3.8817    0.4530    1.1532 H         1 <0>         0.0968
     36 H6         -2.2431    0.3840    1.8450 H         1 <0>         0.0477
     37 H7         -3.1508    1.9151    1.8576 H         1 <0>         0.0516
     38 H8         -3.1921    3.5039   -1.7789 H         1 <0>         0.0529
     39 H9         -3.9433    4.9506   -1.0641 H         1 <0>         0.1010
     40 H10        -2.3164    5.0536   -1.7789 H         1 <0>         0.0494
     41 H11         2.3720    5.0753    0.6669 H         1 <0>         0.1275
     42 H12         3.2620    3.5687    0.3408 H         1 <0>         0.1058
     43 H13         4.9608    2.5970   -2.7674 H         1 <0>         0.1069
     44 H14         4.3460    2.5467   -1.0977 H         1 <0>         0.1025
     45 H15         2.1774    1.6718   -1.9225 H         1 <0>         0.0829
     46 H16         2.7922    1.7221   -3.5922 H         1 <0>         0.0802
     47 H17         4.5945    0.1343   -2.9764 H         1 <0>         0.0960
     48 H18         3.9798    0.0840   -1.3067 H         1 <0>         0.0895
     49 H19         1.2834   -2.4055   -3.3233 H         1 <0>         0.2184
     50 H20         1.0459    7.8814   -3.7171 H         1 <0>         0.3752
     51 H21         1.9259    8.7556   -4.6503 H         1 <0>         0.3776
@<TRIPOS>BOND
     1    1    2 1
     2    1   31 1
     3    1   32 1
     4    1   33 1
     5    2    3 1
     6    3    8 ar
     7    3    4 ar
     8    4    5 ar
     9    4   34 1
    10    5    6 ar
    11    5   14 1
    12    6    7 ar
    13    6   13 1
    14    7    8 ar
    15    7   11 1
    16    8    9 1
    17    9   10 1
    18   10   35 1
    19   10   36 1
    20   10   37 1
    21   11   12 1
    22   12   38 1
    23   12   39 1
    24   12   40 1
    25   14   15 1
    26   14   41 1
    27   14   42 1
    28   15   23 1
    29   15   16 2
    30   16   17 1
    31   17   22 ar
    32   17   18 ar
    33   18   19 ar
    34   18   30 1
    35   19   20 ar
    36   20   21 ar
    37   20   29 1
    38   21   22 ar
    39   22   23 1
    40   23   24 1
    41   24   25 1
    42   24   43 1
    43   24   44 1
    44   25   26 1
    45   25   45 1
    46   25   46 1
    47   26   27 1
    48   26   47 1
    49   26   48 1
    50   27   28 3
    51   28   49 1
    52   30   50 1
    53   30   51 1
@<TRIPOS>MOLECULE
ZINC03832013
   52    54     0     0     0
SMALL
USER_CHARGES

@<TRIPOS>ATOM
      1 C1         -0.0650    0.3439   -2.0495 C.3       1 <0>        -0.1532
      2 C2          0.6219    1.6597   -2.4207 C.3       1 <0>        -0.1202
      3 C3         -0.3797    2.8099   -2.2992 C.3       1 <0>        -0.1365
      4 C4          0.2712    4.1064   -2.7853 C.3       1 <0>         0.1074
      5 N1         -0.6452    5.2271   -2.5605 N.pl3     1 <0>        -0.4638
      6 C5         -0.6512    6.0602   -1.4815 C.2       1 <0>         0.2876
      7 N2         -1.5945    6.9474   -1.6100 N.2       1 <0>        -0.4449
      8 C6         -2.2555    6.7375   -2.7738 C.ar      1 <0>        -0.0669
      9 C7         -1.6566    5.6289   -3.3960 C.ar      1 <0>         0.2935
     10 N3         -2.1266    5.2137   -4.5676 N.ar      1 <0>        -0.5362
     11 C8         -3.1392    5.8297   -5.1406 C.ar      1 <0>         0.3451
     12 N4         -3.7339    6.8747   -4.5948 N.ar      1 <0>        -0.5750
     13 C9         -3.3332    7.3613   -3.4247 C.ar      1 <0>         0.4475
     14 N5         -3.9625    8.4573   -2.8607 N.pl3     1 <0>        -0.7435
     15 C10         0.2987    5.9709   -0.3150 C.3       1 <0>        -0.0004
     16 C11         1.4572    6.9087   -0.5375 C.ar      1 <0>        -0.0149
     17 C12         2.6065    6.4505   -1.1538 C.ar      1 <0>        -0.2283
     18 C13         3.6744    7.3103   -1.3609 C.ar      1 <0>         0.1509
     19 C14         3.5860    8.6360   -0.9530 C.ar      1 <0>         0.0323
     20 C15         2.4308    9.0914   -0.3286 C.ar      1 <0>         0.1528
     21 C16         1.3673    8.2251   -0.1253 C.ar      1 <0>        -0.2086
     22 O1          2.3415   10.3862    0.0774 O.3       1 <0>        -0.3011
     23 C17         1.1693   10.7587    0.8048 C.3       1 <0>         0.0232
     24 O2          4.6296    9.4846   -1.1599 O.3       1 <0>        -0.3125
     25 C18         5.6126    9.5681   -0.1261 C.3       1 <0>         0.0355
     26 O3          4.8046    6.8586   -1.9677 O.3       1 <0>        -0.3005
     27 C19         4.8228    5.4864   -2.3662 C.3       1 <0>         0.0241
     28 H1         -0.5059    0.4318   -1.0565 H         1 <0>         0.0550
     29 H2         -0.8473    0.1248   -2.7762 H         1 <0>         0.0559
     30 H3          0.6687   -0.4621   -2.0513 H         1 <0>         0.0588
     31 H4          0.9867    1.6024   -3.4463 H         1 <0>         0.0675
     32 H5          1.4600    1.8349   -1.7462 H         1 <0>         0.0656
     33 H6         -0.6793    2.9222   -1.2573 H         1 <0>         0.0697
     34 H7         -1.2573    2.5934   -2.9083 H         1 <0>         0.0748
     35 H8          0.4918    4.0254   -3.8497 H         1 <0>         0.0983
     36 H9          1.1962    4.2773   -2.2346 H         1 <0>         0.0946
     37 H10        -3.4971    5.4665   -6.0927 H         1 <0>         0.2057
     38 H11        -4.3414    8.2028   -1.9709 H         1 <0>         0.3688
     39 H12        -4.7055    8.8793   -3.3198 H         1 <0>         0.3734
     40 H13         0.6698    4.9499   -0.2259 H         1 <0>         0.1002
     41 H14        -0.2232    6.2490    0.6007 H         1 <0>         0.1188
     42 H15         2.6729    5.4212   -1.4742 H         1 <0>         0.1323
     43 H16         0.4675    8.5794    0.3555 H         1 <0>         0.1424
     44 H17         1.2625   11.7916    1.1400 H         1 <0>         0.1036
     45 H18         1.0552   10.1050    1.6695 H         1 <0>         0.0587
     46 H19         0.2958   10.6635    0.1597 H         1 <0>         0.0615
     47 H20         6.3868   10.2779   -0.4173 H         1 <0>         0.0934
     48 H21         5.1410    9.9035    0.7976 H         1 <0>         0.0448
     49 H22         6.0599    8.5864    0.0301 H         1 <0>         0.0444
     50 H23         5.7793    5.2572   -2.8361 H         1 <0>         0.1048
     51 H24         4.6871    4.8519   -1.4903 H         1 <0>         0.0579
     52 H25         4.0161    5.3034   -3.0760 H         1 <0>         0.0557
@<TRIPOS>BOND
     1    1    2 1
     2    1   28 1
     3    1   29 1
     4    1   30 1
     5    2    3 1
     6    2   31 1
     7    2   32 1
     8    3    4 1
     9    3   33 1
    10    3   34 1
    11    4    5 1
    12    4   35 1
    13    4   36 1
    14    5    9 1
    15    5    6 1
    16    6    7 2
    17    6   15 1
    18    7    8 1
    19    8   13 ar
    20    8    9 ar
    21    9   10 ar
    22   10   11 ar
    23   11   12 ar
    24   11   37 1
    25   12   13 ar
    26   13   14 1
    27   14   38 1
    28   14   39 1
    29   15   16 1
    30   15   40 1
    31   15   41 1
    32   16   21 ar
    33   16   17 ar
    34   17   18 ar
    35   17   42 1
    36   18   19 ar
    37   18   26 1
    38   19   20 ar
    39   19   24 1
    40   20   21 ar
    41   20   22 1
    42   21   43 1
    43   22   23 1
    44   23   44 1
    45   23   45 1
    46   23   46 1
    47   24   25 1
    48   25   47 1
    49   25   48 1
    50   25   49 1
    51   26   27 1
    52   27   50 1
    53   27   51 1
    54   27   52 1
@<TRIPOS>MOLECULE
ZINC03832014
   42    44     0     0     0
SMALL
USER_CHARGES

@<TRIPOS>ATOM
      1 C1         -2.2701   -2.4716   -3.3302 C.3       1 <0>        -0.1311
      2 C2         -1.8973   -2.2665   -1.8845 C.2       1 <0>        -0.1264
      3 C3         -1.6633   -1.0591   -1.4333 C.2       1 <0>        -0.1918
      4 C4         -1.1806   -0.8636   -0.0192 C.3       1 <0>         0.1417
      5 N1          0.0627   -0.0888   -0.0303 N.pl3     1 <0>        -0.4611
      6 C5          1.3284   -0.5945   -0.0104 C.2       1 <0>         0.2934
      7 N2          2.1953    0.3759   -0.0289 N.2       1 <0>        -0.4496
      8 C6          1.5430    1.5627   -0.0618 C.ar      1 <0>        -0.0655
      9 C7          0.1667    1.2788   -0.0630 C.ar      1 <0>         0.2915
     10 N3         -0.7004    2.2856   -0.0880 N.ar      1 <0>        -0.5355
     11 C8         -0.2798    3.5326   -0.1199 C.ar      1 <0>         0.3428
     12 N4          1.0023    3.8485   -0.1200 N.ar      1 <0>        -0.5754
     13 C9          1.9425    2.9095   -0.0919 C.ar      1 <0>         0.4451
     14 N5          3.2838    3.2503   -0.0926 N.pl3     1 <0>        -0.7439
     15 C10         1.6730   -2.0611    0.0282 C.3       1 <0>         0.0050
     16 C11         1.9145   -2.4830    1.4547 C.ar      1 <0>        -0.1283
     17 C12         3.1627   -2.3101    2.0236 C.ar      1 <0>        -0.0542
     18 C13         3.3851   -2.6908    3.3328 C.ar      1 <0>        -0.2069
     19 C14         2.3576   -3.2570    4.0734 C.ar      1 <0>         0.1325
     20 C15         1.1076   -3.4346    3.4984 C.ar      1 <0>        -0.1516
     21 C16         0.8889   -3.0475    2.1905 C.ar      1 <0>        -0.0729
     22 O1          2.5754   -3.6375    5.3597 O.3       1 <0>        -0.3172
     23 C17         3.8867   -3.4246    5.8861 C.3       1 <0>         0.0260
     24 H1         -2.4252   -3.5340   -3.5182 H         1 <0>         0.0664
     25 H2         -3.1878   -1.9260   -3.5497 H         1 <0>         0.0691
     26 H3         -1.4669   -2.1032   -3.9683 H         1 <0>         0.0692
     27 H4         -1.8231   -3.1150   -1.2204 H         1 <0>         0.1140
     28 H5         -1.8162   -0.2039   -2.0748 H         1 <0>         0.1165
     29 H6         -0.9992   -1.8351    0.4405 H         1 <0>         0.1000
     30 H7         -1.9380   -0.3270    0.5523 H         1 <0>         0.1042
     31 H8         -1.0109    4.3273   -0.1434 H         1 <0>         0.2052
     32 H9          3.7183    2.8953    0.7351 H         1 <0>         0.3684
     33 H10         3.5471    4.1837   -0.1136 H         1 <0>         0.3728
     34 H11         0.8475   -2.6393   -0.3869 H         1 <0>         0.0956
     35 H12         2.5731   -2.2385   -0.5604 H         1 <0>         0.1142
     36 H13         3.9635   -1.8734    1.4453 H         1 <0>         0.1323
     37 H14         4.3590   -2.5512    3.7783 H         1 <0>         0.1307
     38 H15         0.3061   -3.8748    4.0730 H         1 <0>         0.1326
     39 H16        -0.0840   -3.1855    1.7424 H         1 <0>         0.1263
     40 H17         4.6119   -3.9786    5.2901 H         1 <0>         0.0575
     41 H18         4.1241   -2.3613    5.8510 H         1 <0>         0.0564
     42 H19         3.9245   -3.7713    6.9188 H         1 <0>         0.1019
@<TRIPOS>BOND
     1    1    2 1
     2    1   24 1
     3    1   25 1
     4    1   26 1
     5    2    3 2
     6    2   27 1
     7    3    4 1
     8    3   28 1
     9    4    5 1
    10    4   29 1
    11    4   30 1
    12    5    9 1
    13    5    6 1
    14    6    7 2
    15    6   15 1
    16    7    8 1
    17    8   13 ar
    18    8    9 ar
    19    9   10 ar
    20   10   11 ar
    21   11   12 ar
    22   11   31 1
    23   12   13 ar
    24   13   14 1
    25   14   32 1
    26   14   33 1
    27   15   16 1
    28   15   34 1
    29   15   35 1
    30   16   21 ar
    31   16   17 ar
    32   17   18 ar
    33   17   36 1
    34   18   19 ar
    35   18   37 1
    36   19   20 ar
    37   19   22 1
    38   20   21 ar
    39   20   38 1
    40   21   39 1
    41   22   23 1
    42   23   40 1
    43   23   41 1
    44   23   42 1
@<TRIPOS>MOLECULE
ZINC03832016
   42    44     0     0     0
SMALL
USER_CHARGES

@<TRIPOS>ATOM
      1 C1         -0.0400    0.9631    0.0170 C.3       1 <0>        -0.1314
      2 C2         -0.7438    1.4565    1.2548 C.2       1 <0>        -0.1255
      3 C3         -0.2334    1.2179    2.4375 C.2       1 <0>        -0.1920
      4 C4         -0.8748    1.8065    3.6676 C.3       1 <0>         0.1404
      5 N1         -1.1808    0.7353    4.6190 N.pl3     1 <0>        -0.4618
      6 C5         -2.3058   -0.0344    4.6325 C.2       1 <0>         0.2964
      7 N2         -2.2470   -0.8906    5.6108 N.2       1 <0>        -0.4582
      8 C6         -1.0884   -0.7187    6.2915 C.ar      1 <0>        -0.0996
      9 C7         -0.3903    0.3267    5.6632 C.ar      1 <0>         0.2947
     10 N3          0.7919    0.6953    6.1455 N.ar      1 <0>        -0.5392
     11 C8          1.3053    0.0920    7.1969 C.ar      1 <0>         0.3466
     12 N4          0.6871   -0.8944    7.8202 N.ar      1 <0>        -0.5499
     13 C9         -0.4993   -1.3314    7.4103 C.ar      1 <0>         0.4551
     14 N5         -1.1392   -2.3661    8.0698 N.pl3     1 <0>        -0.7510
     15 C10        -3.4474    0.0858    3.6561 C.3       1 <0>         0.0002
     16 C11        -4.5252    0.9569    4.2481 C.ar      1 <0>        -0.0507
     17 C12        -4.5672    2.3056    3.9455 C.ar      1 <0>        -0.1520
     18 C13        -5.5546    3.1075    4.4870 C.ar      1 <0>        -0.0775
     19 C14        -6.5028    2.5627    5.3315 C.ar      1 <0>        -0.2046
     20 C15        -6.4630    1.2100    5.6363 C.ar      1 <0>         0.1305
     21 C16        -5.4735    0.4065    5.0880 C.ar      1 <0>        -0.1291
     22 O1         -7.3947    0.6717    6.4663 O.3       1 <0>        -0.3152
     23 C17        -8.3868    1.5573    6.9893 C.3       1 <0>         0.0264
     24 H1          0.0420   -0.1231    0.0542 H         1 <0>         0.0687
     25 H2          0.9569    1.4012   -0.0331 H         1 <0>         0.0707
     26 H3         -0.6097    1.2545   -0.8654 H         1 <0>         0.0666
     27 H4         -1.6689    2.0068    1.1669 H         1 <0>         0.1138
     28 H5          0.6470    0.5994    2.5310 H         1 <0>         0.1163
     29 H6         -0.1900    2.5179    4.1294 H         1 <0>         0.1091
     30 H7         -1.7958    2.3180    3.3878 H         1 <0>         0.0981
     31 H8          2.2683    0.4158    7.5632 H         1 <0>         0.2085
     32 H9         -0.5653   -3.1846    8.0419 H         1 <0>         0.3667
     33 H10        -2.0049   -2.6762    7.7610 H         1 <0>         0.3828
     34 H11        -3.0874    0.5325    2.7293 H         1 <0>         0.0994
     35 H12        -3.8536   -0.9042    3.4484 H         1 <0>         0.1167
     36 H13        -3.8272    2.7333    3.2853 H         1 <0>         0.1212
     37 H14        -5.5852    4.1606    4.2494 H         1 <0>         0.1276
     38 H15        -7.2744    3.1894    5.7537 H         1 <0>         0.1296
     39 H16        -5.4429   -0.6477    5.3206 H         1 <0>         0.1368
     40 H17        -7.9025    2.3461    7.5650 H         1 <0>         0.0557
     41 H18        -8.9483    2.0003    6.1668 H         1 <0>         0.0567
     42 H19        -9.0662    1.0011    7.6351 H         1 <0>         0.1025
@<TRIPOS>BOND
     1    1    2 1
     2    1   24 1
     3    1   25 1
     4    1   26 1
     5    2    3 2
     6    2   27 1
     7    3    4 1
     8    3   28 1
     9    4    5 1
    10    4   29 1
    11    4   30 1
    12    5    9 1
    13    5    6 1
    14    6    7 2
    15    6   15 1
    16    7    8 1
    17    8   13 ar
    18    8    9 ar
    19    9   10 ar
    20   10   11 ar
    21   11   12 ar
    22   11   31 1
    23   12   13 ar
    24   13   14 1
    25   14   32 1
    26   14   33 1
    27   15   16 1
    28   15   34 1
    29   15   35 1
    30   16   21 ar
    31   16   17 ar
    32   17   18 ar
    33   17   36 1
    34   18   19 ar
    35   18   37 1
    36   19   20 ar
    37   19   38 1
    38   20   21 ar
    39   20   22 1
    40   21   39 1
    41   22   23 1
    42   23   40 1
    43   23   41 1
    44   23   42 1
@<TRIPOS>MOLECULE
ZINC03832017
   43    46     0     0     0
SMALL
USER_CHARGES

@<TRIPOS>ATOM
      1 C1         -1.6972    1.5709   -3.3857 C.3       1 <0>        -0.1534
      2 C2         -0.8394    1.0608   -2.2259 C.3       1 <0>        -0.1206
      3 C3         -1.3902    1.6052   -0.9064 C.3       1 <0>        -0.1364
      4 C4         -0.5325    1.0951    0.2534 C.3       1 <0>         0.1057
      5 N1         -0.9902    1.7050    1.5043 N.pl3     1 <0>        -0.4638
      6 C5         -0.5849    2.9029    2.0132 C.2       1 <0>         0.2907
      7 N2         -1.1966    3.1381    3.1376 N.2       1 <0>        -0.4581
      8 C6         -2.0234    2.1044    3.4260 C.ar      1 <0>        -0.1006
      9 C7         -1.9009    1.1724    2.3814 C.ar      1 <0>         0.2960
     10 N3         -2.6173    0.0541    2.4264 N.ar      1 <0>        -0.5393
     11 C8         -3.4315   -0.1811    3.4337 C.ar      1 <0>         0.3477
     12 N4         -3.5800    0.6641    4.4373 N.ar      1 <0>        -0.5497
     13 C9         -2.9053    1.8085    4.4790 C.ar      1 <0>         0.4556
     14 N5         -3.0680    2.6882    5.5348 N.pl3     1 <0>        -0.7510
     15 C10         0.4202    3.8212    1.3671 C.3       1 <0>         0.0047
     16 C11         1.7894    3.5451    1.9329 C.ar      1 <0>        -0.0813
     17 C12         2.6474    2.6845    1.2737 C.ar      1 <0>        -0.1022
     18 C13         3.9042    2.4278    1.7889 C.ar      1 <0>        -0.0990
     19 C14         4.3070    3.0329    2.9683 C.ar      1 <0>         0.0374
     20 C15         3.4428    3.9001    3.6322 C.ar      1 <0>         0.0352
     21 C16         2.1868    4.1572    3.1069 C.ar      1 <0>        -0.0783
     22 O1          4.0659    4.3618    4.7555 O.3       1 <0>        -0.3061
     23 C17         5.4659    4.0891    4.5581 C.3       1 <0>         0.2126
     24 O2          5.4716    2.9513    3.6757 O.3       1 <0>        -0.3078
     25 H1         -2.7249    1.2325   -3.2538 H         1 <0>         0.0553
     26 H2         -1.6729    2.6605   -3.4038 H         1 <0>         0.0552
     27 H3         -1.3048    1.1831   -4.3258 H         1 <0>         0.0588
     28 H4          0.1883    1.3993   -2.3578 H         1 <0>         0.0668
     29 H5         -0.8637   -0.0287   -2.2078 H         1 <0>         0.0678
     30 H6         -2.4179    1.2667   -0.7745 H         1 <0>         0.0727
     31 H7         -1.3660    2.6947   -0.9244 H         1 <0>         0.0703
     32 H8         -0.6233    0.0111    0.3231 H         1 <0>         0.1012
     33 H9          0.5099    1.3620    0.0792 H         1 <0>         0.0956
     34 H10        -3.9996   -1.0996    3.4394 H         1 <0>         0.2087
     35 H11        -4.0240    2.9777    5.5832 H         1 <0>         0.3669
     36 H12        -2.5699    3.5204    5.5539 H         1 <0>         0.3827
     37 H13         0.4303    3.6491    0.2908 H         1 <0>         0.1026
     38 H14         0.1467    4.8573    1.5669 H         1 <0>         0.1183
     39 H15         2.3350    2.2116    0.3544 H         1 <0>         0.1367
     40 H16         4.5723    1.7548    1.2720 H         1 <0>         0.1389
     41 H17         1.5162    4.8326    3.6173 H         1 <0>         0.1419
     42 H18         5.9594    4.9402    4.0889 H         1 <0>         0.0875
     43 H19         5.9451    3.8416    5.5053 H         1 <0>         0.1340
@<TRIPOS>BOND
     1    1    2 1
     2    1   25 1
     3    1   26 1
     4    1   27 1
     5    2    3 1
     6    2   28 1
     7    2   29 1
     8    3    4 1
     9    3   30 1
    10    3   31 1
    11    4    5 1
    12    4   32 1
    13    4   33 1
    14    5    9 1
    15    5    6 1
    16    6    7 2
    17    6   15 1
    18    7    8 1
    19    8   13 ar
    20    8    9 ar
    21    9   10 ar
    22   10   11 ar
    23   11   12 ar
    24   11   34 1
    25   12   13 ar
    26   13   14 1
    27   14   35 1
    28   14   36 1
    29   15   16 1
    30   15   37 1
    31   15   38 1
    32   16   21 ar
    33   16   17 ar
    34   17   18 ar
    35   17   39 1
    36   18   19 ar
    37   18   40 1
    38   19   24 1
    39   19   20 ar
    40   20   21 ar
    41   20   22 1
    42   21   41 1
    43   22   23 1
    44   23   24 1
    45   23   42 1
    46   23   43 1
@<TRIPOS>MOLECULE
ZINC03832018
   48    50     0     0     0
SMALL
USER_CHARGES

@<TRIPOS>ATOM
      1 C1          1.2757    2.8027   -1.4096 C.3       1 <0>        -0.1528
      2 C2          1.3442    3.1606    0.0764 C.3       1 <0>        -0.1206
      3 C3          0.0303    3.8180    0.5037 C.3       1 <0>        -0.1358
      4 C4          0.1428    4.2858    1.9561 C.3       1 <0>         0.1072
      5 N1         -1.1510    4.8082    2.4024 N.pl3     1 <0>        -0.4647
      6 C5         -2.1189    4.1101    3.0612 C.2       1 <0>         0.2904
      7 N2         -3.1346    4.8848    3.3099 N.2       1 <0>        -0.4334
      8 C6         -2.8863    6.1243    2.8228 C.ar      1 <0>        -0.0675
      9 C7         -1.6120    6.0891    2.2314 C.ar      1 <0>         0.2897
     10 N3         -1.1281    7.1939    1.6737 N.ar      1 <0>        -0.5360
     11 C8         -1.8295    8.3080    1.6731 C.ar      1 <0>         0.3412
     12 N4         -3.0304    8.3896    2.2161 N.ar      1 <0>        -0.5768
     13 C9         -3.5962    7.3366    2.7970 C.ar      1 <0>         0.4452
     14 N5         -4.8555    7.4319    3.3630 N.pl3     1 <0>        -0.7439
     15 C10        -2.0242    2.6572    3.4498 C.3       1 <0>         0.0110
     16 C11        -1.4395    2.5446    4.8342 C.ar      1 <0>        -0.0876
     17 C12        -0.1027    2.2362    4.9965 C.ar      1 <0>        -0.1072
     18 C13         0.4354    2.1330    6.2705 C.ar      1 <0>         0.0911
     19 C14        -0.3687    2.3395    7.3818 C.ar      1 <0>        -0.1614
     20 C15        -1.7038    2.6534    7.2194 C.ar      1 <0>        -0.1691
     21 C16        -2.2434    2.7510    5.9452 C.ar      1 <0>         0.1165
     22 O1         -3.5592    3.0545    5.7854 O.3       1 <0>        -0.2947
     23 C17        -4.2978    3.3799    6.9647 C.3       1 <0>         0.0303
     24 O2          1.7513    1.8299    6.4302 O.3       1 <0>        -0.3172
     25 C18         2.2382    1.7397    7.7707 C.3       1 <0>         0.0273
     26 H1          2.1751    2.2563   -1.6935 H         1 <0>         0.0582
     27 H2          0.3996    2.1808   -1.5935 H         1 <0>         0.0549
     28 H3          1.2036    3.7159   -2.0003 H         1 <0>         0.0550
     29 H4          2.1688    3.8530    0.2457 H         1 <0>         0.0671
     30 H5          1.5043    2.2549    0.6613 H         1 <0>         0.0668
     31 H6         -0.7822    3.0967    0.4162 H         1 <0>         0.0696
     32 H7         -0.1733    4.6744   -0.1391 H         1 <0>         0.0731
     33 H8          0.8959    5.0706    2.0277 H         1 <0>         0.0971
     34 H9          0.4326    3.4455    2.5870 H         1 <0>         0.0972
     35 H10        -1.4071    9.1880    1.2110 H         1 <0>         0.2041
     36 H11        -5.4735    6.7885    2.9112 H         1 <0>         0.3686
     37 H12        -5.3356    8.2743    3.3388 H         1 <0>         0.3717
     38 H13        -1.3834    2.1325    2.7410 H         1 <0>         0.0971
     39 H14        -3.0192    2.2123    3.4383 H         1 <0>         0.1199
     40 H15         0.5234    2.0758    4.1313 H         1 <0>         0.1365
     41 H16         0.0502    2.2587    8.3740 H         1 <0>         0.1319
     42 H17        -2.3288    2.8189    8.0846 H         1 <0>         0.1336
     43 H18        -4.3455    2.5071    7.6160 H         1 <0>         0.0516
     44 H19        -5.3078    3.6829    6.6888 H         1 <0>         0.1019
     45 H20        -3.8035    4.1978    7.4889 H         1 <0>         0.0520
     46 H21         1.6917    0.9621    8.3043 H         1 <0>         0.0555
     47 H22         3.2997    1.4927    7.7559 H         1 <0>         0.1014
     48 H23         2.0946    2.6956    8.2745 H         1 <0>         0.0543
@<TRIPOS>BOND
     1    1    2 1
     2    1   26 1
     3    1   27 1
     4    1   28 1
     5    2    3 1
     6    2   29 1
     7    2   30 1
     8    3    4 1
     9    3   31 1
    10    3   32 1
    11    4    5 1
    12    4   33 1
    13    4   34 1
    14    5    9 1
    15    5    6 1
    16    6    7 2
    17    6   15 1
    18    7    8 1
    19    8   13 ar
    20    8    9 ar
    21    9   10 ar
    22   10   11 ar
    23   11   12 ar
    24   11   35 1
    25   12   13 ar
    26   13   14 1
    27   14   36 1
    28   14   37 1
    29   15   16 1
    30   15   38 1
    31   15   39 1
    32   16   21 ar
    33   16   17 ar
    34   17   18 ar
    35   17   40 1
    36   18   19 ar
    37   18   24 1
    38   19   20 ar
    39   19   41 1
    40   20   21 ar
    41   20   42 1
    42   21   22 1
    43   22   23 1
    44   23   43 1
    45   23   44 1
    46   23   45 1
    47   24   25 1
    48   25   46 1
    49   25   47 1
    50   25   48 1
@<TRIPOS>MOLECULE
ZINC03832020
   52    54     0     0     0
SMALL
USER_CHARGES

@<TRIPOS>ATOM
      1 C1         -3.5926    0.4100    7.5727 C.3       1 <0>        -0.1558
      2 C2         -4.0164    0.9649    6.2114 C.3       1 <0>        -0.1209
      3 C3         -2.7803    1.1512    5.3292 C.3       1 <0>        -0.1401
      4 C4         -3.2041    1.7061    3.9679 C.3       1 <0>         0.1083
      5 N1         -2.0205    1.8844    3.1232 N.pl3     1 <0>        -0.4644
      6 C5         -1.5612    1.0104    2.1833 C.2       1 <0>         0.2807
      7 N2         -0.4883    1.4857    1.6206 N.2       1 <0>        -0.4271
      8 C6         -0.1917    2.6915    2.1621 C.ar      1 <0>        -0.0672
      9 C7         -1.1743    2.9643    3.1290 C.ar      1 <0>         0.2934
     10 N3         -1.1058    4.0991    3.8171 N.ar      1 <0>        -0.5371
     11 C8         -0.1384    4.9631    3.5917 C.ar      1 <0>         0.3448
     12 N4          0.8037    4.7532    2.6906 N.ar      1 <0>        -0.5763
     13 C9          0.8206    3.6444    1.9580 C.ar      1 <0>         0.4493
     14 N5          1.8124    3.4331    1.0162 N.pl3     1 <0>        -0.7433
     15 C10        -2.2015   -0.3114    1.8455 C.3       1 <0>        -0.0005
     16 C11        -1.5175   -1.4120    2.6148 C.ar      1 <0>        -0.0355
     17 C12        -2.1259   -1.9532    3.7323 C.ar      1 <0>        -0.1862
     18 C13        -1.5001   -2.9658    4.4427 C.ar      1 <0>         0.1291
     19 C14        -0.2593   -3.4378    4.0303 C.ar      1 <0>         0.0604
     20 C15         0.3491   -2.8923    2.9067 C.ar      1 <0>         0.1278
     21 C16        -0.2857   -1.8822    2.1979 C.ar      1 <0>        -0.0682
     22 Cl1         0.4703   -1.2036    0.7902 Cl        1 <0>        -0.0189
     23 O1          1.5630   -3.3512    2.4990 O.3       1 <0>        -0.3192
     24 C17         1.5675   -4.4387    1.5720 C.3       1 <0>         0.0375
     25 O2          0.3577   -4.4321    4.7251 O.3       1 <0>        -0.3151
     26 C18         1.1914   -4.0395    5.8173 C.3       1 <0>         0.0374
     27 O3         -2.0996   -3.4972    5.5419 O.3       1 <0>        -0.2977
     28 C19        -3.3740   -2.9640    5.9073 C.3       1 <0>         0.0167
     29 H1         -3.0964   -0.5507    7.4350 H         1 <0>         0.0543
     30 H2         -2.9061    1.1081    8.0519 H         1 <0>         0.0571
     31 H3         -4.4732    0.2774    8.2012 H         1 <0>         0.0604
     32 H4         -4.5126    1.9257    6.3491 H         1 <0>         0.0699
     33 H5         -4.7029    0.2669    5.7322 H         1 <0>         0.0648
     34 H6         -2.2841    0.1904    5.1915 H         1 <0>         0.0695
     35 H7         -2.0938    1.8492    5.8084 H         1 <0>         0.0747
     36 H8         -3.8906    1.0080    3.4887 H         1 <0>         0.0962
     37 H9         -3.7003    2.6668    4.1056 H         1 <0>         0.0986
     38 H10        -0.1142    5.8777    4.1656 H         1 <0>         0.2047
     39 H11         2.3168    2.6003    1.2444 H         1 <0>         0.3696
     40 H12         2.5059    4.0984    0.8845 H         1 <0>         0.3728
     41 H13        -3.2576   -0.2826    2.1138 H         1 <0>         0.1021
     42 H14        -2.1033   -0.5000    0.7764 H         1 <0>         0.1234
     43 H15        -3.0899   -1.5862    4.0525 H         1 <0>         0.1448
     44 H16         1.1112   -4.1194    0.6351 H         1 <0>         0.0509
     45 H17         2.5943   -4.7542    1.3871 H         1 <0>         0.0998
     46 H18         1.0005   -5.2721    1.9868 H         1 <0>         0.0537
     47 H19         1.9501   -3.3418    5.4627 H         1 <0>         0.0494
     48 H20         0.5839   -3.5573    6.5831 H         1 <0>         0.0472
     49 H21         1.6762   -4.9199    6.2391 H         1 <0>         0.0971
     50 H22        -4.0784   -3.1127    5.0889 H         1 <0>         0.0603
     51 H23        -3.7395   -3.4744    6.7984 H         1 <0>         0.1062
     52 H24        -3.2763   -1.8981    6.1135 H         1 <0>         0.0607
@<TRIPOS>BOND
     1    1    2 1
     2    1   29 1
     3    1   30 1
     4    1   31 1
     5    2    3 1
     6    2   32 1
     7    2   33 1
     8    3    4 1
     9    3   34 1
    10    3   35 1
    11    4    5 1
    12    4   36 1
    13    4   37 1
    14    5    9 1
    15    5    6 1
    16    6    7 2
    17    6   15 1
    18    7    8 1
    19    8   13 ar
    20    8    9 ar
    21    9   10 ar
    22   10   11 ar
    23   11   12 ar
    24   11   38 1
    25   12   13 ar
    26   13   14 1
    27   14   39 1
    28   14   40 1
    29   15   16 1
    30   15   41 1
    31   15   42 1
    32   16   21 ar
    33   16   17 ar
    34   17   18 ar
    35   17   43 1
    36   18   19 ar
    37   18   27 1
    38   19   20 ar
    39   19   25 1
    40   20   21 ar
    41   20   23 1
    42   21   22 1
    43   23   24 1
    44   24   44 1
    45   24   45 1
    46   24   46 1
    47   25   26 1
    48   26   47 1
    49   26   48 1
    50   26   49 1
    51   27   28 1
    52   28   50 1
    53   28   51 1
    54   28   52 1
@<TRIPOS>MOLECULE
ZINC03833892
   60    62     0     0     0
SMALL
USER_CHARGES

@<TRIPOS>ATOM
      1 C1          0.6098   -4.9420    5.8033 C.3       1 <0>         0.0208
      2 O1          0.5048   -5.7719    4.6447 O.3       1 <0>        -0.2899
      3 C2          1.2039   -5.3863    3.5435 C.ar      1 <0>         0.1438
      4 C3          1.9789   -4.2370    3.5806 C.ar      1 <0>        -0.1773
      5 C4          2.6854   -3.8409    2.4605 C.ar      1 <0>        -0.0456
      6 C5          2.6314   -4.5949    1.3020 C.ar      1 <0>        -0.0731
      7 C6          1.8631   -5.7493    1.2592 C.ar      1 <0>         0.1351
      8 C7          1.1471   -6.1470    2.3819 C.ar      1 <0>         0.0761
      9 O2          0.3926   -7.2790    2.3440 O.3       1 <0>        -0.3119
     10 C8         -0.9753   -7.1343    1.9566 C.3       1 <0>         0.0398
     11 O3          1.8102   -6.4904    0.1198 O.3       1 <0>        -0.3243
     12 C9          2.7211   -7.5865    0.0161 C.3       1 <0>         0.0346
     13 Cl1         3.5264   -4.0965   -0.0995 Cl        1 <0>        -0.0663
     14 C10         3.5215   -2.5879    2.5034 C.3       1 <0>        -0.0392
     15 C11         2.7223   -1.4319    1.9593 C.2       1 <0>         0.4607
     16 N1          1.4958   -1.5426    1.5266 N.2       1 <0>        -0.5070
     17 C12         1.0591   -0.2379    1.0840 C.3       1 <0>        -0.0124
     18 H1          0.5657    0.2795    1.9068 H         1 <0>         0.1669
     19 C13         0.2398   -0.0790   -0.1765 C.3       1 <0>         0.1886
     20 H2         -0.7163   -0.5916   -0.0708 H         1 <0>         0.2577
     21 C14         1.2613    2.1577   -0.3729 C.3       1 <0>         0.1170
     22 C15         2.4214    0.4628    0.8041 C.3       1 <0>         0.1728
     23 H3          2.8055    0.1469   -0.1659 H         1 <0>         0.1397
     24 N2          3.2129   -0.1371    1.8645 N.pl3     1 <0>        -0.6274
     25 C16         4.2815    0.4821    2.6525 C.3       1 <0>         0.1184
     26 C17         5.6246    0.2591    1.9544 C.3       1 <0>        -0.1420
     27 C18         6.7406    0.9058    2.7773 C.3       1 <0>        -0.0009
     28 C19         8.0328    0.6913    2.1058 C.1       1 <0>        -0.2423
     29 C20         9.0634    0.5202    1.5701 C.1       1 <0>        -0.1443
     30 H4          0.2530   -3.9398    5.5659 H         1 <0>         0.0555
     31 H5          0.0053   -5.3620    6.6071 H         1 <0>         0.1164
     32 H6          1.6514   -4.8911    6.1206 H         1 <0>         0.0648
     33 H7          2.0270   -3.6481    4.4847 H         1 <0>         0.1474
     34 H8         -1.0269   -6.6683    0.9726 H         1 <0>         0.0482
     35 H9         -1.4481   -8.1157    1.9192 H         1 <0>         0.1071
     36 H10        -1.4943   -6.5085    2.6827 H         1 <0>         0.0500
     37 H11         2.6267   -8.0456   -0.9680 H         1 <0>         0.1083
     38 H12         3.7407   -7.2259    0.1524 H         1 <0>         0.0526
     39 H13         2.4909   -8.3243    0.7848 H         1 <0>         0.0641
     40 H14         4.4169   -2.7276    1.8978 H         1 <0>         0.1383
     41 H15         3.8088   -2.3779    3.5337 H         1 <0>         0.1374
     42 H16         1.7976    1.9210   -1.2918 H         1 <0>         0.2023
     43 H17         1.0096    3.2182   -0.3784 H         1 <0>         0.2422
     44 H18         4.0925    1.5517    2.7437 H         1 <0>         0.0970
     45 H19         4.3086    0.0320    3.6448 H         1 <0>         0.1271
     46 H20         5.8135   -0.8105    1.8632 H         1 <0>         0.0884
     47 H21         5.5974    0.7092    0.9620 H         1 <0>         0.0692
     48 H22         6.5517    1.9754    2.8685 H         1 <0>         0.0887
     49 H23         6.7677    0.4557    3.7697 H         1 <0>         0.0973
     50 H24         9.9851    0.3671    1.0911 H         1 <0>         0.2236
     51 H25         1.0555   -1.6153   -1.2777 H         1 <0>         0.4952
     52 H26         0.5391   -0.3299   -2.1979 H         1 <0>         0.4671
     53 N3         -0.0039    1.3919   -0.3373 N.4       1 <0>        -0.5425
     54 H27        -0.5707    1.7233    0.4522 H         1 <0>         0.4885
     55 H28        -0.5131    1.5506   -1.2146 H         1 <0>         0.4910
     56 N4          2.1428    1.8761    0.7738 N.4       1 <0>        -0.5195
     57 H29         1.6766    2.1555    1.6450 H         1 <0>         0.4637
     58 H30         3.0202    2.3995    0.6721 H         1 <0>         0.4861
     59 N5          0.9966   -0.5997   -1.3287 N.4       1 <0>        -0.6578
     60 H31         1.9456   -0.2079   -1.3140 H         1 <0>         0.4344
@<TRIPOS>BOND
     1    1    2 1
     2    1   30 1
     3    1   31 1
     4    1   32 1
     5    2    3 1
     6    3    8 ar
     7    3    4 ar
     8    4    5 ar
     9    4   33 1
    10    5    6 ar
    11    5   14 1
    12    6    7 ar
    13    6   13 1
    14    7    8 ar
    15    7   11 1
    16    8    9 1
    17    9   10 1
    18   10   34 1
    19   10   35 1
    20   10   36 1
    21   11   12 1
    22   12   37 1
    23   12   38 1
    24   12   39 1
    25   14   15 1
    26   14   40 1
    27   14   41 1
    28   15   24 1
    29   15   16 2
    30   16   17 1
    31   17   18 1
    32   17   22 1
    33   17   19 1
    34   19   20 1
    35   19   53 1
    36   19   59 1
    37   21   42 1
    38   21   43 1
    39   21   53 1
    40   21   56 1
    41   22   23 1
    42   22   24 1
    43   22   56 1
    44   24   25 1
    45   25   26 1
    46   25   44 1
    47   25   45 1
    48   26   27 1
    49   26   46 1
    50   26   47 1
    51   27   28 1
    52   27   48 1
    53   27   49 1
    54   28   29 3
    55   29   50 1
    56   51   59 1
    57   52   59 1
    58   53   54 1
    59   53   55 1
    60   56   57 1
    61   56   58 1
    62   59   60 1
@<TRIPOS>MOLECULE
ZINC03833893
   36    38     0     0     0
SMALL
USER_CHARGES

@<TRIPOS>ATOM
      1 C1          2.6473   -0.7346    5.9790 C.3       1 <0>         0.0275
      2 O1          1.4697    0.0743    6.0130 O.3       1 <0>        -0.3182
      3 C2          0.9368    0.4394    4.8163 C.ar      1 <0>         0.0886
      4 C3          1.5360    0.0264    3.6353 C.ar      1 <0>        -0.1597
      5 C4          0.9912    0.3921    2.4200 C.ar      1 <0>        -0.1704
      6 C5         -0.1485    1.1819    2.3803 C.ar      1 <0>         0.1264
      7 C6         -0.7474    1.5947    3.5610 C.ar      1 <0>        -0.0849
      8 C7         -0.2058    1.2242    4.7767 C.ar      1 <0>        -0.1035
      9 C8         -1.9889    2.4480    3.5179 C.3       1 <0>         0.0122
     10 C9         -3.2016    1.5639    3.3808 C.2       1 <0>         0.2964
     11 N1         -4.2726    1.5683    4.2250 N.pl3     1 <0>        -0.5740
     12 H1         -4.3878    2.1479    5.0317 H         1 <0>         0.4402
     13 C10        -5.1630    0.6317    3.7646 C.ar      1 <0>         0.3197
     14 C11        -4.5740    0.0662    2.6213 C.ar      1 <0>        -0.0723
     15 N2         -3.3788    0.6797    2.4428 N.2       1 <0>        -0.4239
     16 C12        -5.2781   -0.9411    1.9403 C.ar      1 <0>         0.4802
     17 N3         -6.4657   -1.3116    2.4078 N.ar      1 <0>        -0.5889
     18 C13        -6.9812   -0.7504    3.4889 C.ar      1 <0>         0.5472
     19 N4         -6.3559    0.1979    4.1591 N.ar      1 <0>        -0.5560
     20 F1         -8.1920   -1.1640    3.9228 F         1 <0>        -0.0708
     21 N5         -4.7472   -1.5337    0.8082 N.pl3     1 <0>        -0.7346
     22 O2         -0.6816    1.5467    1.1837 O.3       1 <0>        -0.2986
     23 C14        -0.0127    1.0858    0.0080 C.3       1 <0>         0.0288
     24 H2          2.4326   -1.6672    5.4572 H         1 <0>         0.0545
     25 H3          3.4403   -0.2000    5.4561 H         1 <0>         0.0552
     26 H4          2.9672   -0.9535    6.9978 H         1 <0>         0.1007
     27 H5          2.4261   -0.5844    3.6662 H         1 <0>         0.1312
     28 H6          1.4550    0.0666    1.5005 H         1 <0>         0.1332
     29 H7         -0.6725    1.5454    5.6962 H         1 <0>         0.1367
     30 H8         -2.0637    3.0273    4.4381 H         1 <0>         0.1005
     31 H9         -1.9348    3.1253    2.6655 H         1 <0>         0.1189
     32 H10        -4.5969   -0.8371    0.1066 H         1 <0>         0.3750
     33 H11        -5.2427   -2.2282    0.3465 H         1 <0>         0.3767
     34 H12         0.0021   -0.0041    0.0020 H         1 <0>         0.0550
     35 H13         1.0099    1.4631    0.0003 H         1 <0>         0.0515
     36 H14        -0.5399    1.4469   -0.8751 H         1 <0>         0.0995
@<TRIPOS>BOND
     1    1    2 1
     2    1   24 1
     3    1   25 1
     4    1   26 1
     5    2    3 1
     6    3    8 ar
     7    3    4 ar
     8    4    5 ar
     9    4   27 1
    10    5    6 ar
    11    5   28 1
    12    6    7 ar
    13    6   22 1
    14    7    8 ar
    15    7    9 1
    16    8   29 1
    17    9   10 1
    18    9   30 1
    19    9   31 1
    20   10   15 2
    21   10   11 1
    22   11   12 1
    23   11   13 1
    24   13   19 ar
    25   13   14 ar
    26   14   15 1
    27   14   16 ar
    28   16   17 ar
    29   16   21 1
    30   17   18 ar
    31   18   19 ar
    32   18   20 1
    33   21   32 1
    34   21   33 1
    35   22   23 1
    36   23   34 1
    37   23   35 1
    38   23   36 1
@<TRIPOS>MOLECULE
ZINC03833894
   47    49     0     0     0
SMALL
USER_CHARGES

@<TRIPOS>ATOM
      1 C1         -3.3282    8.1921    2.0706 C.3       1 <0>         0.0272
      2 O1         -2.9292    6.8475    1.7971 O.3       1 <0>        -0.3170
      3 C2         -2.9395    5.9760    2.8409 C.ar      1 <0>         0.0915
      4 C3         -3.3265    6.4078    4.1011 C.ar      1 <0>        -0.1606
      5 C4         -3.3429    5.5212    5.1600 C.ar      1 <0>        -0.1686
      6 C5         -2.9616    4.2016    4.9657 C.ar      1 <0>         0.1167
      7 C6         -2.5747    3.7700    3.7058 C.ar      1 <0>        -0.0895
      8 C7         -2.5638    4.6555    2.6455 C.ar      1 <0>        -0.1073
      9 C8         -2.1669    2.3349    3.4934 C.3       1 <0>         0.0103
     10 C9         -3.3987    1.4763    3.3650 C.2       1 <0>         0.2957
     11 N1         -4.0252    0.9161    4.3584 N.2       1 <0>        -0.4251
     12 C10        -5.0867    0.2184    3.8861 C.ar      1 <0>        -0.0733
     13 C11        -6.0947   -0.5646    4.4747 C.ar      1 <0>         0.4800
     14 N2         -7.0079   -1.1202    3.6856 N.ar      1 <0>        -0.5900
     15 C12        -6.9771   -0.9460    2.3745 C.ar      1 <0>         0.5449
     16 N3         -6.0509   -0.2198    1.7800 N.ar      1 <0>        -0.5529
     17 C13        -5.0966    0.3741    2.4902 C.ar      1 <0>         0.3181
     18 N4         -4.0247    1.1764    2.1913 N.pl3     1 <0>        -0.4607
     19 C14        -3.6241    1.6257    0.8557 C.3       1 <0>         0.1051
     20 C15        -2.7327    0.5649    0.2068 C.3       1 <0>        -0.1325
     21 C16        -2.2145    1.0858   -1.1353 C.3       1 <0>        -0.0064
     22 C17        -1.4535    0.0236   -1.8130 C.1       1 <0>        -0.1951
     23 C18        -0.8465   -0.8236   -2.3536 C.1       1 <0>        -0.1969
     24 F1         -7.9295   -1.5331    1.6173 F         1 <0>        -0.0720
     25 N5         -6.1351   -0.7525    5.8450 N.pl3     1 <0>        -0.7349
     26 O2         -2.9723    3.3301    6.0094 O.3       1 <0>        -0.2952
     27 C19        -3.5024    3.8073    7.2477 C.3       1 <0>         0.0300
     28 H1         -3.2747    8.7804    1.1546 H         1 <0>         0.1016
     29 H2         -4.3512    8.1981    2.4470 H         1 <0>         0.0545
     30 H3         -2.6632    8.6234    2.8188 H         1 <0>         0.0556
     31 H4         -3.6188    7.4362    4.2534 H         1 <0>         0.1321
     32 H5         -3.6488    5.8561    6.1401 H         1 <0>         0.1338
     33 H6         -2.2629    4.3193    1.6642 H         1 <0>         0.1372
     34 H7         -1.5731    2.2570    2.5826 H         1 <0>         0.0995
     35 H8         -1.5746    1.9959    4.3433 H         1 <0>         0.1226
     36 H9         -4.5120    1.7788    0.2423 H         1 <0>         0.1028
     37 H10        -3.0731    2.5626    0.9376 H         1 <0>         0.1037
     38 H11        -1.8894    0.3484    0.8626 H         1 <0>         0.0765
     39 H12        -3.3101   -0.3453    0.0448 H         1 <0>         0.0785
     40 H13        -3.0571    1.3837   -1.7592 H         1 <0>         0.0924
     41 H14        -1.5662    1.9454   -0.9656 H         1 <0>         0.0924
     42 H15        -0.3037   -1.5813   -2.8370 H         1 <0>         0.2179
     43 H16        -5.2895   -1.1934    6.1460 H         1 <0>         0.3748
     44 H17        -6.8356   -1.2950    6.2398 H         1 <0>         0.3763
     45 H18        -4.5118    4.1868    7.0886 H         1 <0>         0.0523
     46 H19        -2.8691    4.6081    7.6295 H         1 <0>         0.0518
     47 H20        -3.5308    2.9910    7.9694 H         1 <0>         0.1022
@<TRIPOS>BOND
     1    1    2 1
     2    1   28 1
     3    1   29 1
     4    1   30 1
     5    2    3 1
     6    3    8 ar
     7    3    4 ar
     8    4    5 ar
     9    4   31 1
    10    5    6 ar
    11    5   32 1
    12    6    7 ar
    13    6   26 1
    14    7    8 ar
    15    7    9 1
    16    8   33 1
    17    9   10 1
    18    9   34 1
    19    9   35 1
    20   10   18 1
    21   10   11 2
    22   11   12 1
    23   12   17 ar
    24   12   13 ar
    25   13   14 ar
    26   13   25 1
    27   14   15 ar
    28   15   16 ar
    29   15   24 1
    30   16   17 ar
    31   17   18 1
    32   18   19 1
    33   19   20 1
    34   19   36 1
    35   19   37 1
    36   20   21 1
    37   20   38 1
    38   20   39 1
    39   21   22 1
    40   21   40 1
    41   21   41 1
    42   22   23 3
    43   23   42 1
    44   25   43 1
    45   25   44 1
    46   26   27 1
    47   27   45 1
    48   27   46 1
    49   27   47 1
@<TRIPOS>MOLECULE
ZINC03833895
   43    46     0     0     0
SMALL
USER_CHARGES

@<TRIPOS>ATOM
      1 C1          4.0373   -3.0919   -2.7496 C.3       1 <0>        -0.1530
      2 C2          5.0017   -2.0030   -2.2752 C.3       1 <0>        -0.1208
      3 C3          4.3567   -0.6296   -2.4716 C.3       1 <0>        -0.1364
      4 C4          5.3211    0.4593   -1.9971 C.3       1 <0>         0.1040
      5 N1          4.7536    1.7771   -2.2932 N.pl3     1 <0>        -0.4598
      6 C5          4.0264    2.5529   -1.4394 C.2       1 <0>         0.2915
      7 N2          3.6853    3.6620   -2.0280 N.2       1 <0>        -0.4380
      8 C6          4.1655    3.6662   -3.2954 C.ar      1 <0>        -0.0729
      9 C7          4.8532    2.4554   -3.4815 C.ar      1 <0>         0.3208
     10 N3          5.4253    2.2108   -4.6562 N.ar      1 <0>        -0.5535
     11 C8          5.3505    3.0904   -5.6359 C.ar      1 <0>         0.5474
     12 N4          4.7145    4.2429   -5.5064 N.ar      1 <0>        -0.5891
     13 C9          4.1123    4.5719   -4.3683 C.ar      1 <0>         0.4813
     14 N5          3.4487    5.7797   -4.2425 N.pl3     1 <0>        -0.7347
     15 F1          5.9454    2.8041   -6.8146 F         1 <0>        -0.0709
     16 C10         3.6752    2.1830   -0.0213 C.3       1 <0>         0.0052
     17 C11         4.6842    2.7883    0.9203 C.ar      1 <0>        -0.0845
     18 C12         4.5268    4.0912    1.3553 C.ar      1 <0>        -0.0819
     19 C13         5.4502    4.6511    2.2183 C.ar      1 <0>        -0.0979
     20 C14         6.5361    3.9069    2.6500 C.ar      1 <0>         0.0381
     21 C15         6.6944    2.5943    2.2121 C.ar      1 <0>         0.0323
     22 C16         5.7650    2.0397    1.3472 C.ar      1 <0>        -0.0939
     23 O1          7.8313    2.0830    2.7682 O.3       1 <0>        -0.3078
     24 C17         8.5797    3.2205    3.2316 C.3       1 <0>         0.2131
     25 O2          7.5708    4.2161    3.4848 O.3       1 <0>        -0.3069
     26 H1          3.8130   -2.9435   -3.8059 H         1 <0>         0.0553
     27 H2          4.4968   -4.0703   -2.6097 H         1 <0>         0.0589
     28 H3          3.1150   -3.0376   -2.1712 H         1 <0>         0.0555
     29 H4          5.9240   -2.0573   -2.8535 H         1 <0>         0.0677
     30 H5          5.2260   -2.1514   -1.2188 H         1 <0>         0.0672
     31 H6          3.4344   -0.5752   -1.8932 H         1 <0>         0.0722
     32 H7          4.1324   -0.4812   -3.5279 H         1 <0>         0.0733
     33 H8          6.2748    0.3501   -2.5134 H         1 <0>         0.1002
     34 H9          5.4766    0.3639   -0.9225 H         1 <0>         0.1004
     35 H10         2.4863    5.6107   -4.0301 H         1 <0>         0.3752
     36 H11         3.4188    6.3968   -4.9903 H         1 <0>         0.3775
     37 H12         3.6849    1.0982    0.0842 H         1 <0>         0.1017
     38 H13         2.6818    2.5625    0.2177 H         1 <0>         0.1234
     39 H14         3.6809    4.6728    1.0198 H         1 <0>         0.1468
     40 H15         5.3248    5.6691    2.5565 H         1 <0>         0.1400
     41 H16         5.8852    1.0220    1.0060 H         1 <0>         0.1335
     42 H17         9.2688    3.5614    2.4589 H         1 <0>         0.0849
     43 H18         9.1206    2.9817    4.1473 H         1 <0>         0.1347
@<TRIPOS>BOND
     1    1    2 1
     2    1   26 1
     3    1   27 1
     4    1   28 1
     5    2    3 1
     6    2   29 1
     7    2   30 1
     8    3    4 1
     9    3   31 1
    10    3   32 1
    11    4    5 1
    12    4   33 1
    13    4   34 1
    14    5    9 1
    15    5    6 1
    16    6    7 2
    17    6   16 1
    18    7    8 1
    19    8   13 ar
    20    8    9 ar
    21    9   10 ar
    22   10   11 ar
    23   11   12 ar
    24   11   15 1
    25   12   13 ar
    26   13   14 1
    27   14   35 1
    28   14   36 1
    29   16   17 1
    30   16   37 1
    31   16   38 1
    32   17   22 ar
    33   17   18 ar
    34   18   19 ar
    35   18   39 1
    36   19   20 ar
    37   19   40 1
    38   20   25 1
    39   20   21 ar
    40   21   22 ar
    41   21   23 1
    42   22   41 1
    43   23   24 1
    44   24   25 1
    45   24   42 1
    46   24   43 1
@<TRIPOS>MOLECULE
ZINC04312704
   38    40     0     0     0
SMALL
USER_CHARGES

@<TRIPOS>ATOM
      1 C1          5.7039    5.0030   -1.3611 C.3       1 <0>        -0.0988
      2 C2          4.4325    4.7521   -0.5919 C.2       1 <0>         0.0987
      3 C3          3.3151    4.0401   -1.0628 C.2       1 <0>        -0.1758
      4 C4          2.3672    4.0416   -0.0479 C.2       1 <0>         0.1315
      5 N1          2.9017    4.7381    0.9950 N.2       1 <0>        -0.3130
      6 H1          4.8044    5.6987    1.1935 H         1 <0>         0.4482
      7 N2          4.1816    5.1642    0.6221 N.pl3     1 <0>        -0.4261
      8 C5          1.0338    3.4089   -0.0903 C.ar      1 <0>        -0.0435
      9 C6          0.7415    2.3337    0.7509 C.ar      1 <0>        -0.0627
     10 C7         -0.5042    1.7453    0.7082 C.ar      1 <0>        -0.1545
     11 C8         -1.4732    2.2225   -0.1659 C.ar      1 <0>         0.1301
     12 C9         -1.1900    3.2868   -1.0095 C.ar      1 <0>        -0.1766
     13 C10         0.0574    3.8852   -0.9751 C.ar      1 <0>         0.1545
     14 O1          0.3342    4.9311   -1.7963 O.3       1 <0>        -0.4832
     15 O2         -2.7007    1.6412   -0.1986 O.3       1 <0>        -0.4973
     16 C11         3.1748    3.4056   -2.3956 C.ar      1 <0>        -0.0307
     17 C12         3.0956    2.0179   -2.5038 C.ar      1 <0>        -0.0664
     18 C13         2.9594    1.4312   -3.7446 C.ar      1 <0>        -0.2076
     19 C14         2.9124    2.2200   -4.8857 C.ar      1 <0>         0.1244
     20 C15         2.9972    3.6017   -4.7820 C.ar      1 <0>        -0.1509
     21 C16         3.1278    4.1951   -3.5437 C.ar      1 <0>        -0.0550
     22 O3          2.7833    1.6384   -6.1074 O.3       1 <0>        -0.3192
     23 C17         2.7015    0.2122   -6.1414 C.3       1 <0>         0.0275
     24 H2          5.6128    5.9345   -1.9198 H         1 <0>         0.0843
     25 H3          6.5404    5.0765   -0.6662 H         1 <0>         0.0733
     26 H4          5.8780    4.1795   -2.0537 H         1 <0>         0.0891
     27 H5          1.4910    1.9629    1.4343 H         1 <0>         0.1330
     28 H6         -0.7295    0.9138    1.3595 H         1 <0>         0.1352
     29 H7         -1.9449    3.6514   -1.6904 H         1 <0>         0.1380
     30 H8          0.0549    5.7890   -1.4482 H         1 <0>         0.3908
     31 H9         -2.7723    0.9082   -0.8251 H         1 <0>         0.3943
     32 H10         3.1362    1.4032   -1.6166 H         1 <0>         0.1193
     33 H11         2.8938    0.3565   -3.8288 H         1 <0>         0.1257
     34 H12         2.9607    4.2127   -5.6718 H         1 <0>         0.1290
     35 H13         3.1938    5.2701   -3.4638 H         1 <0>         0.1253
     36 H14         3.6063   -0.2141   -5.7082 H         1 <0>         0.0550
     37 H15         1.8346   -0.1158   -5.5680 H         1 <0>         0.0546
     38 H16         2.6012   -0.1214   -7.1743 H         1 <0>         0.0995
@<TRIPOS>BOND
     1    1    2 1
     2    1   24 1
     3    1   25 1
     4    1   26 1
     5    2    3 2
     6    2    7 1
     7    3   16 1
     8    3    4 1
     9    4    8 1
    10    4    5 2
    11    5    7 1
    12    6    7 1
    13    8   13 ar
    14    8    9 ar
    15    9   10 ar
    16    9   27 1
    17   10   11 ar
    18   10   28 1
    19   11   12 ar
    20   11   15 1
    21   12   13 ar
    22   12   29 1
    23   13   14 1
    24   14   30 1
    25   15   31 1
    26   16   21 ar
    27   16   17 ar
    28   17   18 ar
    29   17   32 1
    30   18   19 ar
    31   18   33 1
    32   19   20 ar
    33   19   22 1
    34   20   21 ar
    35   20   34 1
    36   21   35 1
    37   22   23 1
    38   23   36 1
    39   23   37 1
    40   23   38 1
@<TRIPOS>MOLECULE
ZINC04312704
   38    40     0     0     0
SMALL
USER_CHARGES

@<TRIPOS>ATOM
      1 C1          5.7039    5.0030   -1.3611 C.3       1 <0>        -0.0988
      2 C2          4.4325    4.7521   -0.5919 C.2       1 <0>         0.0987
      3 C3          3.3151    4.0401   -1.0628 C.2       1 <0>        -0.1758
      4 C4          2.3672    4.0416   -0.0479 C.2       1 <0>         0.1315
      5 N1          2.9017    4.7381    0.9950 N.2       1 <0>        -0.3130
      6 H1          4.8044    5.6987    1.1935 H         1 <0>         0.4482
      7 N2          4.1816    5.1642    0.6221 N.pl3     1 <0>        -0.4261
      8 C5          1.0338    3.4089   -0.0903 C.ar      1 <0>        -0.0435
      9 C6          0.7415    2.3337    0.7509 C.ar      1 <0>        -0.0627
     10 C7         -0.5042    1.7453    0.7082 C.ar      1 <0>        -0.1545
     11 C8         -1.4732    2.2225   -0.1659 C.ar      1 <0>         0.1301
     12 C9         -1.1900    3.2868   -1.0095 C.ar      1 <0>        -0.1766
     13 C10         0.0574    3.8852   -0.9751 C.ar      1 <0>         0.1545
     14 O1          0.3342    4.9311   -1.7963 O.3       1 <0>        -0.4832
     15 O2         -2.7007    1.6412   -0.1986 O.3       1 <0>        -0.4973
     16 C11         3.1748    3.4056   -2.3956 C.ar      1 <0>        -0.0307
     17 C12         3.0956    2.0179   -2.5038 C.ar      1 <0>        -0.0664
     18 C13         2.9594    1.4312   -3.7446 C.ar      1 <0>        -0.2076
     19 C14         2.9124    2.2200   -4.8857 C.ar      1 <0>         0.1244
     20 C15         2.9972    3.6017   -4.7820 C.ar      1 <0>        -0.1509
     21 C16         3.1278    4.1951   -3.5437 C.ar      1 <0>        -0.0550
     22 O3          2.7833    1.6384   -6.1074 O.3       1 <0>        -0.3192
     23 C17         2.7015    0.2122   -6.1414 C.3       1 <0>         0.0275
     24 H2          5.6128    5.9345   -1.9198 H         1 <0>         0.0843
     25 H3          6.5404    5.0765   -0.6662 H         1 <0>         0.0733
     26 H4          5.8780    4.1795   -2.0537 H         1 <0>         0.0891
     27 H5          1.4910    1.9629    1.4343 H         1 <0>         0.1330
     28 H6         -0.7295    0.9138    1.3595 H         1 <0>         0.1352
     29 H7         -1.9449    3.6514   -1.6904 H         1 <0>         0.1380
     30 H8          0.0549    5.7890   -1.4482 H         1 <0>         0.3908
     31 H9         -2.7723    0.9082   -0.8251 H         1 <0>         0.3943
     32 H10         3.1362    1.4032   -1.6166 H         1 <0>         0.1193
     33 H11         2.8938    0.3565   -3.8288 H         1 <0>         0.1257
     34 H12         2.9607    4.2127   -5.6718 H         1 <0>         0.1290
     35 H13         3.1938    5.2701   -3.4638 H         1 <0>         0.1253
     36 H14         3.6063   -0.2141   -5.7082 H         1 <0>         0.0550
     37 H15         1.8346   -0.1158   -5.5680 H         1 <0>         0.0546
     38 H16         2.6012   -0.1214   -7.1743 H         1 <0>         0.0995
@<TRIPOS>BOND
     1    1    2 1
     2    1   24 1
     3    1   25 1
     4    1   26 1
     5    2    3 2
     6    2    7 1
     7    3   16 1
     8    3    4 1
     9    4    8 1
    10    4    5 2
    11    5    7 1
    12    6    7 1
    13    8   13 ar
    14    8    9 ar
    15    9   10 ar
    16    9   27 1
    17   10   11 ar
    18   10   28 1
    19   11   12 ar
    20   11   15 1
    21   12   13 ar
    22   12   29 1
    23   13   14 1
    24   14   30 1
    25   15   31 1
    26   16   21 ar
    27   16   17 ar
    28   17   18 ar
    29   17   32 1
    30   18   19 ar
    31   18   33 1
    32   19   20 ar
    33   19   22 1
    34   20   21 ar
    35   20   34 1
    36   21   35 1
    37   22   23 1
    38   23   36 1
    39   23   37 1
    40   23   38 1
@<TRIPOS>MOLECULE
ZINC04617886
   40    43     0     0     0
SMALL
USER_CHARGES

@<TRIPOS>ATOM
      1 C1         -0.2326    0.3086    6.1869 C.3       1 <0>        -0.0968
      2 C2         -0.0862    0.4536    4.6941 C.2       1 <0>         0.1091
      3 C3         -0.0588   -0.5636    3.7879 C.2       1 <0>        -0.1893
      4 C4          0.0962    0.0146    2.5028 C.2       1 <0>         0.1309
      5 N1          0.1476    1.3204    2.6524 N.2       1 <0>        -0.2535
      6 N2          0.0352    1.6141    4.0166 N.pl3     1 <0>        -0.4699
      7 H1          0.0435    2.5289    4.4204 H         1 <0>         0.4493
      8 C5          0.1791   -0.7210    1.2185 C.ar      1 <0>        -0.0362
      9 C6         -0.7354   -1.7333    0.9326 C.ar      1 <0>        -0.0503
     10 C7         -0.6556   -2.4167   -0.2635 C.ar      1 <0>        -0.0723
     11 C8          0.3350   -2.0983   -1.1849 C.ar      1 <0>         0.1436
     12 C9          1.2450   -1.0889   -0.9095 C.ar      1 <0>        -0.1631
     13 C10         1.1754   -0.4016    0.2905 C.ar      1 <0>         0.1563
     14 O1          2.0693    0.5845    0.5634 O.3       1 <0>        -0.4796
     15 O2          0.4092   -2.7750   -2.3611 O.3       1 <0>        -0.4840
     16 Cl1        -1.7956   -3.6769   -0.6184 Cl        1 <0>        -0.0488
     17 C11        -0.1680   -2.0121    4.0910 C.ar      1 <0>         0.0002
     18 C12         0.9189   -2.8556    3.8702 C.ar      1 <0>        -0.0976
     19 C13         0.8151   -4.2023    4.1521 C.ar      1 <0>        -0.1090
     20 C14        -0.3697   -4.7219    4.6549 C.ar      1 <0>         0.0516
     21 C15        -1.4568   -3.8840    4.8794 C.ar      1 <0>         0.0536
     22 C16        -1.3553   -2.5306    4.6024 C.ar      1 <0>        -0.1033
     23 O3         -2.6246   -4.3761    5.3766 O.3       1 <0>        -0.3072
     24 C17        -2.8136   -5.7928    5.2924 C.3       1 <0>         0.0202
     25 C18        -1.5252   -6.4780    5.7676 C.3       1 <0>         0.0204
     26 O4         -0.4530   -6.0552    4.9185 O.3       1 <0>        -0.3068
     27 H2         -1.2899    0.3244    6.4516 H         1 <0>         0.0850
     28 H3          0.2075   -0.6365    6.5051 H         1 <0>         0.0890
     29 H4          0.2787    1.1330    6.6840 H         1 <0>         0.0749
     30 H5         -1.5059   -1.9829    1.6470 H         1 <0>         0.1441
     31 H6          2.0109   -0.8414   -1.6296 H         1 <0>         0.1491
     32 H7          2.8666    0.2781    1.0168 H         1 <0>         0.3935
     33 H8         -0.1079   -2.3791   -3.0759 H         1 <0>         0.3975
     34 H9          1.8425   -2.4553    3.4789 H         1 <0>         0.1288
     35 H10         1.6587   -4.8545    3.9805 H         1 <0>         0.1356
     36 H11        -2.1978   -1.8784    4.7789 H         1 <0>         0.1332
     37 H12        -3.6456   -6.0913    5.9301 H         1 <0>         0.1227
     38 H13        -3.0218   -6.0752    4.2604 H         1 <0>         0.0786
     39 H14        -1.3140   -6.1898    6.7974 H         1 <0>         0.0780
     40 H15        -1.6395   -7.5601    5.7042 H         1 <0>         0.1226
@<TRIPOS>BOND
     1    1    2 1
     2    1   27 1
     3    1   28 1
     4    1   29 1
     5    2    6 1
     6    2    3 2
     7    3    4 1
     8    3   17 1
     9    4    5 2
    10    4    8 1
    11    5    6 1
    12    6    7 1
    13    8   13 ar
    14    8    9 ar
    15    9   10 ar
    16    9   30 1
    17   10   11 ar
    18   10   16 1
    19   11   12 ar
    20   11   15 1
    21   12   13 ar
    22   12   31 1
    23   13   14 1
    24   14   32 1
    25   15   33 1
    26   17   22 ar
    27   17   18 ar
    28   18   19 ar
    29   18   34 1
    30   19   20 ar
    31   19   35 1
    32   20   26 1
    33   20   21 ar
    34   21   22 ar
    35   21   23 1
    36   22   36 1
    37   23   24 1
    38   24   25 1
    39   24   37 1
    40   24   38 1
    41   25   26 1
    42   25   39 1
    43   25   40 1
@<TRIPOS>MOLECULE
ZINC04617886
   40    43     0     0     0
SMALL
USER_CHARGES

@<TRIPOS>ATOM
      1 C1         -0.2326    0.3086    6.1869 C.3       1 <0>        -0.0968
      2 C2         -0.0862    0.4536    4.6941 C.2       1 <0>         0.1091
      3 C3         -0.0588   -0.5636    3.7879 C.2       1 <0>        -0.1893
      4 C4          0.0962    0.0146    2.5028 C.2       1 <0>         0.1309
      5 N1          0.1476    1.3204    2.6524 N.2       1 <0>        -0.2535
      6 N2          0.0352    1.6141    4.0166 N.pl3     1 <0>        -0.4699
      7 H1          0.0435    2.5289    4.4204 H         1 <0>         0.4493
      8 C5          0.1791   -0.7210    1.2185 C.ar      1 <0>        -0.0362
      9 C6         -0.7354   -1.7333    0.9326 C.ar      1 <0>        -0.0503
     10 C7         -0.6556   -2.4167   -0.2635 C.ar      1 <0>        -0.0723
     11 C8          0.3350   -2.0983   -1.1849 C.ar      1 <0>         0.1436
     12 C9          1.2450   -1.0889   -0.9095 C.ar      1 <0>        -0.1631
     13 C10         1.1754   -0.4016    0.2905 C.ar      1 <0>         0.1563
     14 O1          2.0693    0.5845    0.5634 O.3       1 <0>        -0.4796
     15 O2          0.4092   -2.7750   -2.3611 O.3       1 <0>        -0.4840
     16 Cl1        -1.7956   -3.6769   -0.6184 Cl        1 <0>        -0.0488
     17 C11        -0.1680   -2.0121    4.0910 C.ar      1 <0>         0.0002
     18 C12         0.9189   -2.8556    3.8702 C.ar      1 <0>        -0.0976
     19 C13         0.8151   -4.2023    4.1521 C.ar      1 <0>        -0.1090
     20 C14        -0.3697   -4.7219    4.6549 C.ar      1 <0>         0.0516
     21 C15        -1.4568   -3.8840    4.8794 C.ar      1 <0>         0.0536
     22 C16        -1.3553   -2.5306    4.6024 C.ar      1 <0>        -0.1033
     23 O3         -2.6246   -4.3761    5.3766 O.3       1 <0>        -0.3072
     24 C17        -2.8136   -5.7928    5.2924 C.3       1 <0>         0.0202
     25 C18        -1.5252   -6.4780    5.7676 C.3       1 <0>         0.0204
     26 O4         -0.4530   -6.0552    4.9185 O.3       1 <0>        -0.3068
     27 H2         -1.2899    0.3244    6.4516 H         1 <0>         0.0850
     28 H3          0.2075   -0.6365    6.5051 H         1 <0>         0.0890
     29 H4          0.2787    1.1330    6.6840 H         1 <0>         0.0749
     30 H5         -1.5059   -1.9829    1.6470 H         1 <0>         0.1441
     31 H6          2.0109   -0.8414   -1.6296 H         1 <0>         0.1491
     32 H7          2.8666    0.2781    1.0168 H         1 <0>         0.3935
     33 H8         -0.1079   -2.3791   -3.0759 H         1 <0>         0.3975
     34 H9          1.8425   -2.4553    3.4789 H         1 <0>         0.1288
     35 H10         1.6587   -4.8545    3.9805 H         1 <0>         0.1356
     36 H11        -2.1978   -1.8784    4.7789 H         1 <0>         0.1332
     37 H12        -3.6456   -6.0913    5.9301 H         1 <0>         0.1227
     38 H13        -3.0218   -6.0752    4.2604 H         1 <0>         0.0786
     39 H14        -1.3140   -6.1898    6.7974 H         1 <0>         0.0780
     40 H15        -1.6395   -7.5601    5.7042 H         1 <0>         0.1226
@<TRIPOS>BOND
     1    1    2 1
     2    1   27 1
     3    1   28 1
     4    1   29 1
     5    2    6 1
     6    2    3 2
     7    3    4 1
     8    3   17 1
     9    4    5 2
    10    4    8 1
    11    5    6 1
    12    6    7 1
    13    8   13 ar
    14    8    9 ar
    15    9   10 ar
    16    9   30 1
    17   10   11 ar
    18   10   16 1
    19   11   12 ar
    20   11   15 1
    21   12   13 ar
    22   12   31 1
    23   13   14 1
    24   14   32 1
    25   15   33 1
    26   17   22 ar
    27   17   18 ar
    28   18   19 ar
    29   18   34 1
    30   19   20 ar
    31   19   35 1
    32   20   26 1
    33   20   21 ar
    34   21   22 ar
    35   21   23 1
    36   22   36 1
    37   23   24 1
    38   24   25 1
    39   24   37 1
    40   24   38 1
    41   25   26 1
    42   25   39 1
    43   25   40 1
@<TRIPOS>MOLECULE
ZINC04617887
   38    40     0     0     0
SMALL
USER_CHARGES

@<TRIPOS>ATOM
      1 C1          6.1448    1.0823   -0.4876 C.3       1 <0>        -0.0965
      2 C2          4.6680    0.9310   -0.2284 C.2       1 <0>         0.1071
      3 C3          3.7630    1.9446   -0.1279 C.2       1 <0>        -0.1845
      4 C4          2.4954    1.3608    0.1218 C.2       1 <0>         0.1379
      5 N1          2.6533    0.0555    0.1573 N.2       1 <0>        -0.2746
      6 N2          4.0060   -0.2326   -0.0598 N.pl3     1 <0>        -0.4682
      7 H1          4.4126   -1.1458   -0.0856 H         1 <0>         0.4488
      8 C5          1.2183    2.0911    0.3040 C.ar      1 <0>        -0.0439
      9 C6          1.1572    3.1890    1.1604 C.ar      1 <0>        -0.0291
     10 C7         -0.0328    3.8667    1.3285 C.ar      1 <0>        -0.1305
     11 C8         -1.1718    3.4577    0.6454 C.ar      1 <0>         0.1612
     12 C9         -1.1175    2.3691   -0.2120 C.ar      1 <0>        -0.1697
     13 C10         0.0713    1.6802   -0.3825 C.ar      1 <0>         0.1667
     14 O1          0.1248    0.6109   -1.2190 O.3       1 <0>        -0.4856
     15 O2         -2.3411    4.1292    0.8146 O.3       1 <0>        -0.4831
     16 Br1        -0.1140    5.3561    2.4908 Br        1 <0>        -0.0275
     17 C11         4.0519    3.3946   -0.2532 C.ar      1 <0>        -0.0426
     18 C12         3.5455    4.1167   -1.3322 C.ar      1 <0>        -0.0610
     19 C13         3.8119    5.4657   -1.4434 C.ar      1 <0>        -0.2044
     20 C14         4.5917    6.1016   -0.4874 C.ar      1 <0>         0.1288
     21 C15         5.1022    5.3839    0.5853 C.ar      1 <0>        -0.1484
     22 C16         4.8350    4.0359    0.7048 C.ar      1 <0>        -0.0716
     23 O3          4.8564    7.4298   -0.6022 O.3       1 <0>        -0.3174
     24 C17         4.2996    8.1071   -1.7306 C.3       1 <0>         0.0267
     25 H2          6.3282    1.0708   -1.5621 H         1 <0>         0.0841
     26 H3          6.4921    2.0272   -0.0699 H         1 <0>         0.0897
     27 H4          6.6824    0.2582   -0.0185 H         1 <0>         0.0745
     28 H5          2.0410    3.5094    1.6919 H         1 <0>         0.1444
     29 H6         -2.0037    2.0566   -0.7443 H         1 <0>         0.1485
     30 H7         -0.0695   -0.2339   -0.7904 H         1 <0>         0.4001
     31 H8         -2.4693    4.8586    0.1927 H         1 <0>         0.3984
     32 H9          2.9418    3.6217   -2.0783 H         1 <0>         0.1217
     33 H10         3.4163    6.0267   -2.2771 H         1 <0>         0.1278
     34 H11         5.7090    5.8814    1.3274 H         1 <0>         0.1317
     35 H12         5.2325    3.4779    1.5397 H         1 <0>         0.1284
     36 H13         4.6745    7.6534   -2.6480 H         1 <0>         0.0556
     37 H14         3.2129    8.0263   -1.7030 H         1 <0>         0.0560
     38 H15         4.5866    9.1582   -1.7014 H         1 <0>         0.1005
@<TRIPOS>BOND
     1    1    2 1
     2    1   25 1
     3    1   26 1
     4    1   27 1
     5    2    6 1
     6    2    3 2
     7    3    4 1
     8    3   17 1
     9    4    5 2
    10    4    8 1
    11    5    6 1
    12    6    7 1
    13    8   13 ar
    14    8    9 ar
    15    9   10 ar
    16    9   28 1
    17   10   11 ar
    18   10   16 1
    19   11   12 ar
    20   11   15 1
    21   12   13 ar
    22   12   29 1
    23   13   14 1
    24   14   30 1
    25   15   31 1
    26   17   22 ar
    27   17   18 ar
    28   18   19 ar
    29   18   32 1
    30   19   20 ar
    31   19   33 1
    32   20   21 ar
    33   20   23 1
    34   21   22 ar
    35   21   34 1
    36   22   35 1
    37   23   24 1
    38   24   36 1
    39   24   37 1
    40   24   38 1
@<TRIPOS>MOLECULE
ZINC04617887
   38    40     0     0     0
SMALL
USER_CHARGES

@<TRIPOS>ATOM
      1 C1          6.1448    1.0823   -0.4876 C.3       1 <0>        -0.0965
      2 C2          4.6680    0.9310   -0.2284 C.2       1 <0>         0.1071
      3 C3          3.7630    1.9446   -0.1279 C.2       1 <0>        -0.1845
      4 C4          2.4954    1.3608    0.1218 C.2       1 <0>         0.1379
      5 N1          2.6533    0.0555    0.1573 N.2       1 <0>        -0.2746
      6 N2          4.0060   -0.2326   -0.0598 N.pl3     1 <0>        -0.4682
      7 H1          4.4126   -1.1458   -0.0856 H         1 <0>         0.4488
      8 C5          1.2183    2.0911    0.3040 C.ar      1 <0>        -0.0439
      9 C6          1.1572    3.1890    1.1604 C.ar      1 <0>        -0.0291
     10 C7         -0.0328    3.8667    1.3285 C.ar      1 <0>        -0.1305
     11 C8         -1.1718    3.4577    0.6454 C.ar      1 <0>         0.1612
     12 C9         -1.1175    2.3691   -0.2120 C.ar      1 <0>        -0.1697
     13 C10         0.0713    1.6802   -0.3825 C.ar      1 <0>         0.1667
     14 O1          0.1248    0.6109   -1.2190 O.3       1 <0>        -0.4856
     15 O2         -2.3411    4.1292    0.8146 O.3       1 <0>        -0.4831
     16 Br1        -0.1140    5.3561    2.4908 Br        1 <0>        -0.0275
     17 C11         4.0519    3.3946   -0.2532 C.ar      1 <0>        -0.0426
     18 C12         3.5455    4.1167   -1.3322 C.ar      1 <0>        -0.0610
     19 C13         3.8119    5.4657   -1.4434 C.ar      1 <0>        -0.2044
     20 C14         4.5917    6.1016   -0.4874 C.ar      1 <0>         0.1288
     21 C15         5.1022    5.3839    0.5853 C.ar      1 <0>        -0.1484
     22 C16         4.8350    4.0359    0.7048 C.ar      1 <0>        -0.0716
     23 O3          4.8564    7.4298   -0.6022 O.3       1 <0>        -0.3174
     24 C17         4.2996    8.1071   -1.7306 C.3       1 <0>         0.0267
     25 H2          6.3282    1.0708   -1.5621 H         1 <0>         0.0841
     26 H3          6.4921    2.0272   -0.0699 H         1 <0>         0.0897
     27 H4          6.6824    0.2582   -0.0185 H         1 <0>         0.0745
     28 H5          2.0410    3.5094    1.6919 H         1 <0>         0.1444
     29 H6         -2.0037    2.0566   -0.7443 H         1 <0>         0.1485
     30 H7         -0.0695   -0.2339   -0.7904 H         1 <0>         0.4001
     31 H8         -2.4693    4.8586    0.1927 H         1 <0>         0.3984
     32 H9          2.9418    3.6217   -2.0783 H         1 <0>         0.1217
     33 H10         3.4163    6.0267   -2.2771 H         1 <0>         0.1278
     34 H11         5.7090    5.8814    1.3274 H         1 <0>         0.1317
     35 H12         5.2325    3.4779    1.5397 H         1 <0>         0.1284
     36 H13         4.6745    7.6534   -2.6480 H         1 <0>         0.0556
     37 H14         3.2129    8.0263   -1.7030 H         1 <0>         0.0560
     38 H15         4.5866    9.1582   -1.7014 H         1 <0>         0.1005
@<TRIPOS>BOND
     1    1    2 1
     2    1   25 1
     3    1   26 1
     4    1   27 1
     5    2    6 1
     6    2    3 2
     7    3    4 1
     8    3   17 1
     9    4    5 2
    10    4    8 1
    11    5    6 1
    12    6    7 1
    13    8   13 ar
    14    8    9 ar
    15    9   10 ar
    16    9   28 1
    17   10   11 ar
    18   10   16 1
    19   11   12 ar
    20   11   15 1
    21   12   13 ar
    22   12   29 1
    23   13   14 1
    24   14   30 1
    25   15   31 1
    26   17   22 ar
    27   17   18 ar
    28   18   19 ar
    29   18   32 1
    30   19   20 ar
    31   19   33 1
    32   20   21 ar
    33   20   23 1
    34   21   22 ar
    35   21   34 1
    36   22   35 1
    37   23   24 1
    38   24   36 1
    39   24   37 1
    40   24   38 1
@<TRIPOS>MOLECULE
ZINC04617888
   38    40     0     0     0
SMALL
USER_CHARGES

@<TRIPOS>ATOM
      1 C1          6.1448    1.0820   -0.4872 C.3       1 <0>        -0.0965
      2 C2          4.6679    0.9307   -0.2284 C.2       1 <0>         0.1070
      3 C3          3.7629    1.9444   -0.1279 C.2       1 <0>        -0.1844
      4 C4          2.4953    1.3607    0.1218 C.2       1 <0>         0.1377
      5 N1          2.6531    0.0554    0.1573 N.2       1 <0>        -0.2741
      6 N2          4.0058   -0.2327   -0.0598 N.pl3     1 <0>        -0.4681
      7 H1          4.4124   -1.1460   -0.0855 H         1 <0>         0.4488
      8 C5          1.2183    2.0911    0.3041 C.ar      1 <0>        -0.0368
      9 C6          1.1572    3.1891    1.1605 C.ar      1 <0>        -0.0496
     10 C7         -0.0329    3.8668    1.3286 C.ar      1 <0>        -0.0729
     11 C8         -1.1721    3.4574    0.6457 C.ar      1 <0>         0.1432
     12 C9         -1.1176    2.3692   -0.2120 C.ar      1 <0>        -0.1638
     13 C10         0.0713    1.6802   -0.3824 C.ar      1 <0>         0.1560
     14 O1          0.1248    0.6109   -1.2190 O.3       1 <0>        -0.4853
     15 O2         -2.3416    4.1284    0.8154 O.3       1 <0>        -0.4839
     16 Cl1        -0.1073    5.2345    2.3951 Cl        1 <0>        -0.0476
     17 C11         4.0519    3.3944   -0.2532 C.ar      1 <0>        -0.0423
     18 C12         3.5456    4.1165   -1.3323 C.ar      1 <0>        -0.0609
     19 C13         3.8120    5.4654   -1.4435 C.ar      1 <0>        -0.2045
     20 C14         4.5919    6.1014   -0.4876 C.ar      1 <0>         0.1284
     21 C15         5.1023    5.3837    0.5852 C.ar      1 <0>        -0.1487
     22 C16         4.8350    4.0357    0.7047 C.ar      1 <0>        -0.0716
     23 O3          4.8566    7.4296   -0.6024 O.3       1 <0>        -0.3176
     24 C17         4.2999    8.1069   -1.7308 C.3       1 <0>         0.0267
     25 H2          6.3285    1.0703   -1.5615 H         1 <0>         0.0841
     26 H3          6.4919    2.0270   -0.0695 H         1 <0>         0.0897
     27 H4          6.6822    0.2580   -0.0177 H         1 <0>         0.0745
     28 H5          2.0411    3.5094    1.6920 H         1 <0>         0.1451
     29 H6         -2.0037    2.0566   -0.7444 H         1 <0>         0.1489
     30 H7         -0.0695   -0.2339   -0.7904 H         1 <0>         0.3990
     31 H8         -2.4704    4.8579    0.1938 H         1 <0>         0.3972
     32 H9          2.9418    3.6214   -2.0784 H         1 <0>         0.1220
     33 H10         3.4165    6.0264   -2.2773 H         1 <0>         0.1279
     34 H11         5.7092    5.8812    1.3273 H         1 <0>         0.1317
     35 H12         5.2325    3.4777    1.5397 H         1 <0>         0.1285
     36 H13         4.6748    7.6531   -2.6483 H         1 <0>         0.0557
     37 H14         3.2132    8.0261   -1.7033 H         1 <0>         0.0559
     38 H15         4.5870    9.1580   -1.7017 H         1 <0>         0.1005
@<TRIPOS>BOND
     1    1    2 1
     2    1   25 1
     3    1   26 1
     4    1   27 1
     5    2    6 1
     6    2    3 2
     7    3    4 1
     8    3   17 1
     9    4    5 2
    10    4    8 1
    11    5    6 1
    12    6    7 1
    13    8   13 ar
    14    8    9 ar
    15    9   10 ar
    16    9   28 1
    17   10   11 ar
    18   10   16 1
    19   11   12 ar
    20   11   15 1
    21   12   13 ar
    22   12   29 1
    23   13   14 1
    24   14   30 1
    25   15   31 1
    26   17   22 ar
    27   17   18 ar
    28   18   19 ar
    29   18   32 1
    30   19   20 ar
    31   19   33 1
    32   20   21 ar
    33   20   23 1
    34   21   22 ar
    35   21   34 1
    36   22   35 1
    37   23   24 1
    38   24   36 1
    39   24   37 1
    40   24   38 1
@<TRIPOS>MOLECULE
ZINC04617888
   38    40     0     0     0
SMALL
USER_CHARGES

@<TRIPOS>ATOM
      1 C1          6.1448    1.0820   -0.4872 C.3       1 <0>        -0.0965
      2 C2          4.6679    0.9307   -0.2284 C.2       1 <0>         0.1070
      3 C3          3.7629    1.9444   -0.1279 C.2       1 <0>        -0.1844
      4 C4          2.4953    1.3607    0.1218 C.2       1 <0>         0.1377
      5 N1          2.6531    0.0554    0.1573 N.2       1 <0>        -0.2741
      6 N2          4.0058   -0.2327   -0.0598 N.pl3     1 <0>        -0.4681
      7 H1          4.4124   -1.1460   -0.0855 H         1 <0>         0.4488
      8 C5          1.2183    2.0911    0.3041 C.ar      1 <0>        -0.0368
      9 C6          1.1572    3.1891    1.1605 C.ar      1 <0>        -0.0496
     10 C7         -0.0329    3.8668    1.3286 C.ar      1 <0>        -0.0729
     11 C8         -1.1721    3.4574    0.6457 C.ar      1 <0>         0.1432
     12 C9         -1.1176    2.3692   -0.2120 C.ar      1 <0>        -0.1638
     13 C10         0.0713    1.6802   -0.3824 C.ar      1 <0>         0.1560
     14 O1          0.1248    0.6109   -1.2190 O.3       1 <0>        -0.4853
     15 O2         -2.3416    4.1284    0.8154 O.3       1 <0>        -0.4839
     16 Cl1        -0.1073    5.2345    2.3951 Cl        1 <0>        -0.0476
     17 C11         4.0519    3.3944   -0.2532 C.ar      1 <0>        -0.0423
     18 C12         3.5456    4.1165   -1.3323 C.ar      1 <0>        -0.0609
     19 C13         3.8120    5.4654   -1.4435 C.ar      1 <0>        -0.2045
     20 C14         4.5919    6.1014   -0.4876 C.ar      1 <0>         0.1284
     21 C15         5.1023    5.3837    0.5852 C.ar      1 <0>        -0.1487
     22 C16         4.8350    4.0357    0.7047 C.ar      1 <0>        -0.0716
     23 O3          4.8566    7.4296   -0.6024 O.3       1 <0>        -0.3176
     24 C17         4.2999    8.1069   -1.7308 C.3       1 <0>         0.0267
     25 H2          6.3285    1.0703   -1.5615 H         1 <0>         0.0841
     26 H3          6.4919    2.0270   -0.0695 H         1 <0>         0.0897
     27 H4          6.6822    0.2580   -0.0177 H         1 <0>         0.0745
     28 H5          2.0411    3.5094    1.6920 H         1 <0>         0.1451
     29 H6         -2.0037    2.0566   -0.7444 H         1 <0>         0.1489
     30 H7         -0.0695   -0.2339   -0.7904 H         1 <0>         0.3990
     31 H8         -2.4704    4.8579    0.1938 H         1 <0>         0.3972
     32 H9          2.9418    3.6214   -2.0784 H         1 <0>         0.1220
     33 H10         3.4165    6.0264   -2.2773 H         1 <0>         0.1279
     34 H11         5.7092    5.8812    1.3273 H         1 <0>         0.1317
     35 H12         5.2325    3.4777    1.5397 H         1 <0>         0.1285
     36 H13         4.6748    7.6531   -2.6483 H         1 <0>         0.0557
     37 H14         3.2132    8.0261   -1.7033 H         1 <0>         0.0559
     38 H15         4.5870    9.1580   -1.7017 H         1 <0>         0.1005
@<TRIPOS>BOND
     1    1    2 1
     2    1   25 1
     3    1   26 1
     4    1   27 1
     5    2    6 1
     6    2    3 2
     7    3    4 1
     8    3   17 1
     9    4    5 2
    10    4    8 1
    11    5    6 1
    12    6    7 1
    13    8   13 ar
    14    8    9 ar
    15    9   10 ar
    16    9   28 1
    17   10   11 ar
    18   10   16 1
    19   11   12 ar
    20   11   15 1
    21   12   13 ar
    22   12   29 1
    23   13   14 1
    24   14   30 1
    25   15   31 1
    26   17   22 ar
    27   17   18 ar
    28   18   19 ar
    29   18   32 1
    30   19   20 ar
    31   19   33 1
    32   20   21 ar
    33   20   23 1
    34   21   22 ar
    35   21   34 1
    36   22   35 1
    37   23   24 1
    38   24   36 1
    39   24   37 1
    40   24   38 1
@<TRIPOS>MOLECULE
ZINC04617889
   37    39     0     0     0
SMALL
USER_CHARGES

@<TRIPOS>ATOM
      1 C1          4.4586    8.0805   -1.7418 C.3       1 <0>         0.0297
      2 O1          4.9958    7.3918   -0.6109 O.3       1 <0>        -0.3213
      3 C2          4.6974    6.0717   -0.4938 C.ar      1 <0>         0.1165
      4 C3          5.1879    5.3434    0.5822 C.ar      1 <0>        -0.1484
      5 C4          4.8875    4.0035    0.7040 C.ar      1 <0>        -0.0392
      6 C5          4.0896    3.3791   -0.2556 C.ar      1 <0>        -0.0103
      7 C6          3.6033    4.1127   -1.3385 C.ar      1 <0>        -0.0663
      8 C7          3.9030    5.4535   -1.4507 C.ar      1 <0>        -0.2090
      9 C8          3.7648    1.9405   -0.1283 C.2       1 <0>        -0.1323
     10 C9          2.4964    1.3607    0.1267 C.2       1 <0>         0.0621
     11 N1          2.6568    0.0560    0.1542 N.2       1 <0>        -0.2847
     12 N2          3.8826   -0.2657   -0.0484 N.pl3     1 <0>        -0.3664
     13 H1          4.2327   -1.2022   -0.0701 H         1 <0>         0.4573
     14 C10         4.6409    0.8586   -0.2304 C.2       1 <0>         0.0274
     15 C11         6.0832    0.9153   -0.4879 C.2       1 <0>         0.5140
     16 O2          6.6334    1.9901   -0.6314 O.co2     1 <0>        -0.5941
     17 C12         1.2211    2.0916    0.3206 C.ar      1 <0>        -0.0037
     18 C13         1.1673    3.1870    1.1807 C.ar      1 <0>        -0.0577
     19 C14        -0.0210    3.8651    1.3596 C.ar      1 <0>        -0.0680
     20 C15        -1.1654    3.4589    0.6836 C.ar      1 <0>         0.1270
     21 C16        -1.1181    2.3733   -0.1777 C.ar      1 <0>        -0.1633
     22 C17         0.0689    1.6836   -0.3586 C.ar      1 <0>         0.1480
     23 O3          0.1153    0.6165   -1.1983 O.3       1 <0>        -0.4835
     24 O4         -2.3330    4.1309    0.8633 O.3       1 <0>        -0.4863
     25 Cl1        -0.0866    5.2293    2.4313 Cl        1 <0>        -0.0569
     26 H2          4.8236    7.6155   -2.6576 H         1 <0>         0.0530
     27 H3          3.3702    8.0275   -1.7162 H         1 <0>         0.0516
     28 H4          4.7722    9.1241   -1.7144 H         1 <0>         0.0937
     29 H5          5.8050    5.8274    1.3246 H         1 <0>         0.1260
     30 H6          5.2695    3.4377    1.5408 H         1 <0>         0.1242
     31 H7          2.9892    3.6316   -2.0854 H         1 <0>         0.1171
     32 H8          3.5233    6.0230   -2.2861 H         1 <0>         0.1215
     33 H9          2.0553    3.5050    1.7067 H         1 <0>         0.1451
     34 H10        -2.0082    2.0632   -0.7048 H         1 <0>         0.1440
     35 H11        -0.0767   -0.2292   -0.7706 H         1 <0>         0.3959
     36 H12        -2.4652    4.8621    0.2446 H         1 <0>         0.3917
     37 O5          6.7997   -0.2249   -0.5655 O.co2     1 <0>        -0.7544
@<TRIPOS>BOND
     1    1    2 1
     2    1   26 1
     3    1   27 1
     4    1   28 1
     5    2    3 1
     6    3    8 ar
     7    3    4 ar
     8    4    5 ar
     9    4   29 1
    10    5    6 ar
    11    5   30 1
    12    6    7 ar
    13    6    9 1
    14    7    8 ar
    15    7   31 1
    16    8   32 1
    17    9   14 2
    18    9   10 1
    19   10   11 2
    20   10   17 1
    21   11   12 1
    22   12   13 1
    23   12   14 1
    24   14   15 1
    25   15   16 2
    26   15   37 1
    27   17   22 ar
    28   17   18 ar
    29   18   19 ar
    30   18   33 1
    31   19   20 ar
    32   19   25 1
    33   20   21 ar
    34   20   24 1
    35   21   22 ar
    36   21   34 1
    37   22   23 1
    38   23   35 1
    39   24   36 1
@<TRIPOS>MOLECULE
ZINC04617889
   37    39     0     0     0
SMALL
USER_CHARGES

@<TRIPOS>ATOM
      1 C1          4.4586    8.0805   -1.7418 C.3       1 <0>         0.0297
      2 O1          4.9958    7.3918   -0.6109 O.3       1 <0>        -0.3213
      3 C2          4.6974    6.0717   -0.4938 C.ar      1 <0>         0.1165
      4 C3          5.1879    5.3434    0.5822 C.ar      1 <0>        -0.1484
      5 C4          4.8875    4.0035    0.7040 C.ar      1 <0>        -0.0392
      6 C5          4.0896    3.3791   -0.2556 C.ar      1 <0>        -0.0103
      7 C6          3.6033    4.1127   -1.3385 C.ar      1 <0>        -0.0663
      8 C7          3.9030    5.4535   -1.4507 C.ar      1 <0>        -0.2090
      9 C8          3.7648    1.9405   -0.1283 C.2       1 <0>        -0.1323
     10 C9          2.4964    1.3607    0.1267 C.2       1 <0>         0.0621
     11 N1          2.6568    0.0560    0.1542 N.2       1 <0>        -0.2847
     12 N2          3.8826   -0.2657   -0.0484 N.pl3     1 <0>        -0.3664
     13 H1          4.2327   -1.2022   -0.0701 H         1 <0>         0.4573
     14 C10         4.6409    0.8586   -0.2304 C.2       1 <0>         0.0274
     15 C11         6.0832    0.9153   -0.4879 C.2       1 <0>         0.5140
     16 O2          6.6334    1.9901   -0.6314 O.co2     1 <0>        -0.5941
     17 C12         1.2211    2.0916    0.3206 C.ar      1 <0>        -0.0037
     18 C13         1.1673    3.1870    1.1807 C.ar      1 <0>        -0.0577
     19 C14        -0.0210    3.8651    1.3596 C.ar      1 <0>        -0.0680
     20 C15        -1.1654    3.4589    0.6836 C.ar      1 <0>         0.1270
     21 C16        -1.1181    2.3733   -0.1777 C.ar      1 <0>        -0.1633
     22 C17         0.0689    1.6836   -0.3586 C.ar      1 <0>         0.1480
     23 O3          0.1153    0.6165   -1.1983 O.3       1 <0>        -0.4835
     24 O4         -2.3330    4.1309    0.8633 O.3       1 <0>        -0.4863
     25 Cl1        -0.0866    5.2293    2.4313 Cl        1 <0>        -0.0569
     26 H2          4.8236    7.6155   -2.6576 H         1 <0>         0.0530
     27 H3          3.3702    8.0275   -1.7162 H         1 <0>         0.0516
     28 H4          4.7722    9.1241   -1.7144 H         1 <0>         0.0937
     29 H5          5.8050    5.8274    1.3246 H         1 <0>         0.1260
     30 H6          5.2695    3.4377    1.5408 H         1 <0>         0.1242
     31 H7          2.9892    3.6316   -2.0854 H         1 <0>         0.1171
     32 H8          3.5233    6.0230   -2.2861 H         1 <0>         0.1215
     33 H9          2.0553    3.5050    1.7067 H         1 <0>         0.1451
     34 H10        -2.0082    2.0632   -0.7048 H         1 <0>         0.1440
     35 H11        -0.0767   -0.2292   -0.7706 H         1 <0>         0.3959
     36 H12        -2.4652    4.8621    0.2446 H         1 <0>         0.3917
     37 O5          6.7997   -0.2249   -0.5655 O.co2     1 <0>        -0.7544
@<TRIPOS>BOND
     1    1    2 1
     2    1   26 1
     3    1   27 1
     4    1   28 1
     5    2    3 1
     6    3    8 ar
     7    3    4 ar
     8    4    5 ar
     9    4   29 1
    10    5    6 ar
    11    5   30 1
    12    6    7 ar
    13    6    9 1
    14    7    8 ar
    15    7   31 1
    16    8   32 1
    17    9   14 2
    18    9   10 1
    19   10   11 2
    20   10   17 1
    21   11   12 1
    22   12   13 1
    23   12   14 1
    24   14   15 1
    25   15   16 2
    26   15   37 1
    27   17   22 ar
    28   17   18 ar
    29   18   19 ar
    30   18   33 1
    31   19   20 ar
    32   19   25 1
    33   20   21 ar
    34   20   24 1
    35   21   22 ar
    36   21   34 1
    37   22   23 1
    38   23   35 1
    39   24   36 1
@<TRIPOS>MOLECULE
ZINC04617890
   39    41     0     0     0
SMALL
USER_CHARGES

@<TRIPOS>ATOM
      1 C1          4.2742    8.1100   -1.7284 C.3       1 <0>         0.0267
      2 O1          4.8335    7.4339   -0.6005 O.3       1 <0>        -0.3169
      3 C2          4.5725    6.1056   -0.4860 C.ar      1 <0>         0.1350
      4 C3          5.0860    5.3888    0.5869 C.ar      1 <0>        -0.1491
      5 C4          4.8232    4.0408    0.7063 C.ar      1 <0>        -0.0420
      6 C5          4.0407    3.3966   -0.2527 C.ar      1 <0>        -0.0542
      7 C6          3.5317    4.1187   -1.3327 C.ar      1 <0>        -0.0549
      8 C7          3.7934    5.4677   -1.4424 C.ar      1 <0>        -0.2080
      9 C8          3.7563    1.9491   -0.1278 C.2       1 <0>        -0.0892
     10 C9          2.4976    1.3612    0.1341 C.2       1 <0>         0.1293
     11 N1          2.6481    0.0547    0.1665 N.2       1 <0>        -0.2392
     12 N2          3.9927   -0.2568   -0.0645 N.pl3     1 <0>        -0.4541
     13 H1          4.3849   -1.1762   -0.0939 H         1 <0>         0.4512
     14 C10         4.6782    0.9140   -0.2432 C.2       1 <0>         0.0361
     15 C11         6.1149    1.0514   -0.5116 C.2       1 <0>         0.5868
     16 O2          6.6047    2.1563   -0.6520 O.2       1 <0>        -0.4977
     17 N3          6.8915   -0.0464   -0.6025 N.am      1 <0>        -0.8494
     18 C12         1.2233    2.0925    0.3323 C.ar      1 <0>        -0.0420
     19 C13         1.1728    3.1882    1.1923 C.ar      1 <0>        -0.0473
     20 C14        -0.0146    3.8667    1.3752 C.ar      1 <0>        -0.0728
     21 C15        -1.1617    3.4604    0.7037 C.ar      1 <0>         0.1471
     22 C16        -1.1177    2.3745   -0.1575 C.ar      1 <0>        -0.1634
     23 C17         0.0685    1.6847   -0.3427 C.ar      1 <0>         0.1592
     24 O3          0.1118    0.6177   -1.1827 O.3       1 <0>        -0.4853
     25 O4         -2.3286    4.1322    0.8880 O.3       1 <0>        -0.4836
     26 Cl1        -0.0759    5.2316    2.4462 Cl        1 <0>        -0.0452
     27 H2          4.6498    7.6576   -2.6462 H         1 <0>         0.0557
     28 H3          3.1878    8.0264   -1.7002 H         1 <0>         0.0559
     29 H4          4.5585    9.1619   -1.6991 H         1 <0>         0.1001
     30 H5          5.6916    5.8880    1.3288 H         1 <0>         0.1314
     31 H6          5.2229    3.4840    1.5410 H         1 <0>         0.1243
     32 H7          2.9296    3.6223   -2.0794 H         1 <0>         0.1214
     33 H8          3.3957    6.0283   -2.2754 H         1 <0>         0.1283
     34 H9          6.5011   -0.9273   -0.4905 H         1 <0>         0.3973
     35 H10         7.8408    0.0444   -0.7798 H         1 <0>         0.4141
     36 H11         2.0628    3.5061    1.7150 H         1 <0>         0.1465
     37 H12        -2.0099    2.0643   -0.6811 H         1 <0>         0.1501
     38 H13        -0.0787   -0.2281   -0.7543 H         1 <0>         0.3995
     39 H14        -2.4633    4.8635    0.2698 H         1 <0>         0.3983
@<TRIPOS>BOND
     1    1    2 1
     2    1   27 1
     3    1   28 1
     4    1   29 1
     5    2    3 1
     6    3    8 ar
     7    3    4 ar
     8    4    5 ar
     9    4   30 1
    10    5    6 ar
    11    5   31 1
    12    6    7 ar
    13    6    9 1
    14    7    8 ar
    15    7   32 1
    16    8   33 1
    17    9   14 2
    18    9   10 1
    19   10   11 2
    20   10   18 1
    21   11   12 1
    22   12   13 1
    23   12   14 1
    24   14   15 1
    25   15   16 2
    26   15   17 am
    27   17   34 1
    28   17   35 1
    29   18   23 ar
    30   18   19 ar
    31   19   20 ar
    32   19   36 1
    33   20   21 ar
    34   20   26 1
    35   21   22 ar
    36   21   25 1
    37   22   23 ar
    38   22   37 1
    39   23   24 1
    40   24   38 1
    41   25   39 1
@<TRIPOS>MOLECULE
ZINC04617890
   39    41     0     0     0
SMALL
USER_CHARGES

@<TRIPOS>ATOM
      1 C1          4.2742    8.1100   -1.7284 C.3       1 <0>         0.0267
      2 O1          4.8335    7.4339   -0.6005 O.3       1 <0>        -0.3169
      3 C2          4.5725    6.1056   -0.4860 C.ar      1 <0>         0.1350
      4 C3          5.0860    5.3888    0.5869 C.ar      1 <0>        -0.1491
      5 C4          4.8232    4.0408    0.7063 C.ar      1 <0>        -0.0420
      6 C5          4.0407    3.3966   -0.2527 C.ar      1 <0>        -0.0542
      7 C6          3.5317    4.1187   -1.3327 C.ar      1 <0>        -0.0549
      8 C7          3.7934    5.4677   -1.4424 C.ar      1 <0>        -0.2080
      9 C8          3.7563    1.9491   -0.1278 C.2       1 <0>        -0.0892
     10 C9          2.4976    1.3612    0.1341 C.2       1 <0>         0.1293
     11 N1          2.6481    0.0547    0.1665 N.2       1 <0>        -0.2392
     12 N2          3.9927   -0.2568   -0.0645 N.pl3     1 <0>        -0.4541
     13 H1          4.3849   -1.1762   -0.0939 H         1 <0>         0.4512
     14 C10         4.6782    0.9140   -0.2432 C.2       1 <0>         0.0361
     15 C11         6.1149    1.0514   -0.5116 C.2       1 <0>         0.5868
     16 O2          6.6047    2.1563   -0.6520 O.2       1 <0>        -0.4977
     17 N3          6.8915   -0.0464   -0.6025 N.am      1 <0>        -0.8494
     18 C12         1.2233    2.0925    0.3323 C.ar      1 <0>        -0.0420
     19 C13         1.1728    3.1882    1.1923 C.ar      1 <0>        -0.0473
     20 C14        -0.0146    3.8667    1.3752 C.ar      1 <0>        -0.0728
     21 C15        -1.1617    3.4604    0.7037 C.ar      1 <0>         0.1471
     22 C16        -1.1177    2.3745   -0.1575 C.ar      1 <0>        -0.1634
     23 C17         0.0685    1.6847   -0.3427 C.ar      1 <0>         0.1592
     24 O3          0.1118    0.6177   -1.1827 O.3       1 <0>        -0.4853
     25 O4         -2.3286    4.1322    0.8880 O.3       1 <0>        -0.4836
     26 Cl1        -0.0759    5.2316    2.4462 Cl        1 <0>        -0.0452
     27 H2          4.6498    7.6576   -2.6462 H         1 <0>         0.0557
     28 H3          3.1878    8.0264   -1.7002 H         1 <0>         0.0559
     29 H4          4.5585    9.1619   -1.6991 H         1 <0>         0.1001
     30 H5          5.6916    5.8880    1.3288 H         1 <0>         0.1314
     31 H6          5.2229    3.4840    1.5410 H         1 <0>         0.1243
     32 H7          2.9296    3.6223   -2.0794 H         1 <0>         0.1214
     33 H8          3.3957    6.0283   -2.2754 H         1 <0>         0.1283
     34 H9          6.5011   -0.9273   -0.4905 H         1 <0>         0.3973
     35 H10         7.8408    0.0444   -0.7798 H         1 <0>         0.4141
     36 H11         2.0628    3.5061    1.7150 H         1 <0>         0.1465
     37 H12        -2.0099    2.0643   -0.6811 H         1 <0>         0.1501
     38 H13        -0.0787   -0.2281   -0.7543 H         1 <0>         0.3995
     39 H14        -2.4633    4.8635    0.2698 H         1 <0>         0.3983
@<TRIPOS>BOND
     1    1    2 1
     2    1   27 1
     3    1   28 1
     4    1   29 1
     5    2    3 1
     6    3    8 ar
     7    3    4 ar
     8    4    5 ar
     9    4   30 1
    10    5    6 ar
    11    5   31 1
    12    6    7 ar
    13    6    9 1
    14    7    8 ar
    15    7   32 1
    16    8   33 1
    17    9   14 2
    18    9   10 1
    19   10   11 2
    20   10   18 1
    21   11   12 1
    22   12   13 1
    23   12   14 1
    24   14   15 1
    25   15   16 2
    26   15   17 am
    27   17   34 1
    28   17   35 1
    29   18   23 ar
    30   18   19 ar
    31   19   20 ar
    32   19   36 1
    33   20   21 ar
    34   20   26 1
    35   21   22 ar
    36   21   25 1
    37   22   23 ar
    38   22   37 1
    39   23   24 1
    40   24   38 1
    41   25   39 1
@<TRIPOS>MOLECULE
ZINC04617891
   42    44     0     0     0
SMALL
USER_CHARGES

@<TRIPOS>ATOM
      1 C1          8.3250    0.0910   -0.8727 C.3       1 <0>         0.0874
      2 N1          6.8913   -0.0462   -0.6046 N.am      1 <0>        -0.7319
      3 C2          6.1148    1.0516   -0.5131 C.2       1 <0>         0.5802
      4 O1          6.6045    2.1566   -0.6532 O.2       1 <0>        -0.4939
      5 C3          4.6782    0.9141   -0.2444 C.2       1 <0>         0.0396
      6 C4          3.7563    1.9491   -0.1285 C.2       1 <0>        -0.0908
      7 C5          2.4976    1.3611    0.1336 C.2       1 <0>         0.1295
      8 N2          2.6481    0.0546    0.1655 N.2       1 <0>        -0.2399
      9 N3          3.9927   -0.2568   -0.0660 N.pl3     1 <0>        -0.4548
     10 H1          4.3849   -1.1762   -0.0959 H         1 <0>         0.4508
     11 C6          1.2234    2.0924    0.3323 C.ar      1 <0>        -0.0415
     12 C7          1.1731    3.1877    1.1927 C.ar      1 <0>        -0.0474
     13 C8         -0.0143    3.8662    1.3761 C.ar      1 <0>        -0.0726
     14 C9         -1.1615    3.4602    0.7047 C.ar      1 <0>         0.1468
     15 C10        -1.1176    2.3749   -0.1572 C.ar      1 <0>        -0.1634
     16 C11         0.0685    1.6849   -0.3426 C.ar      1 <0>         0.1590
     17 O2          0.1114    0.6178   -1.1826 O.3       1 <0>        -0.4853
     18 O3         -2.3283    4.1322    0.8892 O.3       1 <0>        -0.4836
     19 Cl1        -0.0754    5.2307    2.4477 Cl        1 <0>        -0.0454
     20 C12         4.0407    3.3967   -0.2528 C.ar      1 <0>        -0.0529
     21 C13         3.5314    4.1192   -1.3324 C.ar      1 <0>        -0.0551
     22 C14         3.7930    5.4683   -1.4417 C.ar      1 <0>        -0.2080
     23 C15         4.5724    6.1058   -0.4853 C.ar      1 <0>         0.1347
     24 C16         5.0861    5.3885    0.5873 C.ar      1 <0>        -0.1490
     25 C17         4.8234    4.0405    0.7063 C.ar      1 <0>        -0.0418
     26 O4          4.8334    7.4341   -0.5993 O.3       1 <0>        -0.3170
     27 C18         4.2738    8.1107   -1.7268 C.3       1 <0>         0.0268
     28 H2          8.4694    0.5960   -1.8278 H         1 <0>         0.0658
     29 H3          8.7888    0.6762   -0.0786 H         1 <0>         0.0663
     30 H4          8.7837   -0.8971   -0.9112 H         1 <0>         0.0805
     31 H5          6.5009   -0.9271   -0.4929 H         1 <0>         0.3972
     32 H6          2.0632    3.5055    1.7153 H         1 <0>         0.1464
     33 H7         -2.0098    2.0651   -0.6810 H         1 <0>         0.1500
     34 H8         -0.0792   -0.2279   -0.7542 H         1 <0>         0.3994
     35 H9         -2.4629    4.8635    0.2711 H         1 <0>         0.3982
     36 H10         2.9292    3.6231   -2.0792 H         1 <0>         0.1212
     37 H11         3.3952    6.0292   -2.2744 H         1 <0>         0.1281
     38 H12         5.6919    5.8875    1.3292 H         1 <0>         0.1311
     39 H13         5.2232    3.4834    1.5406 H         1 <0>         0.1239
     40 H14         4.6492    7.6586   -2.6449 H         1 <0>         0.0556
     41 H15         3.1874    8.0270   -1.6984 H         1 <0>         0.0558
     42 H16         4.5581    9.1625   -1.6972 H         1 <0>         0.1000
@<TRIPOS>BOND
     1    1    2 1
     2    1   28 1
     3    1   29 1
     4    1   30 1
     5    2    3 am
     6    2   31 1
     7    3    4 2
     8    3    5 1
     9    5    9 1
    10    5    6 2
    11    6    7 1
    12    6   20 1
    13    7    8 2
    14    7   11 1
    15    8    9 1
    16    9   10 1
    17   11   16 ar
    18   11   12 ar
    19   12   13 ar
    20   12   32 1
    21   13   14 ar
    22   13   19 1
    23   14   15 ar
    24   14   18 1
    25   15   16 ar
    26   15   33 1
    27   16   17 1
    28   17   34 1
    29   18   35 1
    30   20   25 ar
    31   20   21 ar
    32   21   22 ar
    33   21   36 1
    34   22   23 ar
    35   22   37 1
    36   23   24 ar
    37   23   26 1
    38   24   25 ar
    39   24   38 1
    40   25   39 1
    41   26   27 1
    42   27   40 1
    43   27   41 1
    44   27   42 1
@<TRIPOS>MOLECULE
ZINC04617891
   42    44     0     0     0
SMALL
USER_CHARGES

@<TRIPOS>ATOM
      1 C1          8.3250    0.0910   -0.8727 C.3       1 <0>         0.0874
      2 N1          6.8913   -0.0462   -0.6046 N.am      1 <0>        -0.7319
      3 C2          6.1148    1.0516   -0.5131 C.2       1 <0>         0.5802
      4 O1          6.6045    2.1566   -0.6532 O.2       1 <0>        -0.4939
      5 C3          4.6782    0.9141   -0.2444 C.2       1 <0>         0.0396
      6 C4          3.7563    1.9491   -0.1285 C.2       1 <0>        -0.0908
      7 C5          2.4976    1.3611    0.1336 C.2       1 <0>         0.1295
      8 N2          2.6481    0.0546    0.1655 N.2       1 <0>        -0.2399
      9 N3          3.9927   -0.2568   -0.0660 N.pl3     1 <0>        -0.4548
     10 H1          4.3849   -1.1762   -0.0959 H         1 <0>         0.4508
     11 C6          1.2234    2.0924    0.3323 C.ar      1 <0>        -0.0415
     12 C7          1.1731    3.1877    1.1927 C.ar      1 <0>        -0.0474
     13 C8         -0.0143    3.8662    1.3761 C.ar      1 <0>        -0.0726
     14 C9         -1.1615    3.4602    0.7047 C.ar      1 <0>         0.1468
     15 C10        -1.1176    2.3749   -0.1572 C.ar      1 <0>        -0.1634
     16 C11         0.0685    1.6849   -0.3426 C.ar      1 <0>         0.1590
     17 O2          0.1114    0.6178   -1.1826 O.3       1 <0>        -0.4853
     18 O3         -2.3283    4.1322    0.8892 O.3       1 <0>        -0.4836
     19 Cl1        -0.0754    5.2307    2.4477 Cl        1 <0>        -0.0454
     20 C12         4.0407    3.3967   -0.2528 C.ar      1 <0>        -0.0529
     21 C13         3.5314    4.1192   -1.3324 C.ar      1 <0>        -0.0551
     22 C14         3.7930    5.4683   -1.4417 C.ar      1 <0>        -0.2080
     23 C15         4.5724    6.1058   -0.4853 C.ar      1 <0>         0.1347
     24 C16         5.0861    5.3885    0.5873 C.ar      1 <0>        -0.1490
     25 C17         4.8234    4.0405    0.7063 C.ar      1 <0>        -0.0418
     26 O4          4.8334    7.4341   -0.5993 O.3       1 <0>        -0.3170
     27 C18         4.2738    8.1107   -1.7268 C.3       1 <0>         0.0268
     28 H2          8.4694    0.5960   -1.8278 H         1 <0>         0.0658
     29 H3          8.7888    0.6762   -0.0786 H         1 <0>         0.0663
     30 H4          8.7837   -0.8971   -0.9112 H         1 <0>         0.0805
     31 H5          6.5009   -0.9271   -0.4929 H         1 <0>         0.3972
     32 H6          2.0632    3.5055    1.7153 H         1 <0>         0.1464
     33 H7         -2.0098    2.0651   -0.6810 H         1 <0>         0.1500
     34 H8         -0.0792   -0.2279   -0.7542 H         1 <0>         0.3994
     35 H9         -2.4629    4.8635    0.2711 H         1 <0>         0.3982
     36 H10         2.9292    3.6231   -2.0792 H         1 <0>         0.1212
     37 H11         3.3952    6.0292   -2.2744 H         1 <0>         0.1281
     38 H12         5.6919    5.8875    1.3292 H         1 <0>         0.1311
     39 H13         5.2232    3.4834    1.5406 H         1 <0>         0.1239
     40 H14         4.6492    7.6586   -2.6449 H         1 <0>         0.0556
     41 H15         3.1874    8.0270   -1.6984 H         1 <0>         0.0558
     42 H16         4.5581    9.1625   -1.6972 H         1 <0>         0.1000
@<TRIPOS>BOND
     1    1    2 1
     2    1   28 1
     3    1   29 1
     4    1   30 1
     5    2    3 am
     6    2   31 1
     7    3    4 2
     8    3    5 1
     9    5    9 1
    10    5    6 2
    11    6    7 1
    12    6   20 1
    13    7    8 2
    14    7   11 1
    15    8    9 1
    16    9   10 1
    17   11   16 ar
    18   11   12 ar
    19   12   13 ar
    20   12   32 1
    21   13   14 ar
    22   13   19 1
    23   14   15 ar
    24   14   18 1
    25   15   16 ar
    26   15   33 1
    27   16   17 1
    28   17   34 1
    29   18   35 1
    30   20   25 ar
    31   20   21 ar
    32   21   22 ar
    33   21   36 1
    34   22   23 ar
    35   22   37 1
    36   23   24 ar
    37   23   26 1
    38   24   25 ar
    39   24   38 1
    40   25   39 1
    41   26   27 1
    42   27   40 1
    43   27   41 1
    44   27   42 1
@<TRIPOS>MOLECULE
ZINC04617892
   45    47     0     0     0
SMALL
USER_CHARGES

@<TRIPOS>ATOM
      1 C1          8.9693   -1.2964   -0.9211 C.3       1 <0>        -0.1676
      2 C2          8.3256    0.0906   -0.8677 C.3       1 <0>         0.1147
      3 N1          6.8917   -0.0464   -0.6004 N.am      1 <0>        -0.7282
      4 C3          6.1153    1.0515   -0.5096 C.2       1 <0>         0.5809
      5 O1          6.6052    2.1564   -0.6496 O.2       1 <0>        -0.4948
      6 C4          4.6785    0.9142   -0.2418 C.2       1 <0>         0.0404
      7 C5          3.7564    1.9493   -0.1278 C.2       1 <0>        -0.0913
      8 C6          2.4976    1.3615    0.1341 C.2       1 <0>         0.1295
      9 N2          2.6479    0.0549    0.1666 N.2       1 <0>        -0.2407
     10 N3          3.9927   -0.2566   -0.0636 N.pl3     1 <0>        -0.4549
     11 H1          4.3848   -1.1760   -0.0928 H         1 <0>         0.4505
     12 C7          1.2233    2.0929    0.3323 C.ar      1 <0>        -0.0485
     13 C8          1.1729    3.1885    1.1921 C.ar      1 <0>        -0.0269
     14 C9         -0.0143    3.8672    1.3751 C.ar      1 <0>        -0.1303
     15 C10        -1.1613    3.4611    0.7037 C.ar      1 <0>         0.1647
     16 C11        -1.1176    2.3751   -0.1574 C.ar      1 <0>        -0.1693
     17 C12         0.0685    1.6852   -0.3428 C.ar      1 <0>         0.1697
     18 O2          0.1115    0.6181   -1.1827 O.3       1 <0>        -0.4855
     19 O3         -2.3279    4.1333    0.8878 O.3       1 <0>        -0.4829
     20 Br1        -0.0808    5.3539    2.5417 Br        1 <0>        -0.0252
     21 C13         4.0406    3.3966   -0.2541 C.ar      1 <0>        -0.0529
     22 C14         3.5321    4.1174   -1.3353 C.ar      1 <0>        -0.0552
     23 C15         3.7952    5.4660   -1.4474 C.ar      1 <0>        -0.2079
     24 C16         4.5734    6.1052   -0.4911 C.ar      1 <0>         0.1350
     25 C17         5.0855    5.3899    0.5835 C.ar      1 <0>        -0.1487
     26 C18         4.8225    4.0421    0.7046 C.ar      1 <0>        -0.0416
     27 O4          4.8346    7.4333   -0.6073 O.3       1 <0>        -0.3169
     28 C19         4.2767    8.1078   -1.7368 C.3       1 <0>         0.0268
     29 H2          8.8243   -1.8012    0.0340 H         1 <0>         0.0630
     30 H3          8.5059   -1.8817   -1.7154 H         1 <0>         0.0628
     31 H4         10.0361   -1.1945   -1.1200 H         1 <0>         0.0790
     32 H5          8.4706    0.5954   -1.8229 H         1 <0>         0.0732
     33 H6          8.7890    0.6759   -0.0735 H         1 <0>         0.0737
     34 H7          6.5012   -0.9273   -0.4888 H         1 <0>         0.3955
     35 H8          2.0629    3.5064    1.7148 H         1 <0>         0.1456
     36 H9         -2.0100    2.0648   -0.6807 H         1 <0>         0.1496
     37 H10        -0.0790   -0.2276   -0.7542 H         1 <0>         0.4005
     38 H11        -2.4624    4.8644    0.2693 H         1 <0>         0.3994
     39 H12         2.9300    3.6202   -2.0814 H         1 <0>         0.1208
     40 H13         3.3991    6.0252   -2.2821 H         1 <0>         0.1279
     41 H14         5.6903    5.8901    1.3253 H         1 <0>         0.1311
     42 H15         5.2214    3.4864    1.5403 H         1 <0>         0.1238
     43 H16         4.5610    9.1597   -1.7087 H         1 <0>         0.0999
     44 H17         4.6532    7.6540   -2.6535 H         1 <0>         0.0555
     45 H18         3.1902    8.0243   -1.7096 H         1 <0>         0.0558
@<TRIPOS>BOND
     1    1    2 1
     2    1   29 1
     3    1   30 1
     4    1   31 1
     5    2    3 1
     6    2   32 1
     7    2   33 1
     8    3    4 am
     9    3   34 1
    10    4    5 2
    11    4    6 1
    12    6   10 1
    13    6    7 2
    14    7    8 1
    15    7   21 1
    16    8    9 2
    17    8   12 1
    18    9   10 1
    19   10   11 1
    20   12   17 ar
    21   12   13 ar
    22   13   14 ar
    23   13   35 1
    24   14   15 ar
    25   14   20 1
    26   15   16 ar
    27   15   19 1
    28   16   17 ar
    29   16   36 1
    30   17   18 1
    31   18   37 1
    32   19   38 1
    33   21   26 ar
    34   21   22 ar
    35   22   23 ar
    36   22   39 1
    37   23   24 ar
    38   23   40 1
    39   24   25 ar
    40   24   27 1
    41   25   26 ar
    42   25   41 1
    43   26   42 1
    44   27   28 1
    45   28   43 1
    46   28   44 1
    47   28   45 1
@<TRIPOS>MOLECULE
ZINC04617892
   45    47     0     0     0
SMALL
USER_CHARGES

@<TRIPOS>ATOM
      1 C1          8.9693   -1.2964   -0.9211 C.3       1 <0>        -0.1676
      2 C2          8.3256    0.0906   -0.8677 C.3       1 <0>         0.1147
      3 N1          6.8917   -0.0464   -0.6004 N.am      1 <0>        -0.7282
      4 C3          6.1153    1.0515   -0.5096 C.2       1 <0>         0.5809
      5 O1          6.6052    2.1564   -0.6496 O.2       1 <0>        -0.4948
      6 C4          4.6785    0.9142   -0.2418 C.2       1 <0>         0.0404
      7 C5          3.7564    1.9493   -0.1278 C.2       1 <0>        -0.0913
      8 C6          2.4976    1.3615    0.1341 C.2       1 <0>         0.1295
      9 N2          2.6479    0.0549    0.1666 N.2       1 <0>        -0.2407
     10 N3          3.9927   -0.2566   -0.0636 N.pl3     1 <0>        -0.4549
     11 H1          4.3848   -1.1760   -0.0928 H         1 <0>         0.4505
     12 C7          1.2233    2.0929    0.3323 C.ar      1 <0>        -0.0485
     13 C8          1.1729    3.1885    1.1921 C.ar      1 <0>        -0.0269
     14 C9         -0.0143    3.8672    1.3751 C.ar      1 <0>        -0.1303
     15 C10        -1.1613    3.4611    0.7037 C.ar      1 <0>         0.1647
     16 C11        -1.1176    2.3751   -0.1574 C.ar      1 <0>        -0.1693
     17 C12         0.0685    1.6852   -0.3428 C.ar      1 <0>         0.1697
     18 O2          0.1115    0.6181   -1.1827 O.3       1 <0>        -0.4855
     19 O3         -2.3279    4.1333    0.8878 O.3       1 <0>        -0.4829
     20 Br1        -0.0808    5.3539    2.5417 Br        1 <0>        -0.0252
     21 C13         4.0406    3.3966   -0.2541 C.ar      1 <0>        -0.0529
     22 C14         3.5321    4.1174   -1.3353 C.ar      1 <0>        -0.0552
     23 C15         3.7952    5.4660   -1.4474 C.ar      1 <0>        -0.2079
     24 C16         4.5734    6.1052   -0.4911 C.ar      1 <0>         0.1350
     25 C17         5.0855    5.3899    0.5835 C.ar      1 <0>        -0.1487
     26 C18         4.8225    4.0421    0.7046 C.ar      1 <0>        -0.0416
     27 O4          4.8346    7.4333   -0.6073 O.3       1 <0>        -0.3169
     28 C19         4.2767    8.1078   -1.7368 C.3       1 <0>         0.0268
     29 H2          8.8243   -1.8012    0.0340 H         1 <0>         0.0630
     30 H3          8.5059   -1.8817   -1.7154 H         1 <0>         0.0628
     31 H4         10.0361   -1.1945   -1.1200 H         1 <0>         0.0790
     32 H5          8.4706    0.5954   -1.8229 H         1 <0>         0.0732
     33 H6          8.7890    0.6759   -0.0735 H         1 <0>         0.0737
     34 H7          6.5012   -0.9273   -0.4888 H         1 <0>         0.3955
     35 H8          2.0629    3.5064    1.7148 H         1 <0>         0.1456
     36 H9         -2.0100    2.0648   -0.6807 H         1 <0>         0.1496
     37 H10        -0.0790   -0.2276   -0.7542 H         1 <0>         0.4005
     38 H11        -2.4624    4.8644    0.2693 H         1 <0>         0.3994
     39 H12         2.9300    3.6202   -2.0814 H         1 <0>         0.1208
     40 H13         3.3991    6.0252   -2.2821 H         1 <0>         0.1279
     41 H14         5.6903    5.8901    1.3253 H         1 <0>         0.1311
     42 H15         5.2214    3.4864    1.5403 H         1 <0>         0.1238
     43 H16         4.5610    9.1597   -1.7087 H         1 <0>         0.0999
     44 H17         4.6532    7.6540   -2.6535 H         1 <0>         0.0555
     45 H18         3.1902    8.0243   -1.7096 H         1 <0>         0.0558
@<TRIPOS>BOND
     1    1    2 1
     2    1   29 1
     3    1   30 1
     4    1   31 1
     5    2    3 1
     6    2   32 1
     7    2   33 1
     8    3    4 am
     9    3   34 1
    10    4    5 2
    11    4    6 1
    12    6   10 1
    13    6    7 2
    14    7    8 1
    15    7   21 1
    16    8    9 2
    17    8   12 1
    18    9   10 1
    19   10   11 1
    20   12   17 ar
    21   12   13 ar
    22   13   14 ar
    23   13   35 1
    24   14   15 ar
    25   14   20 1
    26   15   16 ar
    27   15   19 1
    28   16   17 ar
    29   16   36 1
    30   17   18 1
    31   18   37 1
    32   19   38 1
    33   21   26 ar
    34   21   22 ar
    35   22   23 ar
    36   22   39 1
    37   23   24 ar
    38   23   40 1
    39   24   25 ar
    40   24   27 1
    41   25   26 ar
    42   25   41 1
    43   26   42 1
    44   27   28 1
    45   28   43 1
    46   28   44 1
    47   28   45 1
@<TRIPOS>MOLECULE
ZINC04617893
   45    47     0     0     0
SMALL
USER_CHARGES

@<TRIPOS>ATOM
      1 C1          8.9688   -1.2959   -0.9267 C.3       1 <0>        -0.1676
      2 C2          8.3250    0.0910   -0.8727 C.3       1 <0>         0.1147
      3 N1          6.8913   -0.0462   -0.6046 N.am      1 <0>        -0.7282
      4 C3          6.1148    1.0516   -0.5131 C.2       1 <0>         0.5809
      5 O1          6.6045    2.1566   -0.6532 O.2       1 <0>        -0.4949
      6 C4          4.6782    0.9141   -0.2444 C.2       1 <0>         0.0403
      7 C5          3.7563    1.9491   -0.1285 C.2       1 <0>        -0.0912
      8 C6          2.4976    1.3611    0.1336 C.2       1 <0>         0.1295
      9 N2          2.6481    0.0546    0.1655 N.2       1 <0>        -0.2401
     10 N3          3.9927   -0.2568   -0.0660 N.pl3     1 <0>        -0.4549
     11 H1          4.3849   -1.1762   -0.0959 H         1 <0>         0.4505
     12 C7          1.2234    2.0924    0.3323 C.ar      1 <0>        -0.0414
     13 C8          1.1731    3.1877    1.1927 C.ar      1 <0>        -0.0474
     14 C9         -0.0143    3.8662    1.3761 C.ar      1 <0>        -0.0727
     15 C10        -1.1615    3.4602    0.7047 C.ar      1 <0>         0.1468
     16 C11        -1.1176    2.3749   -0.1572 C.ar      1 <0>        -0.1634
     17 C12         0.0685    1.6849   -0.3426 C.ar      1 <0>         0.1590
     18 O2          0.1114    0.6178   -1.1826 O.3       1 <0>        -0.4853
     19 O3         -2.3283    4.1322    0.8892 O.3       1 <0>        -0.4837
     20 Cl1        -0.0754    5.2307    2.4477 Cl        1 <0>        -0.0454
     21 C13         4.0407    3.3967   -0.2528 C.ar      1 <0>        -0.0525
     22 C14         3.5314    4.1192   -1.3324 C.ar      1 <0>        -0.0551
     23 C15         3.7930    5.4683   -1.4417 C.ar      1 <0>        -0.2080
     24 C16         4.5724    6.1058   -0.4853 C.ar      1 <0>         0.1346
     25 C17         5.0861    5.3885    0.5873 C.ar      1 <0>        -0.1490
     26 C18         4.8234    4.0405    0.7063 C.ar      1 <0>        -0.0416
     27 O4          4.8334    7.4341   -0.5993 O.3       1 <0>        -0.3171
     28 C19         4.2738    8.1107   -1.7268 C.3       1 <0>         0.0268
     29 H2          8.8245   -1.8009    0.0285 H         1 <0>         0.0630
     30 H3          8.5050   -1.8811   -1.7208 H         1 <0>         0.0628
     31 H4         10.0355   -1.1939   -1.1262 H         1 <0>         0.0790
     32 H5          8.4694    0.5960   -1.8278 H         1 <0>         0.0732
     33 H6          8.7888    0.6762   -0.0786 H         1 <0>         0.0737
     34 H7          6.5009   -0.9271   -0.4929 H         1 <0>         0.3955
     35 H8          2.0632    3.5055    1.7153 H         1 <0>         0.1464
     36 H9         -2.0098    2.0651   -0.6810 H         1 <0>         0.1500
     37 H10        -0.0792   -0.2279   -0.7542 H         1 <0>         0.3994
     38 H11        -2.4629    4.8635    0.2711 H         1 <0>         0.3982
     39 H12         2.9292    3.6231   -2.0792 H         1 <0>         0.1211
     40 H13         3.3952    6.0292   -2.2744 H         1 <0>         0.1280
     41 H14         5.6919    5.8875    1.3292 H         1 <0>         0.1310
     42 H15         5.2232    3.4834    1.5406 H         1 <0>         0.1238
     43 H16         4.5581    9.1625   -1.6972 H         1 <0>         0.1000
     44 H17         4.6492    7.6586   -2.6449 H         1 <0>         0.0556
     45 H18         3.1874    8.0270   -1.6984 H         1 <0>         0.0558
@<TRIPOS>BOND
     1    1    2 1
     2    1   29 1
     3    1   30 1
     4    1   31 1
     5    2    3 1
     6    2   32 1
     7    2   33 1
     8    3    4 am
     9    3   34 1
    10    4    5 2
    11    4    6 1
    12    6   10 1
    13    6    7 2
    14    7    8 1
    15    7   21 1
    16    8    9 2
    17    8   12 1
    18    9   10 1
    19   10   11 1
    20   12   17 ar
    21   12   13 ar
    22   13   14 ar
    23   13   35 1
    24   14   15 ar
    25   14   20 1
    26   15   16 ar
    27   15   19 1
    28   16   17 ar
    29   16   36 1
    30   17   18 1
    31   18   37 1
    32   19   38 1
    33   21   26 ar
    34   21   22 ar
    35   22   23 ar
    36   22   39 1
    37   23   24 ar
    38   23   40 1
    39   24   25 ar
    40   24   27 1
    41   25   26 ar
    42   25   41 1
    43   26   42 1
    44   27   28 1
    45   28   43 1
    46   28   44 1
    47   28   45 1
@<TRIPOS>MOLECULE
ZINC04617893
   45    47     0     0     0
SMALL
USER_CHARGES

@<TRIPOS>ATOM
      1 C1          8.9688   -1.2959   -0.9267 C.3       1 <0>        -0.1676
      2 C2          8.3250    0.0910   -0.8727 C.3       1 <0>         0.1147
      3 N1          6.8913   -0.0462   -0.6046 N.am      1 <0>        -0.7282
      4 C3          6.1148    1.0516   -0.5131 C.2       1 <0>         0.5809
      5 O1          6.6045    2.1566   -0.6532 O.2       1 <0>        -0.4949
      6 C4          4.6782    0.9141   -0.2444 C.2       1 <0>         0.0403
      7 C5          3.7563    1.9491   -0.1285 C.2       1 <0>        -0.0912
      8 C6          2.4976    1.3611    0.1336 C.2       1 <0>         0.1295
      9 N2          2.6481    0.0546    0.1655 N.2       1 <0>        -0.2401
     10 N3          3.9927   -0.2568   -0.0660 N.pl3     1 <0>        -0.4549
     11 H1          4.3849   -1.1762   -0.0959 H         1 <0>         0.4505
     12 C7          1.2234    2.0924    0.3323 C.ar      1 <0>        -0.0414
     13 C8          1.1731    3.1877    1.1927 C.ar      1 <0>        -0.0474
     14 C9         -0.0143    3.8662    1.3761 C.ar      1 <0>        -0.0727
     15 C10        -1.1615    3.4602    0.7047 C.ar      1 <0>         0.1468
     16 C11        -1.1176    2.3749   -0.1572 C.ar      1 <0>        -0.1634
     17 C12         0.0685    1.6849   -0.3426 C.ar      1 <0>         0.1590
     18 O2          0.1114    0.6178   -1.1826 O.3       1 <0>        -0.4853
     19 O3         -2.3283    4.1322    0.8892 O.3       1 <0>        -0.4837
     20 Cl1        -0.0754    5.2307    2.4477 Cl        1 <0>        -0.0454
     21 C13         4.0407    3.3967   -0.2528 C.ar      1 <0>        -0.0525
     22 C14         3.5314    4.1192   -1.3324 C.ar      1 <0>        -0.0551
     23 C15         3.7930    5.4683   -1.4417 C.ar      1 <0>        -0.2080
     24 C16         4.5724    6.1058   -0.4853 C.ar      1 <0>         0.1346
     25 C17         5.0861    5.3885    0.5873 C.ar      1 <0>        -0.1490
     26 C18         4.8234    4.0405    0.7063 C.ar      1 <0>        -0.0416
     27 O4          4.8334    7.4341   -0.5993 O.3       1 <0>        -0.3171
     28 C19         4.2738    8.1107   -1.7268 C.3       1 <0>         0.0268
     29 H2          8.8245   -1.8009    0.0285 H         1 <0>         0.0630
     30 H3          8.5050   -1.8811   -1.7208 H         1 <0>         0.0628
     31 H4         10.0355   -1.1939   -1.1262 H         1 <0>         0.0790
     32 H5          8.4694    0.5960   -1.8278 H         1 <0>         0.0732
     33 H6          8.7888    0.6762   -0.0786 H         1 <0>         0.0737
     34 H7          6.5009   -0.9271   -0.4929 H         1 <0>         0.3955
     35 H8          2.0632    3.5055    1.7153 H         1 <0>         0.1464
     36 H9         -2.0098    2.0651   -0.6810 H         1 <0>         0.1500
     37 H10        -0.0792   -0.2279   -0.7542 H         1 <0>         0.3994
     38 H11        -2.4629    4.8635    0.2711 H         1 <0>         0.3982
     39 H12         2.9292    3.6231   -2.0792 H         1 <0>         0.1211
     40 H13         3.3952    6.0292   -2.2744 H         1 <0>         0.1280
     41 H14         5.6919    5.8875    1.3292 H         1 <0>         0.1310
     42 H15         5.2232    3.4834    1.5406 H         1 <0>         0.1238
     43 H16         4.5581    9.1625   -1.6972 H         1 <0>         0.1000
     44 H17         4.6492    7.6586   -2.6449 H         1 <0>         0.0556
     45 H18         3.1874    8.0270   -1.6984 H         1 <0>         0.0558
@<TRIPOS>BOND
     1    1    2 1
     2    1   29 1
     3    1   30 1
     4    1   31 1
     5    2    3 1
     6    2   32 1
     7    2   33 1
     8    3    4 am
     9    3   34 1
    10    4    5 2
    11    4    6 1
    12    6   10 1
    13    6    7 2
    14    7    8 1
    15    7   21 1
    16    8    9 2
    17    8   12 1
    18    9   10 1
    19   10   11 1
    20   12   17 ar
    21   12   13 ar
    22   13   14 ar
    23   13   35 1
    24   14   15 ar
    25   14   20 1
    26   15   16 ar
    27   15   19 1
    28   16   17 ar
    29   16   36 1
    30   17   18 1
    31   18   37 1
    32   19   38 1
    33   21   26 ar
    34   21   22 ar
    35   22   23 ar
    36   22   39 1
    37   23   24 ar
    38   23   40 1
    39   24   25 ar
    40   24   27 1
    41   25   26 ar
    42   25   41 1
    43   26   42 1
    44   27   28 1
    45   28   43 1
    46   28   44 1
    47   28   45 1
@<TRIPOS>MOLECULE
ZINC04617894
   48    50     0     0     0
SMALL
USER_CHARGES

@<TRIPOS>ATOM
      1 C1          9.0647   -1.1341   -0.3313 C.3       1 <0>        -0.1628
      2 C2          8.3250    0.0910   -0.8727 C.3       1 <0>         0.1381
      3 C3          8.5536    0.1990   -2.3817 C.3       1 <0>        -0.1659
      4 N1          6.8913   -0.0462   -0.6046 N.am      1 <0>        -0.7238
      5 C4          6.1148    1.0516   -0.5131 C.2       1 <0>         0.5828
      6 O1          6.6045    2.1566   -0.6532 O.2       1 <0>        -0.4949
      7 C5          4.6782    0.9141   -0.2444 C.2       1 <0>         0.0404
      8 C6          3.7563    1.9491   -0.1285 C.2       1 <0>        -0.0916
      9 C7          2.4976    1.3611    0.1336 C.2       1 <0>         0.1293
     10 N2          2.6481    0.0546    0.1655 N.2       1 <0>        -0.2404
     11 N3          3.9927   -0.2568   -0.0660 N.pl3     1 <0>        -0.4548
     12 H1          4.3849   -1.1762   -0.0959 H         1 <0>         0.4505
     13 C8          1.2234    2.0924    0.3323 C.ar      1 <0>        -0.0413
     14 C9          1.1731    3.1877    1.1927 C.ar      1 <0>        -0.0474
     15 C10        -0.0143    3.8662    1.3761 C.ar      1 <0>        -0.0726
     16 C11        -1.1615    3.4602    0.7047 C.ar      1 <0>         0.1467
     17 C12        -1.1176    2.3749   -0.1572 C.ar      1 <0>        -0.1635
     18 C13         0.0685    1.6849   -0.3426 C.ar      1 <0>         0.1589
     19 O2          0.1114    0.6178   -1.1826 O.3       1 <0>        -0.4853
     20 O3         -2.3283    4.1322    0.8892 O.3       1 <0>        -0.4837
     21 Cl1        -0.0754    5.2307    2.4477 Cl        1 <0>        -0.0455
     22 C14         4.0407    3.3967   -0.2528 C.ar      1 <0>        -0.0520
     23 C15         3.5314    4.1192   -1.3324 C.ar      1 <0>        -0.0552
     24 C16         3.7930    5.4683   -1.4417 C.ar      1 <0>        -0.2079
     25 C17         4.5724    6.1058   -0.4853 C.ar      1 <0>         0.1345
     26 C18         5.0861    5.3885    0.5873 C.ar      1 <0>        -0.1490
     27 C19         4.8234    4.0405    0.7063 C.ar      1 <0>        -0.0415
     28 O4          4.8334    7.4341   -0.5993 O.3       1 <0>        -0.3171
     29 C20         4.2738    8.1107   -1.7268 C.3       1 <0>         0.0268
     30 H2          8.6877   -2.0319   -0.8211 H         1 <0>         0.0617
     31 H3         10.1314   -1.0320   -0.5308 H         1 <0>         0.0773
     32 H4          8.9018   -1.2110    0.7437 H         1 <0>         0.0631
     33 H5          8.7020    0.9888   -0.3829 H         1 <0>         0.0939
     34 H6          8.0267    1.0718   -2.7674 H         1 <0>         0.0624
     35 H7          9.6203    0.3011   -2.5812 H         1 <0>         0.0697
     36 H8          8.1767   -0.6988   -2.8715 H         1 <0>         0.0572
     37 H9          6.5009   -0.9271   -0.4929 H         1 <0>         0.3944
     38 H10         2.0632    3.5055    1.7153 H         1 <0>         0.1463
     39 H11        -2.0098    2.0651   -0.6810 H         1 <0>         0.1499
     40 H12        -0.0792   -0.2279   -0.7542 H         1 <0>         0.3994
     41 H13        -2.4629    4.8635    0.2711 H         1 <0>         0.3982
     42 H14         2.9292    3.6231   -2.0792 H         1 <0>         0.1209
     43 H15         3.3952    6.0292   -2.2744 H         1 <0>         0.1278
     44 H16         5.6919    5.8875    1.3292 H         1 <0>         0.1309
     45 H17         5.2232    3.4834    1.5406 H         1 <0>         0.1237
     46 H18         4.6492    7.6586   -2.6449 H         1 <0>         0.0555
     47 H19         3.1874    8.0270   -1.6984 H         1 <0>         0.0557
     48 H20         4.5581    9.1625   -1.6972 H         1 <0>         0.0999
@<TRIPOS>BOND
     1    1    2 1
     2    1   30 1
     3    1   31 1
     4    1   32 1
     5    2    3 1
     6    2    4 1
     7    2   33 1
     8    3   34 1
     9    3   35 1
    10    3   36 1
    11    4    5 am
    12    4   37 1
    13    5    6 2
    14    5    7 1
    15    7   11 1
    16    7    8 2
    17    8    9 1
    18    8   22 1
    19    9   10 2
    20    9   13 1
    21   10   11 1
    22   11   12 1
    23   13   18 ar
    24   13   14 ar
    25   14   15 ar
    26   14   38 1
    27   15   16 ar
    28   15   21 1
    29   16   17 ar
    30   16   20 1
    31   17   18 ar
    32   17   39 1
    33   18   19 1
    34   19   40 1
    35   20   41 1
    36   22   27 ar
    37   22   23 ar
    38   23   24 ar
    39   23   42 1
    40   24   25 ar
    41   24   43 1
    42   25   26 ar
    43   25   28 1
    44   26   27 ar
    45   26   44 1
    46   27   45 1
    47   28   29 1
    48   29   46 1
    49   29   47 1
    50   29   48 1
